MODEL 1
REMARK VINA RESULT: -5.372543110      0.000      0.000
REMARK  13 active torsions:
REMARK  status: ('A' for Active; 'I' for Inactive)
REMARK    1  A    between atoms: C2_2  and  C3_3 
REMARK    2  A    between atoms: C3_3  and  O1_4 
REMARK    3  A    between atoms: C3_3  and  C4_6 
REMARK    4  A    between atoms: C3_3  and  C6_8 
REMARK    5  A    between atoms: C6_8  and  O2_9 
REMARK    6  A    between atoms: C8_12  and  C9_13 
REMARK    7  A    between atoms: C9_13  and  O4_14 
REMARK    8  A    between atoms: C11_17  and  O5_18 
REMARK    9  A    between atoms: O5_18  and  C12_19 
REMARK   10  A    between atoms: C13_21  and  C14_22 
REMARK   11  A    between atoms: C14_22  and  O7_23 
REMARK   12  A    between atoms: C15_25  and  O8_26 
REMARK   13  A    between atoms: C21_34  and  O9_35 
ROOT
HETATM    1  C12 UNL     1      10.844  28.971  37.934  1.00  0.00     0.266 C 
HETATM    2  O6  UNL     1      10.894  27.604  37.921  1.00  0.00    -0.351 OA
HETATM    3  C13 UNL     1      12.054  27.012  38.287  1.00  0.00     0.178 C 
HETATM    4  C15 UNL     1      12.524  27.461  39.634  1.00  0.00     0.167 C 
HETATM    5  C16 UNL     1      12.407  28.918  39.904  1.00  0.00     0.132 C 
HETATM    6  C17 UNL     1      13.708  29.584  39.666  1.00  0.00     0.067 C 
HETATM    7  N1  UNL     1      14.727  30.117  39.497  1.00  0.00    -0.197 NA
HETATM    8  C18 UNL     1      11.274  29.615  39.214  1.00  0.00     0.057 C 
HETATM    9  C19 UNL     1      10.105  29.776  40.192  1.00  0.00     0.016 C 
ENDROOT
BRANCH   4  10
HETATM   10  O8  UNL     1      13.828  27.042  39.910  1.00  0.00    -0.392 OA
ATOM     11  H8  UNL     1      14.476  27.699  39.682  1.00  0.00     0.210 HD
ENDBRANCH   4  10
BRANCH   3  12
HETATM   12  C14 UNL     1      13.126  26.988  37.227  1.00  0.00     0.198 C 
BRANCH  12  13
HETATM   13  O7  UNL     1      13.895  25.865  37.185  1.00  0.00    -0.398 OA
ATOM     14  H7  UNL     1      14.812  25.982  37.406  1.00  0.00     0.209 HD
ENDBRANCH  12  13
ENDBRANCH   3  12
BRANCH   1  15
HETATM   15  O5  UNL     1       9.504  29.313  37.733  1.00  0.00    -0.355 OA
BRANCH  15  16
HETATM   16  C11 UNL     1       8.707  28.218  37.438  1.00  0.00     0.134 C 
HETATM   17  C10 UNL     1       8.130  28.427  36.062  1.00  0.00     0.058 C 
HETATM   18  C8  UNL     1       8.305  27.162  35.262  1.00  0.00     0.156 C 
HETATM   19  C22 UNL     1       6.673  28.587  36.180  1.00  0.00     0.089 C 
HETATM   20  O3  UNL     1       7.106  26.976  34.591  1.00  0.00    -0.344 OA
HETATM   21  C6  UNL     1       6.086  27.296  35.458  1.00  0.00     0.202 C 
HETATM   22  C21 UNL     1       6.314  28.633  37.614  1.00  0.00     0.130 C 
HETATM   23  C20 UNL     1       7.530  28.092  38.355  1.00  0.00     0.065 C 
BRANCH  18  24
HETATM   24  C9  UNL     1       9.415  27.404  34.263  1.00  0.00     0.196 C 
BRANCH  24  25
HETATM   25  O4  UNL     1      10.670  27.365  34.865  1.00  0.00    -0.398 OA
ATOM     26  H4  UNL     1      11.360  27.604  34.258  1.00  0.00     0.209 HD
ENDBRANCH  24  25
ENDBRANCH  18  24
BRANCH  21  27
HETATM   27  C3  UNL     1       4.869  27.729  34.735  1.00  0.00     0.114 C 
BRANCH  27  28
HETATM   28  C2  UNL     1       4.701  26.895  33.401  1.00  0.00     0.039 C 
HETATM   29  C1  UNL     1       3.213  26.615  33.227  1.00  0.00     0.008 C 
ENDBRANCH  27  28
BRANCH  27  30
HETATM   30  O1  UNL     1       3.658  27.377  35.373  1.00  0.00    -0.384 OA
ATOM     31  H1  UNL     1       3.745  27.899  36.162  1.00  0.00     0.210 HD
ENDBRANCH  27  30
BRANCH  27  32
HETATM   32  C4  UNL     1       4.787  29.132  34.274  1.00  0.00     0.039 C 
HETATM   33  C5  UNL     1       5.728  29.610  33.225  1.00  0.00     0.008 C 
ENDBRANCH  27  32
ENDBRANCH  21  27
BRANCH  21  34
HETATM   34  O2  UNL     1       5.962  26.399  36.431  1.00  0.00    -0.357 OA
HETATM   35  C7  UNL     1       5.931  25.086  36.370  1.00  0.00     0.205 C 
ENDBRANCH  21  34
BRANCH  22  36
HETATM   36  O9  UNL     1       5.238  27.939  38.051  1.00  0.00    -0.395 OA
ATOM     37  H9  UNL     1       4.567  28.010  37.382  1.00  0.00     0.210 HD
ENDBRANCH  22  36
ENDBRANCH  15  16
ENDBRANCH   1  15
TORSDOF 13
ENDMDL
MODEL 2
REMARK VINA RESULT: -5.332921574      4.598      6.820
REMARK  13 active torsions:
REMARK  status: ('A' for Active; 'I' for Inactive)
REMARK    1  A    between atoms: C2_2  and  C3_3 
REMARK    2  A    between atoms: C3_3  and  O1_4 
REMARK    3  A    between atoms: C3_3  and  C4_6 
REMARK    4  A    between atoms: C3_3  and  C6_8 
REMARK    5  A    between atoms: C6_8  and  O2_9 
REMARK    6  A    between atoms: C8_12  and  C9_13 
REMARK    7  A    between atoms: C9_13  and  O4_14 
REMARK    8  A    between atoms: C11_17  and  O5_18 
REMARK    9  A    between atoms: O5_18  and  C12_19 
REMARK   10  A    between atoms: C13_21  and  C14_22 
REMARK   11  A    between atoms: C14_22  and  O7_23 
REMARK   12  A    between atoms: C15_25  and  O8_26 
REMARK   13  A    between atoms: C21_34  and  O9_35 
ROOT
HETATM    1  C12 UNL     1      10.170  23.204  32.547  1.00  0.00     0.266 C 
HETATM    2  O6  UNL     1      11.059  24.037  31.923  1.00  0.00    -0.351 OA
HETATM    3  C13 UNL     1      12.323  23.592  31.748  1.00  0.00     0.178 C 
HETATM    4  C15 UNL     1      12.372  22.278  31.035  1.00  0.00     0.167 C 
HETATM    5  C16 UNL     1      11.367  21.271  31.470  1.00  0.00     0.132 C 
HETATM    6  C17 UNL     1      11.979  20.325  32.430  1.00  0.00     0.067 C 
HETATM    7  N1  UNL     1      12.451  19.566  33.173  1.00  0.00    -0.197 NA
HETATM    8  C18 UNL     1      10.068  21.829  31.967  1.00  0.00     0.057 C 
HETATM    9  C19 UNL     1       9.023  21.758  30.848  1.00  0.00     0.016 C 
ENDROOT
BRANCH   4  10
HETATM   10  O8  UNL     1      13.645  21.702  31.064  1.00  0.00    -0.392 OA
ATOM     11  H8  UNL     1      13.618  20.771  31.249  1.00  0.00     0.210 HD
ENDBRANCH   4  10
BRANCH   3  12
HETATM   12  C14 UNL     1      13.210  23.676  32.965  1.00  0.00     0.198 C 
BRANCH  12  13
HETATM   13  O7  UNL     1      14.518  23.973  32.728  1.00  0.00    -0.398 OA
ATOM     14  H7  UNL     1      15.153  23.365  33.088  1.00  0.00     0.209 HD
ENDBRANCH  12  13
ENDBRANCH   3  12
BRANCH   1  15
HETATM   15  O5  UNL     1       8.914  23.802  32.408  1.00  0.00    -0.355 OA
BRANCH  15  16
HETATM   16  C11 UNL     1       8.547  24.545  33.519  1.00  0.00     0.134 C 
HETATM   17  C10 UNL     1       7.046  24.477  33.640  1.00  0.00     0.058 C 
HETATM   18  C8  UNL     1       6.685  24.158  35.068  1.00  0.00     0.156 C 
HETATM   19  C22 UNL     1       6.493  25.820  33.415  1.00  0.00     0.089 C 
HETATM   20  O3  UNL     1       5.622  24.992  35.380  1.00  0.00    -0.344 OA
HETATM   21  C6  UNL     1       5.880  26.225  34.826  1.00  0.00     0.202 C 
HETATM   22  C21 UNL     1       7.590  26.725  33.005  1.00  0.00     0.130 C 
HETATM   23  C20 UNL     1       8.875  26.000  33.381  1.00  0.00     0.065 C 
BRANCH  18  24
HETATM   24  C9  UNL     1       6.231  22.716  35.112  1.00  0.00     0.196 C 
BRANCH  24  25
HETATM   25  O4  UNL     1       7.207  21.883  35.653  1.00  0.00    -0.398 OA
ATOM     26  H4  UNL     1       6.848  21.300  36.311  1.00  0.00     0.209 HD
ENDBRANCH  24  25
ENDBRANCH  18  24
BRANCH  21  27
HETATM   27  C3  UNL     1       4.632  26.973  34.551  1.00  0.00     0.114 C 
BRANCH  27  28
HETATM   28  C2  UNL     1       3.573  26.707  35.695  1.00  0.00     0.039 C 
HETATM   29  C1  UNL     1       3.362  28.025  36.431  1.00  0.00     0.008 C 
ENDBRANCH  27  28
BRANCH  27  30
HETATM   30  O1  UNL     1       4.755  28.375  34.680  1.00  0.00    -0.384 OA
ATOM     31  H1  UNL     1       5.061  28.581  33.805  1.00  0.00     0.210 HD
ENDBRANCH  27  30
BRANCH  27  32
HETATM   32  C4  UNL     1       3.885  26.661  33.314  1.00  0.00     0.039 C 
HETATM   33  C5  UNL     1       2.665  25.813  33.394  1.00  0.00     0.008 C 
ENDBRANCH  27  32
ENDBRANCH  21  27
BRANCH  21  34
HETATM   34  O2  UNL     1       6.872  26.852  35.451  1.00  0.00    -0.357 OA
HETATM   35  C7  UNL     1       7.075  27.040  36.736  1.00  0.00     0.205 C 
ENDBRANCH  21  34
BRANCH  22  36
HETATM   36  O9  UNL     1       7.660  27.966  33.539  1.00  0.00    -0.395 OA
ATOM     37  H9  UNL     1       7.564  27.873  34.479  1.00  0.00     0.210 HD
ENDBRANCH  22  36
ENDBRANCH  15  16
ENDBRANCH   1  15
TORSDOF 13
ENDMDL
MODEL 3
REMARK VINA RESULT: -5.198071438      2.860      4.977
REMARK  13 active torsions:
REMARK  status: ('A' for Active; 'I' for Inactive)
REMARK    1  A    between atoms: C2_2  and  C3_3 
REMARK    2  A    between atoms: C3_3  and  O1_4 
REMARK    3  A    between atoms: C3_3  and  C4_6 
REMARK    4  A    between atoms: C3_3  and  C6_8 
REMARK    5  A    between atoms: C6_8  and  O2_9 
REMARK    6  A    between atoms: C8_12  and  C9_13 
REMARK    7  A    between atoms: C9_13  and  O4_14 
REMARK    8  A    between atoms: C11_17  and  O5_18 
REMARK    9  A    between atoms: O5_18  and  C12_19 
REMARK   10  A    between atoms: C13_21  and  C14_22 
REMARK   11  A    between atoms: C14_22  and  O7_23 
REMARK   12  A    between atoms: C15_25  and  O8_26 
REMARK   13  A    between atoms: C21_34  and  O9_35 
ROOT
HETATM    1  C12 UNL     1      12.684  28.088  38.139  1.00  0.00     0.266 C 
HETATM    2  O6  UNL     1      13.215  29.304  38.473  1.00  0.00    -0.351 OA
HETATM    3  C13 UNL     1      14.446  29.322  39.031  1.00  0.00     0.178 C 
HETATM    4  C15 UNL     1      15.461  28.609  38.196  1.00  0.00     0.167 C 
HETATM    5  C16 UNL     1      15.019  27.319  37.605  1.00  0.00     0.132 C 
HETATM    6  C17 UNL     1      15.492  26.191  38.439  1.00  0.00     0.067 C 
HETATM    7  N1  UNL     1      15.871  25.294  39.076  1.00  0.00    -0.197 NA
HETATM    8  C18 UNL     1      13.557  27.221  37.288  1.00  0.00     0.057 C 
HETATM    9  C19 UNL     1      13.343  27.486  35.794  1.00  0.00     0.016 C 
ENDROOT
BRANCH   4  10
HETATM   10  O8  UNL     1      16.669  28.418  38.873  1.00  0.00    -0.392 OA
ATOM     11  H8  UNL     1      16.960  27.514  38.847  1.00  0.00     0.210 HD
ENDBRANCH   4  10
BRANCH   3  12
HETATM   12  C14 UNL     1      14.492  28.980  40.499  1.00  0.00     0.198 C 
BRANCH  12  13
HETATM   13  O7  UNL     1      15.463  29.603  41.224  1.00  0.00    -0.398 OA
ATOM     14  H7  UNL     1      15.422  30.552  41.242  1.00  0.00     0.209 HD
ENDBRANCH  12  13
ENDBRANCH   3  12
BRANCH   1  15
HETATM   15  O5  UNL     1      11.529  28.357  37.399  1.00  0.00    -0.355 OA
BRANCH  15  16
HETATM   16  C11 UNL     1      10.383  27.841  37.983  1.00  0.00     0.134 C 
HETATM   17  C10 UNL     1       9.388  28.965  38.112  1.00  0.00     0.058 C 
HETATM   18  C8  UNL     1       8.049  28.493  37.606  1.00  0.00     0.156 C 
HETATM   19  C22 UNL     1       9.163  29.235  39.540  1.00  0.00     0.089 C 
HETATM   20  O3  UNL     1       7.117  28.965  38.517  1.00  0.00    -0.344 OA
HETATM   21  C6  UNL     1       7.649  28.812  39.777  1.00  0.00     0.202 C 
HETATM   22  C21 UNL     1      10.102  28.412  40.334  1.00  0.00     0.130 C 
HETATM   23  C20 UNL     1      10.613  27.343  39.377  1.00  0.00     0.065 C 
BRANCH  18  24
HETATM   24  C9  UNL     1       7.817  29.141  36.258  1.00  0.00     0.196 C 
BRANCH  24  25
HETATM   25  O4  UNL     1       8.379  28.396  35.224  1.00  0.00    -0.398 OA
ATOM     26  H4  UNL     1       7.814  27.680  34.959  1.00  0.00     0.209 HD
ENDBRANCH  24  25
ENDBRANCH  18  24
BRANCH  21  27
HETATM   27  C3  UNL     1       7.077  29.787  40.734  1.00  0.00     0.114 C 
BRANCH  27  28
HETATM   28  C2  UNL     1       5.609  30.184  40.298  1.00  0.00     0.039 C 
HETATM   29  C1  UNL     1       4.743  30.152  41.551  1.00  0.00     0.008 C 
ENDBRANCH  27  28
BRANCH  27  30
HETATM   30  O1  UNL     1       6.796  29.252  42.011  1.00  0.00    -0.384 OA
ATOM     31  H1  UNL     1       7.469  29.696  42.513  1.00  0.00     0.210 HD
ENDBRANCH  27  30
BRANCH  27  32
HETATM   32  C4  UNL     1       7.752  31.094  40.891  1.00  0.00     0.039 C 
HETATM   33  C5  UNL     1       8.243  31.503  42.235  1.00  0.00     0.008 C 
ENDBRANCH  27  32
ENDBRANCH  21  27
BRANCH  21  34
HETATM   34  O2  UNL     1       7.714  27.533  40.137  1.00  0.00    -0.357 OA
HETATM   35  C7  UNL     1       6.803  26.588  40.061  1.00  0.00     0.205 C 
ENDBRANCH  21  34
BRANCH  22  36
HETATM   36  O9  UNL     1       9.652  27.776  41.440  1.00  0.00    -0.395 OA
ATOM     37  H9  UNL     1       8.939  27.210  41.169  1.00  0.00     0.210 HD
ENDBRANCH  22  36
ENDBRANCH  15  16
ENDBRANCH   1  15
TORSDOF 13
ENDMDL
MODEL 4
REMARK VINA RESULT: -5.184866018      2.910      8.395
REMARK  13 active torsions:
REMARK  status: ('A' for Active; 'I' for Inactive)
REMARK    1  A    between atoms: C2_2  and  C3_3 
REMARK    2  A    between atoms: C3_3  and  O1_4 
REMARK    3  A    between atoms: C3_3  and  C4_6 
REMARK    4  A    between atoms: C3_3  and  C6_8 
REMARK    5  A    between atoms: C6_8  and  O2_9 
REMARK    6  A    between atoms: C8_12  and  C9_13 
REMARK    7  A    between atoms: C9_13  and  O4_14 
REMARK    8  A    between atoms: C11_17  and  O5_18 
REMARK    9  A    between atoms: O5_18  and  C12_19 
REMARK   10  A    between atoms: C13_21  and  C14_22 
REMARK   11  A    between atoms: C14_22  and  O7_23 
REMARK   12  A    between atoms: C15_25  and  O8_26 
REMARK   13  A    between atoms: C21_34  and  O9_35 
ROOT
HETATM    1  C12 UNL     1      10.020  28.427  38.396  1.00  0.00     0.266 C 
HETATM    2  O6  UNL     1       9.596  29.069  37.265  1.00  0.00    -0.351 OA
HETATM    3  C13 UNL     1       8.410  28.694  36.735  1.00  0.00     0.178 C 
HETATM    4  C15 UNL     1       7.294  28.762  37.729  1.00  0.00     0.167 C 
HETATM    5  C16 UNL     1       7.608  28.245  39.087  1.00  0.00     0.132 C 
HETATM    6  C17 UNL     1       7.120  26.855  39.226  1.00  0.00     0.067 C 
HETATM    7  N1  UNL     1       6.727  25.768  39.355  1.00  0.00    -0.197 NA
HETATM    8  C18 UNL     1       9.035  28.395  39.522  1.00  0.00     0.057 C 
HETATM    9  C19 UNL     1       9.164  29.625  40.427  1.00  0.00     0.016 C 
ENDROOT
BRANCH   4  10
HETATM   10  O8  UNL     1       6.126  28.154  37.262  1.00  0.00    -0.392 OA
ATOM     11  H8  UNL     1       5.879  27.397  37.779  1.00  0.00     0.210 HD
ENDBRANCH   4  10
BRANCH   3  12
HETATM   12  C14 UNL     1       8.442  27.428  35.917  1.00  0.00     0.198 C 
BRANCH  12  13
HETATM   13  O7  UNL     1       9.540  27.257  35.128  1.00  0.00    -0.398 OA
ATOM     14  H7  UNL     1       9.875  26.370  35.071  1.00  0.00     0.209 HD
ENDBRANCH  12  13
ENDBRANCH   3  12
BRANCH   1  15
HETATM   15  O5  UNL     1      11.137  29.135  38.849  1.00  0.00    -0.355 OA
BRANCH  15  16
HETATM   16  C11 UNL     1      12.178  28.307  39.237  1.00  0.00     0.134 C 
HETATM   17  C10 UNL     1      13.470  28.987  38.862  1.00  0.00     0.058 C 
HETATM   18  C8  UNL     1      14.411  28.931  40.038  1.00  0.00     0.156 C 
HETATM   19  C22 UNL     1      14.138  28.191  37.822  1.00  0.00     0.089 C 
HETATM   20  O3  UNL     1      15.650  28.604  39.511  1.00  0.00    -0.344 OA
HETATM   21  C6  UNL     1      15.453  27.651  38.537  1.00  0.00     0.202 C 
HETATM   22  C21 UNL     1      13.237  27.092  37.411  1.00  0.00     0.130 C 
HETATM   23  C20 UNL     1      12.185  26.999  38.508  1.00  0.00     0.065 C 
BRANCH  18  24
HETATM   24  C9  UNL     1      14.465  30.317  40.645  1.00  0.00     0.196 C 
BRANCH  24  25
HETATM   25  O4  UNL     1      14.260  31.308  39.688  1.00  0.00    -0.398 OA
ATOM     26  H4  UNL     1      14.013  32.134  40.084  1.00  0.00     0.209 HD
ENDBRANCH  24  25
ENDBRANCH  18  24
BRANCH  21  27
HETATM   27  C3  UNL     1      16.531  27.674  37.523  1.00  0.00     0.114 C 
BRANCH  27  28
HETATM   28  C2  UNL     1      17.940  27.818  38.226  1.00  0.00     0.039 C 
HETATM   29  C1  UNL     1      18.682  26.502  38.024  1.00  0.00     0.008 C 
ENDBRANCH  27  28
BRANCH  27  30
HETATM   30  O1  UNL     1      16.734  26.441  36.863  1.00  0.00    -0.384 OA
ATOM     31  H1  UNL     1      16.939  25.899  37.615  1.00  0.00     0.210 HD
ENDBRANCH  27  30
BRANCH  27  32
HETATM   32  C4  UNL     1      16.533  28.767  36.526  1.00  0.00     0.039 C 
HETATM   33  C5  UNL     1      17.483  28.707  35.381  1.00  0.00     0.008 C 
ENDBRANCH  27  32
ENDBRANCH  21  27
BRANCH  21  34
HETATM   34  O2  UNL     1      15.092  26.481  39.055  1.00  0.00    -0.357 OA
HETATM   35  C7  UNL     1      15.598  25.815  40.069  1.00  0.00     0.205 C 
ENDBRANCH  21  34
BRANCH  22  36
HETATM   36  O9  UNL     1      13.745  25.849  37.238  1.00  0.00    -0.395 OA
ATOM     37  H9  UNL     1      13.977  25.766  36.321  1.00  0.00     0.210 HD
ENDBRANCH  22  36
ENDBRANCH  15  16
ENDBRANCH   1  15
TORSDOF 13
ENDMDL
MODEL 5
REMARK VINA RESULT: -5.148216770      3.720      7.705
REMARK  13 active torsions:
REMARK  status: ('A' for Active; 'I' for Inactive)
REMARK    1  A    between atoms: C2_2  and  C3_3 
REMARK    2  A    between atoms: C3_3  and  O1_4 
REMARK    3  A    between atoms: C3_3  and  C4_6 
REMARK    4  A    between atoms: C3_3  and  C6_8 
REMARK    5  A    between atoms: C6_8  and  O2_9 
REMARK    6  A    between atoms: C8_12  and  C9_13 
REMARK    7  A    between atoms: C9_13  and  O4_14 
REMARK    8  A    between atoms: C11_17  and  O5_18 
REMARK    9  A    between atoms: O5_18  and  C12_19 
REMARK   10  A    between atoms: C13_21  and  C14_22 
REMARK   11  A    between atoms: C14_22  and  O7_23 
REMARK   12  A    between atoms: C15_25  and  O8_26 
REMARK   13  A    between atoms: C21_34  and  O9_35 
ROOT
HETATM    1  C12 UNL     1       6.481  28.140  36.206  1.00  0.00     0.266 C 
HETATM    2  O6  UNL     1       7.541  28.699  35.545  1.00  0.00    -0.351 OA
HETATM    3  C13 UNL     1       7.960  28.102  34.407  1.00  0.00     0.178 C 
HETATM    4  C15 UNL     1       6.856  27.932  33.412  1.00  0.00     0.167 C 
HETATM    5  C16 UNL     1       5.555  27.470  33.965  1.00  0.00     0.132 C 
HETATM    6  C17 UNL     1       5.415  26.008  33.778  1.00  0.00     0.067 C 
HETATM    7  N1  UNL     1       5.285  24.863  33.624  1.00  0.00    -0.197 NA
HETATM    8  C18 UNL     1       5.263  27.897  35.372  1.00  0.00     0.057 C 
HETATM    9  C19 UNL     1       4.333  29.115  35.350  1.00  0.00     0.016 C 
ENDROOT
BRANCH   4  10
HETATM   10  O8  UNL     1       7.223  27.109  32.344  1.00  0.00    -0.392 OA
ATOM     11  H8  UNL     1       7.244  26.190  32.585  1.00  0.00     0.210 HD
ENDBRANCH   4  10
BRANCH   3  12
HETATM   12  C14 UNL     1       8.820  26.879  34.602  1.00  0.00     0.198 C 
BRANCH  12  13
HETATM   13  O7  UNL     1       9.897  26.772  33.774  1.00  0.00    -0.398 OA
ATOM     14  H7  UNL     1       9.762  26.266  32.982  1.00  0.00     0.209 HD
ENDBRANCH  12  13
ENDBRANCH   3  12
BRANCH   1  15
HETATM   15  O5  UNL     1       6.119  29.051  37.202  1.00  0.00    -0.355 OA
BRANCH  15  16
HETATM   16  C11 UNL     1       6.100  28.486  38.467  1.00  0.00     0.134 C 
HETATM   17  C10 UNL     1       6.065  29.609  39.472  1.00  0.00     0.058 C 
HETATM   18  C8  UNL     1       4.998  29.315  40.496  1.00  0.00     0.156 C 
HETATM   19  C22 UNL     1       7.320  29.597  40.238  1.00  0.00     0.089 C 
HETATM   20  O3  UNL     1       5.558  29.640  41.722  1.00  0.00    -0.344 OA
HETATM   21  C6  UNL     1       6.866  29.210  41.713  1.00  0.00     0.202 C 
HETATM   22  C21 UNL     1       8.226  28.585  39.652  1.00  0.00     0.130 C 
HETATM   23  C20 UNL     1       7.341  27.707  38.776  1.00  0.00     0.065 C 
BRANCH  18  24
HETATM   24  C9  UNL     1       3.829  30.231  40.211  1.00  0.00     0.196 C 
BRANCH  24  25
HETATM   25  O4  UNL     1       3.433  30.933  41.348  1.00  0.00    -0.398 OA
ATOM     26  H4  UNL     1       2.495  31.080  41.362  1.00  0.00     0.209 HD
ENDBRANCH  24  25
ENDBRANCH  18  24
BRANCH  21  27
HETATM   27  C3  UNL     1       7.708  30.000  42.640  1.00  0.00     0.114 C 
BRANCH  27  28
HETATM   28  C2  UNL     1       6.896  30.348  43.952  1.00  0.00     0.039 C 
HETATM   29  C1  UNL     1       7.423  29.444  45.061  1.00  0.00     0.008 C 
ENDBRANCH  27  28
BRANCH  27  30
HETATM   30  O1  UNL     1       8.772  29.274  43.219  1.00  0.00    -0.384 OA
ATOM     31  H1  UNL     1       9.284  29.999  43.558  1.00  0.00     0.210 HD
ENDBRANCH  27  30
BRANCH  27  32
HETATM   32  C4  UNL     1       8.205  31.316  42.186  1.00  0.00     0.039 C 
HETATM   33  C5  UNL     1       8.350  32.420  43.174  1.00  0.00     0.008 C 
ENDBRANCH  27  32
ENDBRANCH  21  27
BRANCH  21  34
HETATM   34  O2  UNL     1       6.952  27.884  41.749  1.00  0.00    -0.357 OA
HETATM   35  C7  UNL     1       6.290  27.014  42.481  1.00  0.00     0.205 C 
ENDBRANCH  21  34
BRANCH  22  36
HETATM   36  O9  UNL     1       8.920  27.762  40.472  1.00  0.00    -0.395 OA
ATOM     37  H9  UNL     1       8.734  28.032  41.363  1.00  0.00     0.210 HD
ENDBRANCH  22  36
ENDBRANCH  15  16
ENDBRANCH   1  15
TORSDOF 13
ENDMDL
