MODEL 1
REMARK VINA RESULT: -9.668926336      0.000      0.000
REMARK  5 active torsions:
REMARK  status: ('A' for Active; 'I' for Inactive)
REMARK    1  A    between atoms: C19_19  and  C20_20 
REMARK    2  A    between atoms: C20_20  and  C22_22 
REMARK    3  A    between atoms: C22_22  and  C23_23 
REMARK    4  A    between atoms: C23_23  and  C24_24 
REMARK    5  A    between atoms: C24_24  and  O1_25 
ROOT
HETATM    1  C1  UNL     1      26.073  30.853   5.180  1.00  0.00     0.014 C 
HETATM    2  C2  UNL     1      25.278  31.326   6.120  1.00  0.00    -0.084 C 
HETATM    3  C3  UNL     1      25.772  32.320   7.058  1.00  0.00     0.034 C 
HETATM    4  C4  UNL     1      24.918  32.646   8.223  1.00  0.00     0.005 C 
HETATM    5  C5  UNL     1      23.527  32.136   8.222  1.00  0.00     0.011 C 
HETATM    6  C6  UNL     1      22.978  31.840   6.820  1.00  0.00    -0.025 C 
HETATM    7  C7  UNL     1      23.885  30.831   6.215  1.00  0.00     0.023 C 
HETATM    8  C8  UNL     1      23.970  29.566   7.057  1.00  0.00     0.010 C 
HETATM    9  C9  UNL     1      22.787  28.719   6.727  1.00  0.00     0.010 C 
HETATM   10  C10 UNL     1      21.745  28.910   7.765  1.00  0.00    -0.040 C 
HETATM   11  C11 UNL     1      22.263  28.255   9.053  1.00  0.00     0.015 C 
HETATM   12  C12 UNL     1      20.523  28.078   7.368  1.00  0.00     0.009 C 
HETATM   13  C13 UNL     1      19.488  28.736   8.291  1.00  0.00     0.001 C 
HETATM   14  C14 UNL     1      19.758  30.192   8.001  1.00  0.00     0.006 C 
HETATM   15  C15 UNL     1      21.298  30.300   7.977  1.00  0.00    -0.002 C 
HETATM   16  C16 UNL     1      21.592  31.308   6.937  1.00  0.00    -0.000 C 
HETATM   17  C17 UNL     1      20.844  32.584   7.390  1.00  0.00     0.006 C 
HETATM   18  C18 UNL     1      21.549  33.707   6.674  1.00  0.00     0.006 C 
HETATM   19  C19 UNL     1      22.870  33.156   6.157  1.00  0.00    -0.001 C 
ENDROOT
BRANCH  19  20
HETATM   20  C20 UNL     1      23.134  33.363   4.745  1.00  0.00    -0.014 C 
HETATM   21  C21 UNL     1      24.160  34.546   4.623  1.00  0.00     0.010 C 
BRANCH  20  22
HETATM   22  C22 UNL     1      22.104  33.677   3.749  1.00  0.00     0.007 C 
BRANCH  22  23
HETATM   23  C23 UNL     1      21.472  32.526   3.003  1.00  0.00     0.026 C 
BRANCH  23  24
HETATM   24  C24 UNL     1      22.018  32.513   1.548  1.00  0.00     0.164 C 
BRANCH  24  25
HETATM   25  O1  UNL     1      22.343  33.830   1.174  1.00  0.00    -0.401 OA
ATOM     26  H1  UNL     1      22.926  33.800   0.425  1.00  0.00     0.209 HD
ENDBRANCH  24  25
ENDBRANCH  23  24
ENDBRANCH  22  23
ENDBRANCH  20  22
ENDBRANCH  19  20
TORSDOF 5
ENDMDL
MODEL 2
REMARK VINA RESULT: -8.769156887      1.434      3.862
REMARK  5 active torsions:
REMARK  status: ('A' for Active; 'I' for Inactive)
REMARK    1  A    between atoms: C19_19  and  C20_20 
REMARK    2  A    between atoms: C20_20  and  C22_22 
REMARK    3  A    between atoms: C22_22  and  C23_23 
REMARK    4  A    between atoms: C23_23  and  C24_24 
REMARK    5  A    between atoms: C24_24  and  O1_25 
ROOT
HETATM    1  C1  UNL     1      23.882  34.851   5.378  1.00  0.00     0.014 C 
HETATM    2  C2  UNL     1      23.785  33.942   6.328  1.00  0.00    -0.084 C 
HETATM    3  C3  UNL     1      23.291  34.316   7.644  1.00  0.00     0.034 C 
HETATM    4  C4  UNL     1      23.418  33.318   8.731  1.00  0.00     0.005 C 
HETATM    5  C5  UNL     1      23.795  31.935   8.357  1.00  0.00     0.011 C 
HETATM    6  C6  UNL     1      23.459  31.575   6.904  1.00  0.00    -0.025 C 
HETATM    7  C7  UNL     1      24.189  32.545   6.048  1.00  0.00     0.023 C 
HETATM    8  C8  UNL     1      25.689  32.508   6.297  1.00  0.00     0.010 C 
HETATM    9  C9  UNL     1      26.253  31.372   5.510  1.00  0.00     0.010 C 
HETATM   10  C10 UNL     1      26.438  30.203   6.405  1.00  0.00    -0.040 C 
HETATM   11  C11 UNL     1      27.591  30.541   7.360  1.00  0.00     0.015 C 
HETATM   12  C12 UNL     1      26.957  29.038   5.560  1.00  0.00     0.009 C 
HETATM   13  C13 UNL     1      26.671  27.895   6.544  1.00  0.00     0.001 C 
HETATM   14  C14 UNL     1      25.243  28.213   6.914  1.00  0.00     0.006 C 
HETATM   15  C15 UNL     1      25.230  29.743   7.117  1.00  0.00    -0.002 C 
HETATM   16  C16 UNL     1      23.906  30.181   6.628  1.00  0.00    -0.000 C 
HETATM   17  C17 UNL     1      22.882  29.389   7.476  1.00  0.00     0.006 C 
HETATM   18  C18 UNL     1      21.610  30.192   7.374  1.00  0.00     0.006 C 
HETATM   19  C19 UNL     1      21.984  31.565   6.835  1.00  0.00    -0.001 C 
ENDROOT
BRANCH  19  20
HETATM   20  C20 UNL     1      21.236  32.016   5.675  1.00  0.00    -0.014 C 
HETATM   21  C21 UNL     1      19.852  31.272   5.685  1.00  0.00     0.010 C 
BRANCH  20  22
HETATM   22  C22 UNL     1      21.701  31.887   4.291  1.00  0.00     0.007 C 
BRANCH  22  23
HETATM   23  C23 UNL     1      21.559  33.087   3.386  1.00  0.00     0.026 C 
BRANCH  23  24
HETATM   24  C24 UNL     1      21.874  32.654   1.927  1.00  0.00     0.164 C 
BRANCH  24  25
HETATM   25  O1  UNL     1      22.284  33.785   1.197  1.00  0.00    -0.401 OA
ATOM     26  H1  UNL     1      23.207  33.935   1.360  1.00  0.00     0.209 HD
ENDBRANCH  24  25
ENDBRANCH  23  24
ENDBRANCH  22  23
ENDBRANCH  20  22
ENDBRANCH  19  20
TORSDOF 5
ENDMDL
MODEL 3
REMARK VINA RESULT: -8.751154598      3.049      5.292
REMARK  5 active torsions:
REMARK  status: ('A' for Active; 'I' for Inactive)
REMARK    1  A    between atoms: C19_19  and  C20_20 
REMARK    2  A    between atoms: C20_20  and  C22_22 
REMARK    3  A    between atoms: C22_22  and  C23_23 
REMARK    4  A    between atoms: C23_23  and  C24_24 
REMARK    5  A    between atoms: C24_24  and  O1_25 
ROOT
HETATM    1  C1  UNL     1      25.345  33.679   8.348  1.00  0.00     0.014 C 
HETATM    2  C2  UNL     1      25.022  32.782   7.438  1.00  0.00    -0.084 C 
HETATM    3  C3  UNL     1      25.582  32.872   6.099  1.00  0.00     0.034 C 
HETATM    4  C4  UNL     1      25.014  31.983   5.059  1.00  0.00     0.005 C 
HETATM    5  C5  UNL     1      24.107  30.898   5.501  1.00  0.00     0.011 C 
HETATM    6  C6  UNL     1      24.310  30.478   6.962  1.00  0.00    -0.025 C 
HETATM    7  C7  UNL     1      24.081  31.693   7.787  1.00  0.00     0.023 C 
HETATM    8  C8  UNL     1      22.695  32.278   7.564  1.00  0.00     0.010 C 
HETATM    9  C9  UNL     1      21.735  31.509   8.409  1.00  0.00     0.010 C 
HETATM   10  C10 UNL     1      21.049  30.496   7.570  1.00  0.00    -0.040 C 
HETATM   11  C11 UNL     1      20.111  31.254   6.621  1.00  0.00     0.015 C 
HETATM   12  C12 UNL     1      20.119  29.683   8.475  1.00  0.00     0.009 C 
HETATM   13  C13 UNL     1      19.870  28.494   7.538  1.00  0.00     0.001 C 
HETATM   14  C14 UNL     1      21.287  28.173   7.130  1.00  0.00     0.006 C 
HETATM   15  C15 UNL     1      21.930  29.550   6.859  1.00  0.00    -0.002 C 
HETATM   16  C16 UNL     1      23.332  29.409   7.307  1.00  0.00    -0.000 C 
HETATM   17  C17 UNL     1      23.903  28.234   6.478  1.00  0.00     0.006 C 
HETATM   18  C18 UNL     1      25.396  28.434   6.523  1.00  0.00     0.006 C 
HETATM   19  C19 UNL     1      25.648  29.855   7.007  1.00  0.00    -0.001 C 
ENDROOT
BRANCH  19  20
HETATM   20  C20 UNL     1      26.554  29.989   8.133  1.00  0.00    -0.014 C 
HETATM   21  C21 UNL     1      27.934  30.491   7.574  1.00  0.00     0.010 C 
BRANCH  20  22
HETATM   22  C22 UNL     1      26.912  28.895   9.041  1.00  0.00     0.007 C 
BRANCH  22  23
HETATM   23  C23 UNL     1      28.268  28.252   8.870  1.00  0.00     0.026 C 
BRANCH  23  24
HETATM   24  C24 UNL     1      28.070  26.763   8.471  1.00  0.00     0.164 C 
BRANCH  24  25
HETATM   25  O1  UNL     1      28.683  26.544   7.225  1.00  0.00    -0.401 OA
ATOM     26  H1  UNL     1      28.051  26.144   6.640  1.00  0.00     0.209 HD
ENDBRANCH  24  25
ENDBRANCH  23  24
ENDBRANCH  22  23
ENDBRANCH  20  22
ENDBRANCH  19  20
TORSDOF 5
ENDMDL
MODEL 4
REMARK VINA RESULT: -8.734492321      2.396      4.262
REMARK  5 active torsions:
REMARK  status: ('A' for Active; 'I' for Inactive)
REMARK    1  A    between atoms: C19_19  and  C20_20 
REMARK    2  A    between atoms: C20_20  and  C22_22 
REMARK    3  A    between atoms: C22_22  and  C23_23 
REMARK    4  A    between atoms: C23_23  and  C24_24 
REMARK    5  A    between atoms: C24_24  and  O1_25 
ROOT
HETATM    1  C1  UNL     1      24.360  34.562   4.908  1.00  0.00     0.014 C 
HETATM    2  C2  UNL     1      24.411  33.885   6.038  1.00  0.00    -0.084 C 
HETATM    3  C3  UNL     1      24.361  34.588   7.310  1.00  0.00     0.034 C 
HETATM    4  C4  UNL     1      24.651  33.807   8.535  1.00  0.00     0.005 C 
HETATM    5  C5  UNL     1      24.719  32.332   8.412  1.00  0.00     0.011 C 
HETATM    6  C6  UNL     1      23.945  31.775   7.210  1.00  0.00    -0.025 C 
HETATM    7  C7  UNL     1      24.529  32.409   6.000  1.00  0.00     0.023 C 
HETATM    8  C8  UNL     1      26.020  32.133   5.877  1.00  0.00     0.010 C 
HETATM    9  C9  UNL     1      26.183  30.782   5.264  1.00  0.00     0.010 C 
HETATM   10  C10 UNL     1      26.452  29.789   6.333  1.00  0.00    -0.040 C 
HETATM   11  C11 UNL     1      27.861  30.074   6.871  1.00  0.00     0.015 C 
HETATM   12  C12 UNL     1      26.552  28.408   5.682  1.00  0.00     0.009 C 
HETATM   13  C13 UNL     1      26.402  27.548   6.944  1.00  0.00     0.001 C 
HETATM   14  C14 UNL     1      25.190  28.198   7.567  1.00  0.00     0.006 C 
HETATM   15  C15 UNL     1      25.442  29.712   7.405  1.00  0.00    -0.002 C 
HETATM   16  C16 UNL     1      24.105  30.295   7.166  1.00  0.00    -0.000 C 
HETATM   17  C17 UNL     1      23.261  29.889   8.398  1.00  0.00     0.006 C 
HETATM   18  C18 UNL     1      22.133  30.887   8.427  1.00  0.00     0.006 C 
HETATM   19  C19 UNL     1      22.521  32.037   7.508  1.00  0.00    -0.001 C 
ENDROOT
BRANCH  19  20
HETATM   20  C20 UNL     1      21.546  32.395   6.494  1.00  0.00    -0.014 C 
HETATM   21  C21 UNL     1      20.897  33.760   6.923  1.00  0.00     0.010 C 
BRANCH  20  22
HETATM   22  C22 UNL     1      20.404  31.558   6.113  1.00  0.00     0.007 C 
BRANCH  22  23
HETATM   23  C23 UNL     1      20.680  30.321   5.293  1.00  0.00     0.026 C 
BRANCH  23  24
HETATM   24  C24 UNL     1      19.952  29.114   5.948  1.00  0.00     0.164 C 
BRANCH  24  25
HETATM   25  O1  UNL     1      18.993  29.601   6.854  1.00  0.00    -0.401 OA
ATOM     26  H1  UNL     1      19.384  30.298   7.367  1.00  0.00     0.209 HD
ENDBRANCH  24  25
ENDBRANCH  23  24
ENDBRANCH  22  23
ENDBRANCH  20  22
ENDBRANCH  19  20
TORSDOF 5
ENDMDL
MODEL 5
REMARK VINA RESULT: -8.631619871      0.974      1.047
REMARK  5 active torsions:
REMARK  status: ('A' for Active; 'I' for Inactive)
REMARK    1  A    between atoms: C19_19  and  C20_20 
REMARK    2  A    between atoms: C20_20  and  C22_22 
REMARK    3  A    between atoms: C22_22  and  C23_23 
REMARK    4  A    between atoms: C23_23  and  C24_24 
REMARK    5  A    between atoms: C24_24  and  O1_25 
ROOT
HETATM    1  C1  UNL     1      26.563  30.334   5.309  1.00  0.00     0.014 C 
HETATM    2  C2  UNL     1      25.815  30.904   6.233  1.00  0.00    -0.084 C 
HETATM    3  C3  UNL     1      26.426  31.765   7.233  1.00  0.00     0.034 C 
HETATM    4  C4  UNL     1      25.584  32.192   8.374  1.00  0.00     0.005 C 
HETATM    5  C5  UNL     1      24.127  31.931   8.291  1.00  0.00     0.011 C 
HETATM    6  C6  UNL     1      23.606  31.783   6.856  1.00  0.00    -0.025 C 
HETATM    7  C7  UNL     1      24.356  30.654   6.248  1.00  0.00     0.023 C 
HETATM    8  C8  UNL     1      24.182  29.365   7.038  1.00  0.00     0.010 C 
HETATM    9  C9  UNL     1      22.889  28.748   6.622  1.00  0.00     0.010 C 
HETATM   10  C10 UNL     1      21.844  29.080   7.622  1.00  0.00    -0.040 C 
HETATM   11  C11 UNL     1      22.179  28.301   8.901  1.00  0.00     0.015 C 
HETATM   12  C12 UNL     1      20.519  28.486   7.137  1.00  0.00     0.009 C 
HETATM   13  C13 UNL     1      19.568  29.280   8.043  1.00  0.00     0.001 C 
HETATM   14  C14 UNL     1      20.097  30.677   7.827  1.00  0.00     0.006 C 
HETATM   15  C15 UNL     1      21.632  30.517   7.874  1.00  0.00    -0.002 C 
HETATM   16  C16 UNL     1      22.145  31.495   6.891  1.00  0.00    -0.000 C 
HETATM   17  C17 UNL     1      21.605  32.865   7.365  1.00  0.00     0.006 C 
HETATM   18  C18 UNL     1      22.526  33.873   6.729  1.00  0.00     0.006 C 
HETATM   19  C19 UNL     1      23.757  33.120   6.246  1.00  0.00    -0.001 C 
ENDROOT
BRANCH  19  20
HETATM   20  C20 UNL     1      24.122  33.327   4.856  1.00  0.00    -0.014 C 
HETATM   21  C21 UNL     1      23.912  34.850   4.532  1.00  0.00     0.010 C 
BRANCH  20  22
HETATM   22  C22 UNL     1      23.499  32.631   3.726  1.00  0.00     0.007 C 
BRANCH  22  23
HETATM   23  C23 UNL     1      22.659  33.447   2.772  1.00  0.00     0.026 C 
BRANCH  23  24
HETATM   24  C24 UNL     1      21.294  32.733   2.570  1.00  0.00     0.164 C 
BRANCH  24  25
HETATM   25  O1  UNL     1      21.022  31.948   3.705  1.00  0.00    -0.401 OA
ATOM     26  H1  UNL     1      20.333  31.330   3.491  1.00  0.00     0.209 HD
ENDBRANCH  24  25
ENDBRANCH  23  24
ENDBRANCH  22  23
ENDBRANCH  20  22
ENDBRANCH  19  20
TORSDOF 5
ENDMDL
