MODEL 1
REMARK VINA RESULT: -9.719854587      0.000      0.000
REMARK  6 active torsions:
REMARK  status: ('A' for Active; 'I' for Inactive)
REMARK    1  A    between atoms: C2_2  and  C3_3 
REMARK    2  A    between atoms: C13_13  and  C14_14 
REMARK    3  A    between atoms: C15_15  and  C16_16 
REMARK    4  A    between atoms: C16_16  and  N1_17 
REMARK    5  A    between atoms: N1_17  and  C18_19 
REMARK    6  A    between atoms: C18_19  and  C19_20 
ROOT
HETATM    1  C3  UNL     1      21.800  29.796   7.255  1.00  0.00     0.007 C 
HETATM    2  C4  UNL     1      22.254  31.108   6.637  1.00  0.00     0.008 C 
HETATM    3  C5  UNL     1      21.089  31.909   6.172  1.00  0.00     0.001 C 
HETATM    4  C6  UNL     1      20.895  33.181   6.973  1.00  0.00     0.000 C 
HETATM    5  C7  UNL     1      22.065  34.126   6.802  1.00  0.00     0.000 C 
HETATM    6  C8  UNL     1      22.815  34.368   8.100  1.00  0.00     0.000 C 
HETATM    7  C9  UNL     1      24.317  34.535   7.852  1.00  0.00     0.000 C 
HETATM    8  C10 UNL     1      25.118  33.532   8.647  1.00  0.00     0.000 C 
HETATM    9  C11 UNL     1      25.857  32.588   7.762  1.00  0.00     0.001 C 
HETATM   10  C12 UNL     1      26.069  31.222   8.371  1.00  0.00     0.017 C 
HETATM   11  C13 UNL     1      26.103  30.143   7.293  1.00  0.00     0.065 C 
HETATM   12  C22 UNL     1      25.392  28.886   7.734  1.00  0.00     0.017 C 
HETATM   13  C23 UNL     1      24.065  28.713   6.986  1.00  0.00     0.002 C 
HETATM   14  C24 UNL     1      22.965  29.104   7.941  1.00  0.00     0.008 C 
ENDROOT
BRANCH  11  15
HETATM   15  C14 UNL     1      27.512  29.821   6.961  1.00  0.00    -0.096 C 
HETATM   16  C15 UNL     1      28.643  29.534   6.707  1.00  0.00    -0.061 C 
BRANCH  16  17
HETATM   17  C16 UNL     1      30.041  29.148   6.409  1.00  0.00     0.150 C 
BRANCH  17  18
HETATM   18  N1  UNL     1      30.503  28.284   7.414  1.00  0.00    -0.387 N 
HETATM   19  C17 UNL     1      31.886  28.023   7.513  1.00  0.00     0.149 C 
BRANCH  18  20
HETATM   20  C18 UNL     1      29.610  27.314   7.950  1.00  0.00     0.126 C 
BRANCH  20  21
HETATM   21  C19 UNL     1      29.710  27.261   9.463  1.00  0.00    -0.005 C 
HETATM   22  C20 UNL     1      28.504  27.994  10.063  1.00  0.00     0.011 C 
HETATM   23  C21 UNL     1      29.801  25.869   9.997  1.00  0.00     0.011 C 
ENDBRANCH  20  21
ENDBRANCH  18  20
ENDBRANCH  17  18
ENDBRANCH  16  17
ENDBRANCH  11  15
BRANCH   1  24
HETATM   24  C2  UNL     1      20.754  30.035   8.260  1.00  0.00    -0.032 C 
HETATM   25  C1  UNL     1      19.690  29.292   8.340  1.00  0.00     0.007 C 
ENDBRANCH   1  24
TORSDOF 6
ENDMDL
MODEL 2
REMARK VINA RESULT: -9.624213235      1.748      4.124
REMARK  6 active torsions:
REMARK  status: ('A' for Active; 'I' for Inactive)
REMARK    1  A    between atoms: C2_2  and  C3_3 
REMARK    2  A    between atoms: C13_13  and  C14_14 
REMARK    3  A    between atoms: C15_15  and  C16_16 
REMARK    4  A    between atoms: C16_16  and  N1_17 
REMARK    5  A    between atoms: N1_17  and  C18_19 
REMARK    6  A    between atoms: C18_19  and  C19_20 
ROOT
HETATM    1  C3  UNL     1      24.747  33.800   7.275  1.00  0.00     0.007 C 
HETATM    2  C4  UNL     1      23.524  33.121   7.868  1.00  0.00     0.008 C 
HETATM    3  C5  UNL     1      22.427  34.103   8.092  1.00  0.00     0.001 C 
HETATM    4  C6  UNL     1      21.234  33.865   7.188  1.00  0.00     0.000 C 
HETATM    5  C7  UNL     1      20.579  32.531   7.477  1.00  0.00     0.000 C 
HETATM    6  C8  UNL     1      20.655  31.577   6.298  1.00  0.00     0.000 C 
HETATM    7  C9  UNL     1      20.822  30.127   6.766  1.00  0.00     0.000 C 
HETATM    8  C10 UNL     1      22.061  29.501   6.174  1.00  0.00     0.000 C 
HETATM    9  C11 UNL     1      23.058  29.146   7.223  1.00  0.00     0.001 C 
HETATM   10  C12 UNL     1      24.490  29.200   6.746  1.00  0.00     0.017 C 
HETATM   11  C13 UNL     1      25.430  29.581   7.884  1.00  0.00     0.065 C 
HETATM   12  C22 UNL     1      26.523  30.515   7.422  1.00  0.00     0.017 C 
HETATM   13  C23 UNL     1      26.301  31.932   7.964  1.00  0.00     0.002 C 
HETATM   14  C24 UNL     1      25.761  32.761   6.826  1.00  0.00     0.008 C 
ENDROOT
BRANCH  11  15
HETATM   15  C14 UNL     1      26.040  28.354   8.453  1.00  0.00    -0.096 C 
HETATM   16  C15 UNL     1      26.521  27.350   8.886  1.00  0.00    -0.061 C 
BRANCH  16  17
HETATM   17  C16 UNL     1      27.103  26.088   9.396  1.00  0.00     0.150 C 
BRANCH  17  18
HETATM   18  N1  UNL     1      28.251  26.382  10.147  1.00  0.00    -0.387 N 
HETATM   19  C17 UNL     1      29.410  26.835   9.481  1.00  0.00     0.149 C 
BRANCH  18  20
HETATM   20  C18 UNL     1      28.423  25.759  11.414  1.00  0.00     0.126 C 
BRANCH  20  21
HETATM   21  C19 UNL     1      29.572  24.769  11.382  1.00  0.00    -0.005 C 
HETATM   22  C20 UNL     1      30.242  24.747  12.762  1.00  0.00     0.011 C 
HETATM   23  C21 UNL     1      29.152  23.394  10.977  1.00  0.00     0.011 C 
ENDBRANCH  20  21
ENDBRANCH  18  20
ENDBRANCH  17  18
ENDBRANCH  16  17
ENDBRANCH  11  15
BRANCH   1  24
HETATM   24  C2  UNL     1      24.372  34.607   6.105  1.00  0.00    -0.032 C 
HETATM   25  C1  UNL     1      24.290  34.098   4.912  1.00  0.00     0.007 C 
ENDBRANCH   1  24
TORSDOF 6
ENDMDL
MODEL 3
REMARK VINA RESULT: -9.526963914      1.895      4.239
REMARK  6 active torsions:
REMARK  status: ('A' for Active; 'I' for Inactive)
REMARK    1  A    between atoms: C2_2  and  C3_3 
REMARK    2  A    between atoms: C13_13  and  C14_14 
REMARK    3  A    between atoms: C15_15  and  C16_16 
REMARK    4  A    between atoms: C16_16  and  N1_17 
REMARK    5  A    between atoms: N1_17  and  C18_19 
REMARK    6  A    between atoms: C18_19  and  C19_20 
ROOT
HETATM    1  C3  UNL     1      24.691  33.808   6.932  1.00  0.00     0.007 C 
HETATM    2  C4  UNL     1      23.626  33.000   7.655  1.00  0.00     0.008 C 
HETATM    3  C5  UNL     1      22.357  33.771   7.765  1.00  0.00     0.001 C 
HETATM    4  C6  UNL     1      21.234  33.170   6.942  1.00  0.00     0.000 C 
HETATM    5  C7  UNL     1      20.857  31.793   7.445  1.00  0.00     0.000 C 
HETATM    6  C8  UNL     1      21.119  30.706   6.418  1.00  0.00     0.000 C 
HETATM    7  C9  UNL     1      21.571  29.404   7.088  1.00  0.00     0.000 C 
HETATM    8  C10 UNL     1      22.909  28.951   6.558  1.00  0.00     0.000 C 
HETATM    9  C11 UNL     1      23.957  28.960   7.618  1.00  0.00     0.001 C 
HETATM   10  C12 UNL     1      25.350  29.220   7.095  1.00  0.00     0.017 C 
HETATM   11  C13 UNL     1      26.196  29.945   8.135  1.00  0.00     0.065 C 
HETATM   12  C22 UNL     1      27.082  30.995   7.508  1.00  0.00     0.017 C 
HETATM   13  C23 UNL     1      26.584  32.406   7.842  1.00  0.00     0.002 C 
HETATM   14  C24 UNL     1      25.890  32.932   6.610  1.00  0.00     0.008 C 
ENDROOT
BRANCH  11  15
HETATM   15  C14 UNL     1      27.037  28.961   8.860  1.00  0.00    -0.096 C 
HETATM   16  C15 UNL     1      27.717  28.189   9.467  1.00  0.00    -0.061 C 
BRANCH  16  17
HETATM   17  C16 UNL     1      28.563  27.256  10.245  1.00  0.00     0.150 C 
BRANCH  17  18
HETATM   18  N1  UNL     1      28.183  25.938   9.951  1.00  0.00    -0.387 N 
HETATM   19  C17 UNL     1      26.813  25.600   9.958  1.00  0.00     0.149 C 
BRANCH  18  20
HETATM   20  C18 UNL     1      29.120  24.888  10.165  1.00  0.00     0.126 C 
BRANCH  20  21
HETATM   21  C19 UNL     1      28.945  24.275  11.542  1.00  0.00    -0.005 C 
HETATM   22  C20 UNL     1      28.908  22.748  11.401  1.00  0.00     0.011 C 
HETATM   23  C21 UNL     1      30.004  24.692  12.509  1.00  0.00     0.011 C 
ENDBRANCH  20  21
ENDBRANCH  18  20
ENDBRANCH  17  18
ENDBRANCH  16  17
ENDBRANCH  11  15
BRANCH   1  24
HETATM   24  C2  UNL     1      24.163  34.341   5.667  1.00  0.00    -0.032 C 
HETATM   25  C1  UNL     1      24.184  33.652   4.565  1.00  0.00     0.007 C 
ENDBRANCH   1  24
TORSDOF 6
ENDMDL
MODEL 4
REMARK VINA RESULT: -9.486408889      1.386      4.010
REMARK  6 active torsions:
REMARK  status: ('A' for Active; 'I' for Inactive)
REMARK    1  A    between atoms: C2_2  and  C3_3 
REMARK    2  A    between atoms: C13_13  and  C14_14 
REMARK    3  A    between atoms: C15_15  and  C16_16 
REMARK    4  A    between atoms: C16_16  and  N1_17 
REMARK    5  A    between atoms: N1_17  and  C18_19 
REMARK    6  A    between atoms: C18_19  and  C19_20 
ROOT
HETATM    1  C3  UNL     1      24.722  33.882   7.071  1.00  0.00     0.007 C 
HETATM    2  C4  UNL     1      23.541  33.196   7.738  1.00  0.00     0.008 C 
HETATM    3  C5  UNL     1      22.413  34.149   7.930  1.00  0.00     0.001 C 
HETATM    4  C6  UNL     1      21.208  33.810   7.076  1.00  0.00     0.000 C 
HETATM    5  C7  UNL     1      20.613  32.473   7.464  1.00  0.00     0.000 C 
HETATM    6  C8  UNL     1      20.696  31.451   6.344  1.00  0.00     0.000 C 
HETATM    7  C9  UNL     1      20.932  30.041   6.895  1.00  0.00     0.000 C 
HETATM    8  C10 UNL     1      22.179  29.425   6.309  1.00  0.00     0.000 C 
HETATM    9  C11 UNL     1      23.215  29.174   7.350  1.00  0.00     0.001 C 
HETATM   10  C12 UNL     1      24.631  29.251   6.832  1.00  0.00     0.017 C 
HETATM   11  C13 UNL     1      25.584  29.737   7.919  1.00  0.00     0.065 C 
HETATM   12  C22 UNL     1      26.628  30.681   7.371  1.00  0.00     0.017 C 
HETATM   13  C23 UNL     1      26.364  32.120   7.831  1.00  0.00     0.002 C 
HETATM   14  C24 UNL     1      25.764  32.855   6.658  1.00  0.00     0.008 C 
ENDROOT
BRANCH  11  15
HETATM   15  C14 UNL     1      26.255  28.572   8.545  1.00  0.00    -0.096 C 
HETATM   16  C15 UNL     1      26.779  27.639   9.075  1.00  0.00    -0.061 C 
BRANCH  16  17
HETATM   17  C16 UNL     1      27.412  26.490   9.762  1.00  0.00     0.150 C 
BRANCH  17  18
HETATM   18  N1  UNL     1      28.765  26.424   9.395  1.00  0.00    -0.387 N 
HETATM   19  C17 UNL     1      29.576  25.407   9.941  1.00  0.00     0.149 C 
BRANCH  18  20
HETATM   20  C18 UNL     1      29.412  27.606   8.938  1.00  0.00     0.126 C 
BRANCH  20  21
HETATM   21  C19 UNL     1      30.195  27.340   7.666  1.00  0.00    -0.005 C 
HETATM   22  C20 UNL     1      29.251  27.490   6.466  1.00  0.00     0.011 C 
HETATM   23  C21 UNL     1      31.388  28.226   7.514  1.00  0.00     0.011 C 
ENDBRANCH  20  21
ENDBRANCH  18  20
ENDBRANCH  17  18
ENDBRANCH  16  17
ENDBRANCH  11  15
BRANCH   1  24
HETATM   24  C2  UNL     1      24.287  34.600   5.864  1.00  0.00    -0.032 C 
HETATM   25  C1  UNL     1      24.254  34.031   4.696  1.00  0.00     0.007 C 
ENDBRANCH   1  24
TORSDOF 6
ENDMDL
MODEL 5
REMARK VINA RESULT: -9.468787888      1.667      3.908
REMARK  6 active torsions:
REMARK  status: ('A' for Active; 'I' for Inactive)
REMARK    1  A    between atoms: C2_2  and  C3_3 
REMARK    2  A    between atoms: C13_13  and  C14_14 
REMARK    3  A    between atoms: C15_15  and  C16_16 
REMARK    4  A    between atoms: C16_16  and  N1_17 
REMARK    5  A    between atoms: N1_17  and  C18_19 
REMARK    6  A    between atoms: C18_19  and  C19_20 
ROOT
HETATM    1  C3  UNL     1      24.592  33.788   6.842  1.00  0.00     0.007 C 
HETATM    2  C4  UNL     1      23.574  32.958   7.607  1.00  0.00     0.008 C 
HETATM    3  C5  UNL     1      22.260  33.655   7.670  1.00  0.00     0.001 C 
HETATM    4  C6  UNL     1      21.181  32.942   6.879  1.00  0.00     0.000 C 
HETATM    5  C7  UNL     1      20.884  31.574   7.456  1.00  0.00     0.000 C 
HETATM    6  C8  UNL     1      21.219  30.450   6.492  1.00  0.00     0.000 C 
HETATM    7  C9  UNL     1      21.745  29.218   7.235  1.00  0.00     0.000 C 
HETATM    8  C10 UNL     1      23.111  28.818   6.734  1.00  0.00     0.000 C 
HETATM    9  C11 UNL     1      24.150  28.949   7.795  1.00  0.00     0.001 C 
HETATM   10  C12 UNL     1      25.527  29.266   7.262  1.00  0.00     0.017 C 
HETATM   11  C13 UNL     1      26.322  30.097   8.263  1.00  0.00     0.065 C 
HETATM   12  C22 UNL     1      27.146  31.162   7.580  1.00  0.00     0.017 C 
HETATM   13  C23 UNL     1      26.561  32.557   7.834  1.00  0.00     0.002 C 
HETATM   14  C24 UNL     1      25.844  32.970   6.573  1.00  0.00     0.008 C 
ENDROOT
BRANCH  11  15
HETATM   15  C14 UNL     1      27.217  29.208   9.043  1.00  0.00    -0.096 C 
HETATM   16  C15 UNL     1      27.936  28.512   9.695  1.00  0.00    -0.061 C 
BRANCH  16  17
HETATM   17  C16 UNL     1      28.828  27.674  10.529  1.00  0.00     0.150 C 
BRANCH  17  18
HETATM   18  N1  UNL     1      29.508  26.766   9.703  1.00  0.00    -0.387 N 
HETATM   19  C17 UNL     1      30.283  27.258   8.632  1.00  0.00     0.149 C 
BRANCH  18  20
HETATM   20  C18 UNL     1      29.026  25.430   9.606  1.00  0.00     0.126 C 
BRANCH  20  21
HETATM   21  C19 UNL     1      28.085  25.108  10.752  1.00  0.00    -0.005 C 
HETATM   22  C20 UNL     1      26.749  24.626  10.172  1.00  0.00     0.011 C 
HETATM   23  C21 UNL     1      28.642  24.099  11.703  1.00  0.00     0.011 C 
ENDBRANCH  20  21
ENDBRANCH  18  20
ENDBRANCH  17  18
ENDBRANCH  16  17
ENDBRANCH  11  15
BRANCH   1  24
HETATM   24  C2  UNL     1      24.040  34.217   5.549  1.00  0.00    -0.032 C 
HETATM   25  C1  UNL     1      24.086  33.460   4.493  1.00  0.00     0.007 C 
ENDBRANCH   1  24
TORSDOF 6
ENDMDL
