MODEL 1
REMARK VINA RESULT: -10.195706197      0.000      0.000
REMARK  4 active torsions:
REMARK  status: ('A' for Active; 'I' for Inactive)
REMARK    1  A    between atoms: C2_2  and  C3_3 
REMARK    2  A    between atoms: C3_3  and  C4_4 
REMARK    3  A    between atoms: C4_4  and  C5_5 
REMARK    4  A    between atoms: C6_6  and  O1_7 
ROOT
HETATM    1  C5  UNL     1      27.653  29.039   7.835  1.00  0.00     0.019 C 
HETATM    2  C6  UNL     1      26.978  27.744   7.699  1.00  0.00     0.122 C 
HETATM    3  C7  UNL     1      26.088  27.619   6.466  1.00  0.00     0.033 C 
HETATM    4  C8  UNL     1      25.150  28.772   6.301  1.00  0.00     0.012 C 
HETATM    5  C9  UNL     1      25.998  30.051   6.181  1.00  0.00    -0.036 C 
HETATM    6  C10 UNL     1      26.770  29.919   4.924  1.00  0.00     0.016 C 
HETATM    7  C11 UNL     1      26.732  30.173   7.454  1.00  0.00     0.001 C 
HETATM    8  C12 UNL     1      27.327  31.530   7.591  1.00  0.00     0.006 C 
HETATM    9  C13 UNL     1      26.184  32.503   7.811  1.00  0.00     0.006 C 
HETATM   10  C14 UNL     1      24.863  32.003   7.312  1.00  0.00    -0.001 C 
HETATM   11  C15 UNL     1      25.084  31.242   6.023  1.00  0.00    -0.001 C 
HETATM   12  C16 UNL     1      25.544  32.230   4.988  1.00  0.00     0.006 C 
HETATM   13  C17 UNL     1      24.425  33.204   4.685  1.00  0.00     0.006 C 
HETATM   14  C18 UNL     1      23.331  33.177   5.707  1.00  0.00    -0.006 C 
HETATM   15  C19 UNL     1      22.566  34.497   5.536  1.00  0.00     0.005 C 
HETATM   16  C20 UNL     1      21.401  34.516   6.473  1.00  0.00     0.000 C 
HETATM   17  C21 UNL     1      21.404  33.328   7.403  1.00  0.00     0.001 C 
HETATM   18  C22 UNL     1      22.708  33.076   8.055  1.00  0.00     0.010 C 
HETATM   19  C23 UNL     1      23.896  33.135   7.083  1.00  0.00    -0.036 C 
HETATM   20  C24 UNL     1      24.550  34.492   7.384  1.00  0.00     0.016 C 
ENDROOT
BRANCH   1  21
HETATM   21  C4  UNL     1      29.052  29.225   7.435  1.00  0.00     0.011 C 
BRANCH  21  22
HETATM   22  C3  UNL     1      29.792  28.133   6.747  1.00  0.00     0.027 C 
BRANCH  22  23
HETATM   23  C2  UNL     1      31.029  27.648   7.337  1.00  0.00    -0.037 C 
HETATM   24  C1  UNL     1      32.109  28.449   7.415  1.00  0.00     0.007 C 
ENDBRANCH  22  23
ENDBRANCH  21  22
ENDBRANCH   1  21
BRANCH   2  25
HETATM   25  O1  UNL     1      26.051  27.605   8.777  1.00  0.00    -0.395 OA
ATOM     26  H1  UNL     1      25.174  27.724   8.434  1.00  0.00     0.210 HD
ENDBRANCH   2  25
TORSDOF 4
ENDMDL
MODEL 2
REMARK VINA RESULT: -10.085166178      2.291      7.061
REMARK  4 active torsions:
REMARK  status: ('A' for Active; 'I' for Inactive)
REMARK    1  A    between atoms: C2_2  and  C3_3 
REMARK    2  A    between atoms: C3_3  and  C4_4 
REMARK    3  A    between atoms: C4_4  and  C5_5 
REMARK    4  A    between atoms: C6_6  and  O1_7 
ROOT
HETATM    1  C5  UNL     1      23.456  31.614   7.133  1.00  0.00     0.019 C 
HETATM    2  C6  UNL     1      23.917  32.987   7.364  1.00  0.00     0.122 C 
HETATM    3  C7  UNL     1      25.322  33.279   6.847  1.00  0.00     0.033 C 
HETATM    4  C8  UNL     1      26.328  32.259   7.275  1.00  0.00     0.012 C 
HETATM    5  C9  UNL     1      25.868  30.893   6.735  1.00  0.00    -0.036 C 
HETATM    6  C10 UNL     1      25.930  30.990   5.259  1.00  0.00     0.016 C 
HETATM    7  C11 UNL     1      24.568  30.621   7.374  1.00  0.00     0.001 C 
HETATM    8  C12 UNL     1      24.178  29.197   7.191  1.00  0.00     0.006 C 
HETATM    9  C13 UNL     1      25.112  28.361   8.047  1.00  0.00     0.006 C 
HETATM   10  C14 UNL     1      26.407  29.043   8.367  1.00  0.00    -0.001 C 
HETATM   11  C15 UNL     1      26.856  29.832   7.157  1.00  0.00    -0.001 C 
HETATM   12  C16 UNL     1      27.191  28.846   6.073  1.00  0.00     0.006 C 
HETATM   13  C17 UNL     1      28.399  28.032   6.485  1.00  0.00     0.006 C 
HETATM   14  C18 UNL     1      28.712  28.144   7.944  1.00  0.00    -0.006 C 
HETATM   15  C19 UNL     1      29.602  26.938   8.275  1.00  0.00     0.005 C 
HETATM   16  C20 UNL     1      30.026  27.016   9.706  1.00  0.00     0.000 C 
HETATM   17  C21 UNL     1      29.348  28.149  10.436  1.00  0.00     0.001 C 
HETATM   18  C22 UNL     1      27.883  28.207  10.229  1.00  0.00     0.010 C 
HETATM   19  C23 UNL     1      27.470  28.050   8.759  1.00  0.00    -0.036 C 
HETATM   20  C24 UNL     1      26.940  26.610   8.677  1.00  0.00     0.016 C 
ENDROOT
BRANCH   1  21
HETATM   21  C4  UNL     1      22.564  31.278   6.019  1.00  0.00     0.011 C 
BRANCH  21  22
HETATM   22  C3  UNL     1      21.100  31.524   6.123  1.00  0.00     0.027 C 
BRANCH  22  23
HETATM   23  C2  UNL     1      20.184  30.491   5.665  1.00  0.00    -0.037 C 
HETATM   24  C1  UNL     1      20.574  29.202   5.620  1.00  0.00     0.007 C 
ENDBRANCH  22  23
ENDBRANCH  21  22
ENDBRANCH   1  21
BRANCH   2  25
HETATM   25  O1  UNL     1      24.047  33.187   8.773  1.00  0.00    -0.395 OA
ATOM     26  H1  UNL     1      24.951  33.412   8.960  1.00  0.00     0.210 HD
ENDBRANCH   2  25
TORSDOF 4
ENDMDL
MODEL 3
REMARK VINA RESULT: -10.081047603      1.738      3.046
REMARK  4 active torsions:
REMARK  status: ('A' for Active; 'I' for Inactive)
REMARK    1  A    between atoms: C2_2  and  C3_3 
REMARK    2  A    between atoms: C3_3  and  C4_4 
REMARK    3  A    between atoms: C4_4  and  C5_5 
REMARK    4  A    between atoms: C6_6  and  O1_7 
ROOT
HETATM    1  C5  UNL     1      26.557  27.540   7.775  1.00  0.00     0.019 C 
HETATM    2  C6  UNL     1      27.813  27.433   7.027  1.00  0.00     0.122 C 
HETATM    3  C7  UNL     1      28.694  28.678   7.086  1.00  0.00     0.033 C 
HETATM    4  C8  UNL     1      27.950  29.937   6.777  1.00  0.00     0.012 C 
HETATM    5  C9  UNL     1      26.815  30.075   7.808  1.00  0.00    -0.036 C 
HETATM    6  C10 UNL     1      27.471  30.255   9.123  1.00  0.00     0.016 C 
HETATM    7  C11 UNL     1      25.939  28.907   7.606  1.00  0.00     0.001 C 
HETATM    8  C12 UNL     1      24.642  29.094   8.310  1.00  0.00     0.006 C 
HETATM    9  C13 UNL     1      23.877  30.173   7.566  1.00  0.00     0.006 C 
HETATM   10  C14 UNL     1      24.751  31.082   6.758  1.00  0.00    -0.001 C 
HETATM   11  C15 UNL     1      26.033  31.334   7.521  1.00  0.00    -0.001 C 
HETATM   12  C16 UNL     1      25.678  32.123   8.750  1.00  0.00     0.006 C 
HETATM   13  C17 UNL     1      25.182  33.496   8.345  1.00  0.00     0.006 C 
HETATM   14  C18 UNL     1      24.831  33.587   6.893  1.00  0.00    -0.006 C 
HETATM   15  C19 UNL     1      23.924  34.819   6.758  1.00  0.00     0.005 C 
HETATM   16  C20 UNL     1      23.588  35.028   5.317  1.00  0.00     0.000 C 
HETATM   17  C21 UNL     1      24.098  33.905   4.448  1.00  0.00     0.001 C 
HETATM   18  C22 UNL     1      23.777  32.554   4.960  1.00  0.00     0.010 C 
HETATM   19  C23 UNL     1      24.063  32.388   6.460  1.00  0.00    -0.036 C 
HETATM   20  C24 UNL     1      22.670  32.440   7.107  1.00  0.00     0.016 C 
ENDROOT
BRANCH   1  21
HETATM   21  C4  UNL     1      26.405  26.960   9.114  1.00  0.00     0.011 C 
BRANCH  21  22
HETATM   22  C3  UNL     1      27.561  26.313   9.792  1.00  0.00     0.027 C 
BRANCH  22  23
HETATM   23  C2  UNL     1      28.384  27.113  10.685  1.00  0.00    -0.037 C 
HETATM   24  C1  UNL     1      29.666  27.386  10.374  1.00  0.00     0.007 C 
ENDBRANCH  22  23
ENDBRANCH  21  22
ENDBRANCH   1  21
BRANCH   2  25
HETATM   25  O1  UNL     1      27.501  27.329   5.637  1.00  0.00    -0.395 OA
ATOM     26  H1  UNL     1      28.093  26.698   5.245  1.00  0.00     0.210 HD
ENDBRANCH   2  25
TORSDOF 4
ENDMDL
MODEL 4
REMARK VINA RESULT: -10.063750115      2.034      6.960
REMARK  4 active torsions:
REMARK  status: ('A' for Active; 'I' for Inactive)
REMARK    1  A    between atoms: C2_2  and  C3_3 
REMARK    2  A    between atoms: C3_3  and  C4_4 
REMARK    3  A    between atoms: C4_4  and  C5_5 
REMARK    4  A    between atoms: C6_6  and  O1_7 
ROOT
HETATM    1  C5  UNL     1      23.444  31.608   7.226  1.00  0.00     0.019 C 
HETATM    2  C6  UNL     1      23.921  32.979   7.432  1.00  0.00     0.122 C 
HETATM    3  C7  UNL     1      25.313  33.257   6.873  1.00  0.00     0.033 C 
HETATM    4  C8  UNL     1      26.324  32.233   7.282  1.00  0.00     0.012 C 
HETATM    5  C9  UNL     1      25.838  30.866   6.766  1.00  0.00    -0.036 C 
HETATM    6  C10 UNL     1      25.859  30.950   5.288  1.00  0.00     0.016 C 
HETATM    7  C11 UNL     1      24.555  30.609   7.444  1.00  0.00     0.001 C 
HETATM    8  C12 UNL     1      24.150  29.186   7.284  1.00  0.00     0.006 C 
HETATM    9  C13 UNL     1      25.101  28.351   8.120  1.00  0.00     0.006 C 
HETATM   10  C14 UNL     1      26.410  29.025   8.398  1.00  0.00    -0.001 C 
HETATM   11  C15 UNL     1      26.830  29.801   7.170  1.00  0.00    -0.001 C 
HETATM   12  C16 UNL     1      27.127  28.804   6.085  1.00  0.00     0.006 C 
HETATM   13  C17 UNL     1      28.341  27.984   6.469  1.00  0.00     0.006 C 
HETATM   14  C18 UNL     1      28.696  28.106   7.918  1.00  0.00    -0.006 C 
HETATM   15  C19 UNL     1      29.586  26.896   8.235  1.00  0.00     0.005 C 
HETATM   16  C20 UNL     1      30.051  26.982   9.653  1.00  0.00     0.000 C 
HETATM   17  C21 UNL     1      29.401  28.127  10.391  1.00  0.00     0.001 C 
HETATM   18  C22 UNL     1      27.932  28.194  10.226  1.00  0.00     0.010 C 
HETATM   19  C23 UNL     1      27.476  28.028   8.768  1.00  0.00    -0.036 C 
HETATM   20  C24 UNL     1      26.934  26.591   8.714  1.00  0.00     0.016 C 
ENDROOT
BRANCH   1  21
HETATM   21  C4  UNL     1      22.519  31.269   6.140  1.00  0.00     0.011 C 
BRANCH  21  22
HETATM   22  C3  UNL     1      21.754  32.336   5.439  1.00  0.00     0.027 C 
BRANCH  22  23
HETATM   23  C2  UNL     1      22.074  32.628   4.052  1.00  0.00    -0.037 C 
HETATM   24  C1  UNL     1      23.259  33.180   3.725  1.00  0.00     0.007 C 
ENDBRANCH  22  23
ENDBRANCH  21  22
ENDBRANCH   1  21
BRANCH   2  25
HETATM   25  O1  UNL     1      24.093  33.190   8.835  1.00  0.00    -0.395 OA
ATOM     26  H1  UNL     1      24.994  33.445   8.991  1.00  0.00     0.210 HD
ENDBRANCH   2  25
TORSDOF 4
ENDMDL
MODEL 5
REMARK VINA RESULT: -10.012480302      0.899      1.038
REMARK  4 active torsions:
REMARK  status: ('A' for Active; 'I' for Inactive)
REMARK    1  A    between atoms: C2_2  and  C3_3 
REMARK    2  A    between atoms: C3_3  and  C4_4 
REMARK    3  A    between atoms: C4_4  and  C5_5 
REMARK    4  A    between atoms: C6_6  and  O1_7 
ROOT
HETATM    1  C5  UNL     1      27.503  28.720   8.120  1.00  0.00     0.019 C 
HETATM    2  C6  UNL     1      26.779  27.463   7.907  1.00  0.00     0.122 C 
HETATM    3  C7  UNL     1      25.974  27.406   6.612  1.00  0.00     0.033 C 
HETATM    4  C8  UNL     1      25.106  28.606   6.408  1.00  0.00     0.012 C 
HETATM    5  C9  UNL     1      26.020  29.845   6.378  1.00  0.00    -0.036 C 
HETATM    6  C10 UNL     1      26.873  29.700   5.176  1.00  0.00     0.016 C 
HETATM    7  C11 UNL     1      26.666  29.905   7.702  1.00  0.00     0.001 C 
HETATM    8  C12 UNL     1      27.314  31.228   7.912  1.00  0.00     0.006 C 
HETATM    9  C13 UNL     1      26.206  32.252   8.073  1.00  0.00     0.006 C 
HETATM   10  C14 UNL     1      24.902  31.827   7.471  1.00  0.00    -0.001 C 
HETATM   11  C15 UNL     1      25.177  31.082   6.184  1.00  0.00    -0.001 C 
HETATM   12  C16 UNL     1      25.756  32.066   5.207  1.00  0.00     0.006 C 
HETATM   13  C17 UNL     1      24.710  33.100   4.849  1.00  0.00     0.006 C 
HETATM   14  C18 UNL     1      23.546  33.107   5.790  1.00  0.00    -0.006 C 
HETATM   15  C19 UNL     1      22.858  34.465   5.597  1.00  0.00     0.005 C 
HETATM   16  C20 UNL     1      21.632  34.524   6.450  1.00  0.00     0.000 C 
HETATM   17  C21 UNL     1      21.512  33.318   7.349  1.00  0.00     0.001 C 
HETATM   18  C22 UNL     1      22.753  32.990   8.086  1.00  0.00     0.010 C 
HETATM   19  C23 UNL     1      24.008  33.009   7.202  1.00  0.00    -0.036 C 
HETATM   20  C24 UNL     1      24.703  34.327   7.579  1.00  0.00     0.016 C 
ENDROOT
BRANCH   1  21
HETATM   21  C4  UNL     1      28.934  28.845   7.823  1.00  0.00     0.011 C 
BRANCH  21  22
HETATM   22  C3  UNL     1      29.856  27.700   8.056  1.00  0.00     0.027 C 
BRANCH  22  23
HETATM   23  C2  UNL     1      30.158  27.314   9.425  1.00  0.00    -0.037 C 
HETATM   24  C1  UNL     1      29.687  26.157   9.929  1.00  0.00     0.007 C 
ENDBRANCH  22  23
ENDBRANCH  21  22
ENDBRANCH   1  21
BRANCH   2  25
HETATM   25  O1  UNL     1      25.772  27.348   8.914  1.00  0.00    -0.395 OA
ATOM     26  H1  UNL     1      24.957  27.686   8.562  1.00  0.00     0.210 HD
ENDBRANCH   2  25
TORSDOF 4
ENDMDL
