MODEL 1
REMARK VINA RESULT: -9.746928487      0.000      0.000
REMARK  5 active torsions:
REMARK  status: ('A' for Active; 'I' for Inactive)
REMARK    1  A    between atoms: C2_2  and  C3_3 
REMARK    2  A    between atoms: C3_3  and  C4_4 
REMARK    3  A    between atoms: C4_4  and  C5_5 
REMARK    4  A    between atoms: C5_5  and  C7_7 
REMARK    5  A    between atoms: C20_20  and  O1_21 
ROOT
HETATM    1  C7  UNL     1      25.264  33.207   5.775  1.00  0.00    -0.006 C 
HETATM    2  C8  UNL     1      24.530  32.311   4.788  1.00  0.00     0.006 C 
HETATM    3  C9  UNL     1      24.246  31.007   5.523  1.00  0.00     0.006 C 
HETATM    4  C10 UNL     1      25.429  30.926   6.419  1.00  0.00    -0.006 C 
HETATM    5  C11 UNL     1      25.479  32.361   6.974  1.00  0.00    -0.006 C 
HETATM    6  C12 UNL     1      26.843  32.458   7.601  1.00  0.00     0.006 C 
HETATM    7  C13 UNL     1      26.977  31.481   8.711  1.00  0.00     0.006 C 
HETATM    8  C14 UNL     1      26.543  30.081   8.449  1.00  0.00    -0.002 C 
HETATM    9  C15 UNL     1      25.276  30.054   7.612  1.00  0.00    -0.005 C 
HETATM   10  C16 UNL     1      24.736  28.700   7.357  1.00  0.00     0.006 C 
HETATM   11  C17 UNL     1      25.709  27.578   7.550  1.00  0.00     0.006 C 
HETATM   12  C18 UNL     1      27.050  28.047   7.101  1.00  0.00    -0.004 C 
HETATM   13  C19 UNL     1      28.058  26.930   6.927  1.00  0.00     0.037 C 
HETATM   14  C20 UNL     1      29.179  27.566   6.093  1.00  0.00     0.118 C 
HETATM   15  C21 UNL     1      29.779  28.647   6.933  1.00  0.00     0.032 C 
HETATM   16  C22 UNL     1      28.812  29.683   7.411  1.00  0.00     0.012 C 
HETATM   17  C23 UNL     1      27.593  29.114   8.060  1.00  0.00    -0.036 C 
HETATM   18  C24 UNL     1      28.090  28.313   9.277  1.00  0.00     0.016 C 
ENDROOT
BRANCH   1  19
HETATM   19  C5  UNL     1      24.401  34.392   6.056  1.00  0.00    -0.014 C 
HETATM   20  C6  UNL     1      23.350  34.678   5.037  1.00  0.00     0.010 C 
BRANCH  19  21
HETATM   21  C4  UNL     1      23.791  34.351   7.438  1.00  0.00     0.004 C 
BRANCH  21  22
HETATM   22  C3  UNL     1      22.297  34.221   7.331  1.00  0.00     0.000 C 
BRANCH  22  23
HETATM   23  C2  UNL     1      21.906  32.792   7.724  1.00  0.00    -0.005 C 
HETATM   24  C1  UNL     1      20.960  32.260   6.683  1.00  0.00     0.005 C 
ENDBRANCH  22  23
ENDBRANCH  21  22
ENDBRANCH  19  21
ENDBRANCH   1  19
BRANCH  14  25
HETATM   25  O1  UNL     1      30.134  26.664   5.727  1.00  0.00    -0.396 OA
ATOM     26  H1  UNL     1      30.521  26.221   6.473  1.00  0.00     0.210 HD
ENDBRANCH  14  25
TORSDOF 5
ENDMDL
MODEL 2
REMARK VINA RESULT: -9.544509876      2.637      6.712
REMARK  5 active torsions:
REMARK  status: ('A' for Active; 'I' for Inactive)
REMARK    1  A    between atoms: C2_2  and  C3_3 
REMARK    2  A    between atoms: C3_3  and  C4_4 
REMARK    3  A    between atoms: C4_4  and  C5_5 
REMARK    4  A    between atoms: C5_5  and  C7_7 
REMARK    5  A    between atoms: C20_20  and  O1_21 
ROOT
HETATM    1  C7  UNL     1      27.562  28.496   7.545  1.00  0.00    -0.006 C 
HETATM    2  C8  UNL     1      26.849  27.772   6.413  1.00  0.00     0.006 C 
HETATM    3  C9  UNL     1      26.491  28.836   5.382  1.00  0.00     0.006 C 
HETATM    4  C10 UNL     1      26.257  30.011   6.261  1.00  0.00    -0.006 C 
HETATM    5  C11 UNL     1      27.482  29.934   7.191  1.00  0.00    -0.006 C 
HETATM    6  C12 UNL     1      27.134  30.863   8.322  1.00  0.00     0.006 C 
HETATM    7  C13 UNL     1      26.965  32.251   7.824  1.00  0.00     0.006 C 
HETATM    8  C14 UNL     1      26.118  32.447   6.615  1.00  0.00    -0.002 C 
HETATM    9  C15 UNL     1      26.353  31.340   5.603  1.00  0.00    -0.005 C 
HETATM   10  C16 UNL     1      25.597  31.490   4.339  1.00  0.00     0.006 C 
HETATM   11  C17 UNL     1      24.416  32.407   4.408  1.00  0.00     0.006 C 
HETATM   12  C18 UNL     1      23.788  32.253   5.750  1.00  0.00    -0.004 C 
HETATM   13  C19 UNL     1      22.405  32.862   5.848  1.00  0.00     0.037 C 
HETATM   14  C20 UNL     1      21.812  32.240   7.121  1.00  0.00     0.118 C 
HETATM   15  C21 UNL     1      22.648  32.721   8.263  1.00  0.00     0.032 C 
HETATM   16  C22 UNL     1      24.108  32.420   8.147  1.00  0.00     0.012 C 
HETATM   17  C23 UNL     1      24.705  32.825   6.839  1.00  0.00    -0.036 C 
HETATM   18  C24 UNL     1      24.513  34.348   6.734  1.00  0.00     0.016 C 
ENDROOT
BRANCH   1  19
HETATM   19  C5  UNL     1      28.967  27.997   7.603  1.00  0.00    -0.014 C 
HETATM   20  C6  UNL     1      29.967  28.800   6.840  1.00  0.00     0.010 C 
BRANCH  19  21
HETATM   21  C4  UNL     1      29.448  27.774   9.018  1.00  0.00     0.004 C 
BRANCH  21  22
HETATM   22  C3  UNL     1      28.267  27.631   9.939  1.00  0.00     0.000 C 
BRANCH  22  23
HETATM   23  C2  UNL     1      28.162  26.164  10.368  1.00  0.00    -0.005 C 
HETATM   24  C1  UNL     1      26.823  25.640   9.928  1.00  0.00     0.005 C 
ENDBRANCH  22  23
ENDBRANCH  21  22
ENDBRANCH  19  21
ENDBRANCH   1  19
BRANCH  14  25
HETATM   25  O1  UNL     1      20.507  32.582   7.310  1.00  0.00    -0.396 OA
ATOM     26  H1  UNL     1      20.402  33.278   7.947  1.00  0.00     0.210 HD
ENDBRANCH  14  25
TORSDOF 5
ENDMDL
MODEL 3
REMARK VINA RESULT: -9.066482192      2.030      3.749
REMARK  5 active torsions:
REMARK  status: ('A' for Active; 'I' for Inactive)
REMARK    1  A    between atoms: C2_2  and  C3_3 
REMARK    2  A    between atoms: C3_3  and  C4_4 
REMARK    3  A    between atoms: C4_4  and  C5_5 
REMARK    4  A    between atoms: C5_5  and  C7_7 
REMARK    5  A    between atoms: C20_20  and  O1_21 
ROOT
HETATM    1  C7  UNL     1      22.177  31.387   7.973  1.00  0.00    -0.006 C 
HETATM    2  C8  UNL     1      23.079  32.611   8.027  1.00  0.00     0.006 C 
HETATM    3  C9  UNL     1      24.251  32.321   7.098  1.00  0.00     0.006 C 
HETATM    4  C10 UNL     1      24.378  30.849   7.257  1.00  0.00    -0.006 C 
HETATM    5  C11 UNL     1      22.907  30.410   7.130  1.00  0.00    -0.006 C 
HETATM    6  C12 UNL     1      22.910  28.992   7.633  1.00  0.00     0.006 C 
HETATM    7  C13 UNL     1      23.769  28.136   6.776  1.00  0.00     0.006 C 
HETATM    8  C14 UNL     1      25.126  28.647   6.438  1.00  0.00    -0.002 C 
HETATM    9  C15 UNL     1      25.089  30.140   6.162  1.00  0.00    -0.005 C 
HETATM   10  C16 UNL     1      26.388  30.722   5.754  1.00  0.00     0.006 C 
HETATM   11  C17 UNL     1      27.592  29.902   6.100  1.00  0.00     0.006 C 
HETATM   12  C18 UNL     1      27.341  29.244   7.412  1.00  0.00    -0.004 C 
HETATM   13  C19 UNL     1      28.584  28.654   8.044  1.00  0.00     0.037 C 
HETATM   14  C20 UNL     1      28.184  28.419   9.508  1.00  0.00     0.118 C 
HETATM   15  C21 UNL     1      27.099  27.391   9.497  1.00  0.00     0.032 C 
HETATM   16  C22 UNL     1      25.907  27.741   8.664  1.00  0.00     0.012 C 
HETATM   17  C23 UNL     1      26.250  28.174   7.276  1.00  0.00    -0.036 C 
HETATM   18  C24 UNL     1      26.968  26.981   6.620  1.00  0.00     0.016 C 
ENDROOT
BRANCH   1  19
HETATM   19  C5  UNL     1      20.872  31.798   7.376  1.00  0.00    -0.014 C 
HETATM   20  C6  UNL     1      20.837  31.853   5.885  1.00  0.00     0.010 C 
BRANCH  19  21
HETATM   21  C4  UNL     1      19.712  30.981   7.895  1.00  0.00     0.004 C 
BRANCH  21  22
HETATM   22  C3  UNL     1      18.945  30.396   6.741  1.00  0.00     0.000 C 
BRANCH  22  23
HETATM   23  C2  UNL     1      18.505  28.978   7.121  1.00  0.00    -0.005 C 
HETATM   24  C1  UNL     1      19.355  28.515   8.272  1.00  0.00     0.005 C 
ENDBRANCH  22  23
ENDBRANCH  21  22
ENDBRANCH  19  21
ENDBRANCH   1  19
BRANCH  14  25
HETATM   25  O1  UNL     1      29.230  27.998  10.274  1.00  0.00    -0.396 OA
ATOM     26  H1  UNL     1      28.973  27.810  11.169  1.00  0.00     0.210 HD
ENDBRANCH  14  25
TORSDOF 5
ENDMDL
MODEL 4
REMARK VINA RESULT: -9.054677105      1.636      3.207
REMARK  5 active torsions:
REMARK  status: ('A' for Active; 'I' for Inactive)
REMARK    1  A    between atoms: C2_2  and  C3_3 
REMARK    2  A    between atoms: C3_3  and  C4_4 
REMARK    3  A    between atoms: C4_4  and  C5_5 
REMARK    4  A    between atoms: C5_5  and  C7_7 
REMARK    5  A    between atoms: C20_20  and  O1_21 
ROOT
HETATM    1  C7  UNL     1      23.724  32.493   8.394  1.00  0.00    -0.006 C 
HETATM    2  C8  UNL     1      25.002  33.265   8.687  1.00  0.00     0.006 C 
HETATM    3  C9  UNL     1      26.078  32.672   7.785  1.00  0.00     0.006 C 
HETATM    4  C10 UNL     1      25.635  31.256   7.714  1.00  0.00    -0.006 C 
HETATM    5  C11 UNL     1      24.129  31.428   7.445  1.00  0.00    -0.006 C 
HETATM    6  C12 UNL     1      23.556  30.064   7.716  1.00  0.00     0.006 C 
HETATM    7  C13 UNL     1      24.125  29.063   6.779  1.00  0.00     0.006 C 
HETATM    8  C14 UNL     1      25.602  29.059   6.595  1.00  0.00    -0.002 C 
HETATM    9  C15 UNL     1      26.148  30.475   6.558  1.00  0.00    -0.005 C 
HETATM   10  C16 UNL     1      27.606  30.567   6.314  1.00  0.00     0.006 C 
HETATM   11  C17 UNL     1      28.378  29.314   6.586  1.00  0.00     0.006 C 
HETATM   12  C18 UNL     1      27.764  28.638   7.763  1.00  0.00    -0.004 C 
HETATM   13  C19 UNL     1      28.628  27.545   8.356  1.00  0.00     0.037 C 
HETATM   14  C20 UNL     1      28.015  27.294   9.741  1.00  0.00     0.118 C 
HETATM   15  C21 UNL     1      26.635  26.767   9.512  1.00  0.00     0.032 C 
HETATM   16  C22 UNL     1      25.753  27.647   8.686  1.00  0.00     0.012 C 
HETATM   17  C23 UNL     1      26.377  28.091   7.403  1.00  0.00    -0.036 C 
HETATM   18  C24 UNL     1      26.671  26.809   6.604  1.00  0.00     0.016 C 
ENDROOT
BRANCH   1  19
HETATM   19  C5  UNL     1      22.735  33.442   7.804  1.00  0.00    -0.014 C 
HETATM   20  C6  UNL     1      22.931  34.878   8.156  1.00  0.00     0.010 C 
BRANCH  19  21
HETATM   21  C4  UNL     1      22.602  33.286   6.306  1.00  0.00     0.004 C 
BRANCH  21  22
HETATM   22  C3  UNL     1      23.193  34.485   5.616  1.00  0.00     0.000 C 
BRANCH  22  23
HETATM   23  C2  UNL     1      24.388  34.020   4.777  1.00  0.00    -0.005 C 
HETATM   24  C1  UNL     1      24.076  32.655   4.230  1.00  0.00     0.005 C 
ENDBRANCH  22  23
ENDBRANCH  21  22
ENDBRANCH  19  21
ENDBRANCH   1  19
BRANCH  14  25
HETATM   25  O1  UNL     1      28.744  26.413  10.483  1.00  0.00    -0.396 OA
ATOM     26  H1  UNL     1      28.229  25.670  10.775  1.00  0.00     0.210 HD
ENDBRANCH  14  25
TORSDOF 5
ENDMDL
MODEL 5
REMARK VINA RESULT: -9.036936426      2.555      6.947
REMARK  5 active torsions:
REMARK  status: ('A' for Active; 'I' for Inactive)
REMARK    1  A    between atoms: C2_2  and  C3_3 
REMARK    2  A    between atoms: C3_3  and  C4_4 
REMARK    3  A    between atoms: C4_4  and  C5_5 
REMARK    4  A    between atoms: C5_5  and  C7_7 
REMARK    5  A    between atoms: C20_20  and  O1_21 
ROOT
HETATM    1  C7  UNL     1      27.098  27.719   8.388  1.00  0.00    -0.006 C 
HETATM    2  C8  UNL     1      26.633  26.973   7.145  1.00  0.00     0.006 C 
HETATM    3  C9  UNL     1      26.673  27.979   6.001  1.00  0.00     0.006 C 
HETATM    4  C10 UNL     1      26.345  29.236   6.722  1.00  0.00    -0.006 C 
HETATM    5  C11 UNL     1      27.268  29.125   7.949  1.00  0.00    -0.006 C 
HETATM    6  C12 UNL     1      26.739  30.169   8.894  1.00  0.00     0.006 C 
HETATM    7  C13 UNL     1      26.856  31.522   8.295  1.00  0.00     0.006 C 
HETATM    8  C14 UNL     1      26.381  31.696   6.895  1.00  0.00    -0.002 C 
HETATM    9  C15 UNL     1      26.752  30.495   6.044  1.00  0.00    -0.005 C 
HETATM   10  C16 UNL     1      26.374  30.610   4.617  1.00  0.00     0.006 C 
HETATM   11  C17 UNL     1      25.321  31.632   4.318  1.00  0.00     0.006 C 
HETATM   12  C18 UNL     1      24.351  31.642   5.448  1.00  0.00    -0.004 C 
HETATM   13  C19 UNL     1      23.065  32.378   5.139  1.00  0.00     0.037 C 
HETATM   14  C20 UNL     1      22.097  31.916   6.238  1.00  0.00     0.118 C 
HETATM   15  C21 UNL     1      22.651  32.410   7.535  1.00  0.00     0.032 C 
HETATM   16  C22 UNL     1      24.050  31.971   7.831  1.00  0.00     0.012 C 
HETATM   17  C23 UNL     1      25.007  32.215   6.712  1.00  0.00    -0.036 C 
HETATM   18  C24 UNL     1      25.015  33.736   6.478  1.00  0.00     0.016 C 
ENDROOT
BRANCH   1  19
HETATM   19  C5  UNL     1      28.378  27.102   8.846  1.00  0.00    -0.014 C 
HETATM   20  C6  UNL     1      28.257  25.744   9.452  1.00  0.00     0.010 C 
BRANCH  19  21
HETATM   21  C4  UNL     1      29.440  27.102   7.772  1.00  0.00     0.004 C 
BRANCH  21  22
HETATM   22  C3  UNL     1      30.733  27.625   8.335  1.00  0.00     0.000 C 
BRANCH  22  23
HETATM   23  C2  UNL     1      31.438  28.444   7.249  1.00  0.00    -0.005 C 
HETATM   24  C1  UNL     1      30.392  29.197   6.475  1.00  0.00     0.005 C 
ENDBRANCH  22  23
ENDBRANCH  21  22
ENDBRANCH  19  21
ENDBRANCH   1  19
BRANCH  14  25
HETATM   25  O1  UNL     1      20.832  32.388   6.051  1.00  0.00    -0.396 OA
ATOM     26  H1  UNL     1      20.176  31.850   6.480  1.00  0.00     0.210 HD
ENDBRANCH  14  25
TORSDOF 5
ENDMDL
