MODEL 1
REMARK VINA RESULT: -8.556829732      0.000      0.000
REMARK  5 active torsions:
REMARK  status: ('A' for Active; 'I' for Inactive)
REMARK    1  A    between atoms: C2_2  and  C3_4 
REMARK    2  A    between atoms: C6_11  and  N3_12 
REMARK       I    between atoms: N3_12  and  C7_14 
REMARK    3  A    between atoms: N5_20  and  C11_21 
REMARK    4  A    between atoms: C11_21  and  O3_22 
REMARK    5  A    between atoms: C11_21  and  N6_24 
ROOT
HETATM    1  N6  UNL     1      19.887 -15.060  23.947  1.00  0.00    -0.317 N 
HETATM    2  C12 UNL     1      19.102 -15.585  25.166  1.00  0.00     0.260 C 
HETATM    3  N7  UNL     1      20.121 -16.515  25.662  1.00  0.00    -0.324 N 
HETATM    4  C13 UNL     1      21.325 -16.054  25.360  1.00  0.00     0.043 A 
HETATM    5  C14 UNL     1      22.280 -16.904  25.808  1.00  0.00     0.053 A 
HETATM    6  C15 UNL     1      21.636 -17.955  26.425  1.00  0.00     0.080 A 
HETATM    7  C16 UNL     1      22.305 -19.067  27.032  1.00  0.00     0.102 C 
HETATM    8  N8  UNL     1      22.853 -19.965  27.522  1.00  0.00    -0.191 NA
HETATM    9  C17 UNL     1      20.300 -17.683  26.317  1.00  0.00     0.104 A 
HETATM   10 BR1  UNL     1      18.915 -18.798  26.996  1.00  0.00    -0.029 Br
HETATM   11  C18 UNL     1      21.073 -14.739  24.629  1.00  0.00     0.073 C 
HETATM   12  C19 UNL     1      22.313 -14.306  23.978  1.00  0.00     0.045 C 
HETATM   13  C20 UNL     1      20.787 -13.680  25.740  1.00  0.00     0.045 C 
ENDROOT
BRANCH   1  14
HETATM   14  C11 UNL     1      19.217 -15.043  22.756  1.00  0.00     0.221 C 
BRANCH  14  15
HETATM   15  N5  UNL     1      17.953 -14.920  22.193  1.00  0.00    -0.317 N 
HETATM   16  C3  UNL     1      17.459 -13.546  21.861  1.00  0.00     0.197 C 
HETATM   17  C4  UNL     1      16.015 -13.635  21.725  1.00  0.00     0.044 A 
HETATM   18  C5  UNL     1      15.637 -14.946  21.698  1.00  0.00     0.066 A 
HETATM   19  C6  UNL     1      14.863 -12.859  21.601  1.00  0.00     0.134 A 
HETATM   20  N1  UNL     1      14.306 -14.971  21.562  1.00  0.00    -0.300 N 
HETATM   21  C8  UNL     1      16.906 -15.787  21.851  1.00  0.00     0.074 C 
HETATM   22  N2  UNL     1      13.850 -13.724  21.504  1.00  0.00    -0.285 N 
ATOM     23  H1  UNL     1      13.733 -15.814  21.510  1.00  0.00     0.186 HD
ATOM     24  H2  UNL     1      12.869 -13.465  21.401  1.00  0.00     0.188 HD
HETATM   25  C9  UNL     1      17.090 -16.577  20.572  1.00  0.00     0.045 C 
HETATM   26  C10 UNL     1      16.486 -16.785  22.933  1.00  0.00     0.045 C 
BRANCH  16  27
HETATM   27  C2  UNL     1      18.039 -13.110  20.569  1.00  0.00     0.150 C 
HETATM   28  C1  UNL     1      17.302 -13.221  19.287  1.00  0.00     0.093 C 
HETATM   29  O1  UNL     1      19.161 -12.640  20.552  1.00  0.00    -0.296 OA
ENDBRANCH  16  27
BRANCH  19  30
HETATM   30  N3  UNL     1      14.810 -11.593  21.585  1.00  0.00    -0.295 N 
HETATM   31  C7  UNL     1      13.647 -10.820  21.666  1.00  0.00     0.334 C 
HETATM   32  N4  UNL     1      12.814 -10.726  22.817  1.00  0.00    -0.040 NA
HETATM   33  O2  UNL     1      13.293 -10.152  20.664  1.00  0.00    -0.251 OA
ATOM     34  H3  UNL     1      15.695 -11.093  21.505  1.00  0.00     0.171 HD
ENDBRANCH  19  30
ENDBRANCH  14  15
BRANCH  14  35
HETATM   35  O3  UNL     1      20.125 -15.211  21.736  1.00  0.00    -0.332 OA
ATOM     36  H3  UNL     1      19.694 -15.678  21.030  1.00  0.00     0.220 HD
ENDBRANCH  14  35
ENDBRANCH   1  14
TORSDOF 5
ENDMDL
MODEL 2
REMARK VINA RESULT: -8.545019305      2.689      3.103
REMARK  5 active torsions:
REMARK  status: ('A' for Active; 'I' for Inactive)
REMARK    1  A    between atoms: C2_2  and  C3_4 
REMARK    2  A    between atoms: C6_11  and  N3_12 
REMARK       I    between atoms: N3_12  and  C7_14 
REMARK    3  A    between atoms: N5_20  and  C11_21 
REMARK    4  A    between atoms: C11_21  and  O3_22 
REMARK    5  A    between atoms: C11_21  and  N6_24 
ROOT
HETATM    1  N6  UNL     1      19.416 -15.662  24.582  1.00  0.00    -0.317 N 
HETATM    2  C12 UNL     1      19.806 -17.150  24.692  1.00  0.00     0.260 C 
HETATM    3  N7  UNL     1      21.238 -16.991  24.428  1.00  0.00    -0.324 N 
HETATM    4  C13 UNL     1      21.640 -15.808  24.866  1.00  0.00     0.043 A 
HETATM    5  C14 UNL     1      22.963 -15.642  24.627  1.00  0.00     0.053 A 
HETATM    6  C15 UNL     1      23.413 -16.786  24.005  1.00  0.00     0.080 A 
HETATM    7  C16 UNL     1      24.767 -16.999  23.588  1.00  0.00     0.102 C 
HETATM    8  N8  UNL     1      25.866 -17.166  23.253  1.00  0.00    -0.191 NA
HETATM    9  C17 UNL     1      22.320 -17.601  23.897  1.00  0.00     0.104 A 
HETATM   10 BR1  UNL     1      22.342 -19.335  23.111  1.00  0.00    -0.029 Br
HETATM   11  C18 UNL     1      20.392 -15.161  25.459  1.00  0.00     0.073 C 
HETATM   12  C19 UNL     1      20.651 -13.736  25.685  1.00  0.00     0.045 C 
HETATM   13  C20 UNL     1      20.217 -15.789  26.877  1.00  0.00     0.045 C 
ENDROOT
BRANCH   1  14
HETATM   14  C11 UNL     1      18.338 -15.374  23.790  1.00  0.00     0.221 C 
BRANCH  14  15
HETATM   15  N5  UNL     1      17.831 -15.525  22.507  1.00  0.00    -0.317 N 
HETATM   16  C3  UNL     1      17.940 -14.366  21.565  1.00  0.00     0.197 C 
HETATM   17  C4  UNL     1      16.978 -14.593  20.499  1.00  0.00     0.044 A 
HETATM   18  C5  UNL     1      16.495 -15.866  20.581  1.00  0.00     0.066 A 
HETATM   19  C6  UNL     1      16.370 -13.978  19.404  1.00  0.00     0.134 A 
HETATM   20  N1  UNL     1      15.626 -16.025  19.575  1.00  0.00    -0.300 N 
HETATM   21  C8  UNL     1      17.156 -16.525  21.793  1.00  0.00     0.074 C 
HETATM   22  N2  UNL     1      15.555 -14.896  18.877  1.00  0.00    -0.285 N 
ATOM     23  H1  UNL     1      15.101 -16.877  19.377  1.00  0.00     0.186 HD
ATOM     24  H2  UNL     1      14.965 -14.751  18.058  1.00  0.00     0.188 HD
HETATM   25  C9  UNL     1      18.011 -17.668  21.284  1.00  0.00     0.045 C 
HETATM   26  C10 UNL     1      15.952 -17.151  22.499  1.00  0.00     0.045 C 
BRANCH  16  27
HETATM   27  C2  UNL     1      19.302 -14.326  20.984  1.00  0.00     0.150 C 
HETATM   28  C1  UNL     1      19.785 -13.189  20.162  1.00  0.00     0.093 C 
HETATM   29  O1  UNL     1      20.060 -15.257  21.183  1.00  0.00    -0.296 OA
ENDBRANCH  16  27
BRANCH  19  30
HETATM   30  N3  UNL     1      16.564 -12.790  19.008  1.00  0.00    -0.295 N 
HETATM   31  C7  UNL     1      16.262 -12.290  17.737  1.00  0.00     0.334 C 
HETATM   32  N4  UNL     1      14.945 -12.124  17.223  1.00  0.00    -0.040 NA
HETATM   33  O2  UNL     1      17.204 -11.956  16.978  1.00  0.00    -0.251 OA
ATOM     34  H3  UNL     1      16.979 -12.140  19.675  1.00  0.00     0.171 HD
ENDBRANCH  19  30
ENDBRANCH  14  15
BRANCH  14  35
HETATM   35  O3  UNL     1      17.416 -14.679  24.537  1.00  0.00    -0.332 OA
ATOM     36  H3  UNL     1      17.757 -14.589  25.419  1.00  0.00     0.220 HD
ENDBRANCH  14  35
ENDBRANCH   1  14
TORSDOF 5
ENDMDL
MODEL 3
REMARK VINA RESULT: -8.367862034      1.821      2.001
REMARK  5 active torsions:
REMARK  status: ('A' for Active; 'I' for Inactive)
REMARK    1  A    between atoms: C2_2  and  C3_4 
REMARK    2  A    between atoms: C6_11  and  N3_12 
REMARK       I    between atoms: N3_12  and  C7_14 
REMARK    3  A    between atoms: N5_20  and  C11_21 
REMARK    4  A    between atoms: C11_21  and  O3_22 
REMARK    5  A    between atoms: C11_21  and  N6_24 
ROOT
HETATM    1  N6  UNL     1      19.059 -15.550  23.333  1.00  0.00    -0.317 N 
HETATM    2  C12 UNL     1      19.182 -17.085  23.412  1.00  0.00     0.260 C 
HETATM    3  N7  UNL     1      20.617 -17.146  23.703  1.00  0.00    -0.324 N 
HETATM    4  C13 UNL     1      20.976 -16.070  24.384  1.00  0.00     0.043 A 
HETATM    5  C14 UNL     1      22.302 -16.107  24.659  1.00  0.00     0.053 A 
HETATM    6  C15 UNL     1      22.799 -17.273  24.119  1.00  0.00     0.080 A 
HETATM    7  C16 UNL     1      24.171 -17.680  24.198  1.00  0.00     0.102 C 
HETATM    8  N8  UNL     1      25.283 -18.004  24.267  1.00  0.00    -0.191 NA
HETATM    9  C17 UNL     1      21.730 -17.894  23.534  1.00  0.00     0.104 A 
HETATM   10 BR1  UNL     1      21.817 -19.563  22.622  1.00  0.00    -0.029 Br
HETATM   11  C18 UNL     1      19.692 -15.262  24.553  1.00  0.00     0.073 C 
HETATM   12  C19 UNL     1      20.031 -13.913  25.014  1.00  0.00     0.045 C 
HETATM   13  C20 UNL     1      18.920 -15.930  25.734  1.00  0.00     0.045 C 
ENDROOT
BRANCH   1  14
HETATM   14  C11 UNL     1      18.403 -15.050  22.243  1.00  0.00     0.221 C 
BRANCH  14  15
HETATM   15  N5  UNL     1      17.139 -14.825  21.713  1.00  0.00    -0.317 N 
HETATM   16  C3  UNL     1      16.641 -13.415  21.650  1.00  0.00     0.197 C 
HETATM   17  C4  UNL     1      15.197 -13.480  21.497  1.00  0.00     0.044 A 
HETATM   18  C5  UNL     1      14.823 -14.763  21.219  1.00  0.00     0.066 A 
HETATM   19  C6  UNL     1      14.042 -12.698  21.523  1.00  0.00     0.134 A 
HETATM   20  N1  UNL     1      13.493 -14.765  21.078  1.00  0.00    -0.300 N 
HETATM   21  C8  UNL     1      16.095 -15.613  21.209  1.00  0.00     0.074 C 
HETATM   22  N2  UNL     1      13.032 -13.532  21.260  1.00  0.00    -0.285 N 
ATOM     23  H1  UNL     1      12.923 -15.584  20.864  1.00  0.00     0.186 HD
ATOM     24  H2  UNL     1      12.050 -13.261  21.207  1.00  0.00     0.188 HD
HETATM   25  C9  UNL     1      16.282 -16.143  19.802  1.00  0.00     0.045 C 
HETATM   26  C10 UNL     1      15.678 -16.801  22.078  1.00  0.00     0.045 C 
BRANCH  16  27
HETATM   27  C2  UNL     1      17.220 -12.736  20.467  1.00  0.00     0.150 C 
HETATM   28  C1  UNL     1      16.631 -12.857  19.111  1.00  0.00     0.093 C 
HETATM   29  O1  UNL     1      18.216 -12.052  20.605  1.00  0.00    -0.296 OA
ENDBRANCH  16  27
BRANCH  19  30
HETATM   30  N3  UNL     1      13.985 -11.453  21.750  1.00  0.00    -0.295 N 
HETATM   31  C7  UNL     1      12.914 -10.610  21.436  1.00  0.00     0.334 C 
HETATM   32  N4  UNL     1      11.631 -10.665  22.051  1.00  0.00    -0.040 NA
HETATM   33  O2  UNL     1      13.072  -9.734  20.551  1.00  0.00    -0.251 OA
ATOM     34  H3  UNL     1      14.793 -11.026  22.203  1.00  0.00     0.171 HD
ENDBRANCH  19  30
ENDBRANCH  14  15
BRANCH  14  35
HETATM   35  O3  UNL     1      19.334 -14.606  21.333  1.00  0.00    -0.332 OA
ATOM     36  H3  UNL     1      20.102 -15.161  21.402  1.00  0.00     0.220 HD
ENDBRANCH  14  35
ENDBRANCH   1  14
TORSDOF 5
ENDMDL
MODEL 4
REMARK VINA RESULT: -8.348178129      2.147      2.502
REMARK  5 active torsions:
REMARK  status: ('A' for Active; 'I' for Inactive)
REMARK    1  A    between atoms: C2_2  and  C3_4 
REMARK    2  A    between atoms: C6_11  and  N3_12 
REMARK       I    between atoms: N3_12  and  C7_14 
REMARK    3  A    between atoms: N5_20  and  C11_21 
REMARK    4  A    between atoms: C11_21  and  O3_22 
REMARK    5  A    between atoms: C11_21  and  N6_24 
ROOT
HETATM    1  N6  UNL     1      19.472 -15.491  24.896  1.00  0.00    -0.317 N 
HETATM    2  C12 UNL     1      19.869 -16.973  25.055  1.00  0.00     0.260 C 
HETATM    3  N7  UNL     1      21.278 -16.835  24.678  1.00  0.00    -0.324 N 
HETATM    4  C13 UNL     1      21.712 -15.632  25.022  1.00  0.00     0.043 A 
HETATM    5  C14 UNL     1      23.013 -15.485  24.676  1.00  0.00     0.053 A 
HETATM    6  C15 UNL     1      23.415 -16.662  24.084  1.00  0.00     0.080 A 
HETATM    7  C16 UNL     1      24.735 -16.903  23.579  1.00  0.00     0.102 C 
HETATM    8  N8  UNL     1      25.805 -17.093  23.173  1.00  0.00    -0.191 NA
HETATM    9  C17 UNL     1      22.317 -17.477  24.101  1.00  0.00     0.104 A 
HETATM   10 BR1  UNL     1      22.279 -19.250  23.408  1.00  0.00    -0.029 Br
HETATM   11  C18 UNL     1      20.511 -14.949  25.670  1.00  0.00     0.073 C 
HETATM   12  C19 UNL     1      20.787 -13.515  25.800  1.00  0.00     0.045 C 
HETATM   13  C20 UNL     1      20.442 -15.501  27.129  1.00  0.00     0.045 C 
ENDROOT
BRANCH   1  14
HETATM   14  C11 UNL     1      18.339 -15.242  24.173  1.00  0.00     0.221 C 
BRANCH  14  15
HETATM   15  N5  UNL     1      17.781 -15.356  22.906  1.00  0.00    -0.317 N 
HETATM   16  C3  UNL     1      17.389 -14.100  22.192  1.00  0.00     0.197 C 
HETATM   17  C4  UNL     1      16.456 -14.479  21.145  1.00  0.00     0.044 A 
HETATM   18  C5  UNL     1      16.447 -15.837  21.009  1.00  0.00     0.066 A 
HETATM   19  C6  UNL     1      15.563 -13.954  20.210  1.00  0.00     0.134 A 
HETATM   20  N1  UNL     1      15.584 -16.131  20.030  1.00  0.00    -0.300 N 
HETATM   21  C8  UNL     1      17.417 -16.403  22.048  1.00  0.00     0.074 C 
HETATM   22  N2  UNL     1      15.060 -15.004  19.557  1.00  0.00    -0.285 N 
ATOM     23  H1  UNL     1      15.363 -17.071  19.699  1.00  0.00     0.186 HD
ATOM     24  H2  UNL     1      14.373 -14.950  18.805  1.00  0.00     0.188 HD
HETATM   25  C9  UNL     1      18.551 -17.073  21.301  1.00  0.00     0.045 C 
HETATM   26  C10 UNL     1      16.580 -17.519  22.676  1.00  0.00     0.045 C 
BRANCH  16  27
HETATM   27  C2  UNL     1      18.588 -13.488  21.571  1.00  0.00     0.150 C 
HETATM   28  C1  UNL     1      19.956 -14.018  21.789  1.00  0.00     0.093 C 
HETATM   29  O1  UNL     1      18.453 -12.515  20.854  1.00  0.00    -0.296 OA
ENDBRANCH  16  27
BRANCH  19  30
HETATM   30  N3  UNL     1      15.299 -12.728  20.034  1.00  0.00    -0.295 N 
HETATM   31  C7  UNL     1      14.209 -12.037  20.574  1.00  0.00     0.334 C 
HETATM   32  N4  UNL     1      14.031 -11.758  21.959  1.00  0.00    -0.040 NA
HETATM   33  O2  UNL     1      13.310 -11.624  19.801  1.00  0.00    -0.251 OA
ATOM     34  H3  UNL     1      15.938 -12.195  19.444  1.00  0.00     0.171 HD
ENDBRANCH  19  30
ENDBRANCH  14  15
BRANCH  14  35
HETATM   35  O3  UNL     1      17.406 -14.662  25.001  1.00  0.00    -0.332 OA
ATOM     36  H3  UNL     1      17.251 -13.775  24.697  1.00  0.00     0.220 HD
ENDBRANCH  14  35
ENDBRANCH   1  14
TORSDOF 5
ENDMDL
MODEL 5
REMARK VINA RESULT: -8.255715487      2.087      2.755
REMARK  5 active torsions:
REMARK  status: ('A' for Active; 'I' for Inactive)
REMARK    1  A    between atoms: C2_2  and  C3_4 
REMARK    2  A    between atoms: C6_11  and  N3_12 
REMARK       I    between atoms: N3_12  and  C7_14 
REMARK    3  A    between atoms: N5_20  and  C11_21 
REMARK    4  A    between atoms: C11_21  and  O3_22 
REMARK    5  A    between atoms: C11_21  and  N6_24 
ROOT
HETATM    1  N6  UNL     1      18.636 -16.090  22.527  1.00  0.00    -0.317 N 
HETATM    2  C12 UNL     1      19.963 -15.305  22.519  1.00  0.00     0.260 C 
HETATM    3  N7  UNL     1      20.645 -16.074  23.564  1.00  0.00    -0.324 N 
HETATM    4  C13 UNL     1      20.214 -17.325  23.545  1.00  0.00     0.043 A 
HETATM    5  C14 UNL     1      20.832 -18.050  24.508  1.00  0.00     0.053 A 
HETATM    6  C15 UNL     1      21.698 -17.204  25.165  1.00  0.00     0.080 A 
HETATM    7  C16 UNL     1      22.540 -17.597  26.256  1.00  0.00     0.102 C 
HETATM    8  N8  UNL     1      23.220 -17.923  27.138  1.00  0.00    -0.191 NA
HETATM    9  C17 UNL     1      21.558 -15.987  24.556  1.00  0.00     0.104 A 
HETATM   10 BR1  UNL     1      22.517 -14.418  25.048  1.00  0.00    -0.029 Br
HETATM   11  C18 UNL     1      19.193 -17.374  22.412  1.00  0.00     0.073 C 
HETATM   12  C19 UNL     1      18.430 -18.622  22.508  1.00  0.00     0.045 C 
HETATM   13  C20 UNL     1      20.023 -17.487  21.094  1.00  0.00     0.045 C 
ENDROOT
BRANCH   1  14
HETATM   14  C11 UNL     1      17.491 -15.345  22.588  1.00  0.00     0.221 C 
BRANCH  14  15
HETATM   15  N5  UNL     1      16.333 -15.028  21.891  1.00  0.00    -0.317 N 
HETATM   16  C3  UNL     1      15.847 -13.613  21.938  1.00  0.00     0.197 C 
HETATM   17  C4  UNL     1      14.449 -13.630  21.540  1.00  0.00     0.044 A 
HETATM   18  C5  UNL     1      14.132 -14.857  21.033  1.00  0.00     0.066 A 
HETATM   19  C6  UNL     1      13.303 -12.837  21.479  1.00  0.00     0.134 A 
HETATM   20  N1  UNL     1      12.843 -14.816  20.675  1.00  0.00    -0.300 N 
HETATM   21  C8  UNL     1      15.391 -15.722  21.119  1.00  0.00     0.074 C 
HETATM   22  N2  UNL     1      12.354 -13.609  20.943  1.00  0.00    -0.285 N 
ATOM     23  H1  UNL     1      12.320 -15.588  20.261  1.00  0.00     0.186 HD
ATOM     24  H2  UNL     1      11.394 -13.315  20.765  1.00  0.00     0.188 HD
HETATM   25  C9  UNL     1      15.812 -16.062  19.705  1.00  0.00     0.045 C 
HETATM   26  C10 UNL     1      14.839 -17.008  21.739  1.00  0.00     0.045 C 
BRANCH  16  27
HETATM   27  C2  UNL     1      16.613 -12.793  20.970  1.00  0.00     0.150 C 
HETATM   28  C1  UNL     1      18.088 -12.658  21.032  1.00  0.00     0.093 C 
HETATM   29  O1  UNL     1      16.016 -12.205  20.088  1.00  0.00    -0.296 OA
ENDBRANCH  16  27
BRANCH  19  30
HETATM   30  N3  UNL     1      13.204 -11.633  21.860  1.00  0.00    -0.295 N 
HETATM   31  C7  UNL     1      12.147 -11.090  22.599  1.00  0.00     0.334 C 
HETATM   32  N4  UNL     1      11.848 -11.422  23.951  1.00  0.00    -0.040 NA
HETATM   33  O2  UNL     1      11.395 -10.248  22.051  1.00  0.00    -0.251 OA
ATOM     34  H3  UNL     1      13.963 -11.001  21.605  1.00  0.00     0.171 HD
ENDBRANCH  19  30
ENDBRANCH  14  15
BRANCH  14  35
HETATM   35  O3  UNL     1      17.480 -14.652  23.776  1.00  0.00    -0.332 OA
ATOM     36  H3  UNL     1      18.319 -14.780  24.202  1.00  0.00     0.220 HD
ENDBRANCH  14  35
ENDBRANCH   1  14
TORSDOF 5
ENDMDL
