MODEL 1
REMARK VINA RESULT: -7.394087208      0.000      0.000
REMARK  9 active torsions:
REMARK  status: ('A' for Active; 'I' for Inactive)
REMARK    1  A    between atoms: C2_2  and  O1_5 
REMARK    2  A    between atoms: O1_5  and  C5_6 
REMARK       I    between atoms: C5_6  and  N1_8 
REMARK    3  A    between atoms: C7_10  and  N2_11 
REMARK    4  A    between atoms: C8_15  and  C10_17 
REMARK    5  A    between atoms: C11_18  and  C12_19 
REMARK    6  A    between atoms: C16_24  and  C17_25 
REMARK    7  A    between atoms: C18_26  and  C19_27 
REMARK    8  A    between atoms: C19_27  and  C20_28 
REMARK    9  A    between atoms: C20_28  and  N3_29 
ROOT
HETATM    1  C12 UNL     1      16.032 -13.680  21.417  1.00  0.00     0.020 A 
HETATM    2  C13 UNL     1      14.823 -13.261  21.927  1.00  0.00     0.039 A 
HETATM    3  C14 UNL     1      13.837 -12.665  21.160  1.00  0.00     0.013 A 
HETATM    4 BR1  UNL     1      12.187 -12.099  21.884  1.00  0.00    -0.051 Br
HETATM    5  C15 UNL     1      14.116 -12.491  19.801  1.00  0.00     0.039 A 
HETATM    6  C16 UNL     1      15.314 -12.898  19.256  1.00  0.00     0.020 A 
HETATM    7  C23 UNL     1      16.260 -13.487  20.069  1.00  0.00     0.041 A 
ENDROOT
BRANCH   1   8
HETATM    8  C11 UNL     1      17.046 -14.301  22.233  1.00  0.00    -0.066 C 
HETATM    9  C10 UNL     1      17.881 -14.821  22.932  1.00  0.00    -0.087 C 
BRANCH   9  10
HETATM   10  C8  UNL     1      18.877 -15.463  23.794  1.00  0.00     0.066 C 
HETATM   11  C7  UNL     1      18.280 -16.579  24.619  1.00  0.00     0.223 C 
HETATM   12  C6  UNL     1      19.292 -17.699  24.549  1.00  0.00     0.162 C 
HETATM   13  N1  UNL     1      20.407 -17.178  23.784  1.00  0.00    -0.324 N 
HETATM   14  C5  UNL     1      21.761 -17.589  23.922  1.00  0.00     0.363 C 
HETATM   15  C24 UNL     1      19.846 -16.188  22.889  1.00  0.00     0.152 C 
HETATM   16  O2  UNL     1      22.691 -17.103  23.231  1.00  0.00    -0.238 OA
HETATM   17  C9  UNL     1      19.591 -14.444  24.637  1.00  0.00     0.033 C 
BRANCH  11  18
HETATM   18  N2  UNL     1      17.077 -17.025  23.970  1.00  0.00    -0.072 N 
ATOM     19  H23 UNL     1      17.254 -17.439  23.055  1.00  0.00     0.274 HD
ATOM     20  H22 UNL     1      16.670 -17.847  24.416  1.00  0.00     0.274 HD
ATOM     21  H21 UNL     1      16.430 -16.238  23.928  1.00  0.00     0.274 HD
ENDBRANCH  11  18
BRANCH  14  22
HETATM   22  O1  UNL     1      22.113 -18.562  24.844  1.00  0.00    -0.294 OA
BRANCH  22  23
HETATM   23  C2  UNL     1      22.611 -18.217  26.094  1.00  0.00     0.061 C 
HETATM   24  C1  UNL     1      22.166 -19.310  27.074  1.00  0.00     0.046 C 
HETATM   25  C3  UNL     1      22.139 -16.885  26.598  1.00  0.00     0.046 C 
HETATM   26  C4  UNL     1      24.115 -18.225  26.066  1.00  0.00     0.046 C 
ENDBRANCH  22  23
ENDBRANCH  14  22
ENDBRANCH   9  10
ENDBRANCH   1   8
BRANCH   6  27
HETATM   27  C17 UNL     1      15.559 -12.702  17.856  1.00  0.00    -0.066 C 
HETATM   28  C18 UNL     1      15.783 -12.535  16.682  1.00  0.00    -0.078 C 
BRANCH  28  29
HETATM   29  C19 UNL     1      16.053 -12.307  15.264  1.00  0.00     0.143 C 
HETATM   30  C21 UNL     1      16.656 -10.958  14.950  1.00  0.00     0.157 C 
HETATM   31  N4  UNL     1      15.326 -10.438  14.869  1.00  0.00    -0.357 N 
HETATM   32  C22 UNL     1      14.844 -11.765  14.607  1.00  0.00     0.241 C 
ATOM     33  H4  UNL     1      14.899  -9.516  14.958  1.00  0.00     0.162 HD
HETATM   34  O3  UNL     1      13.811 -12.210  14.044  1.00  0.00    -0.272 OA
BRANCH  29  35
HETATM   35  C20 UNL     1      16.723 -13.443  14.543  1.00  0.00     0.263 C 
BRANCH  35  36
HETATM   36  N3  UNL     1      15.724 -14.382  14.130  1.00  0.00    -0.077 N 
ATOM     37  H33 UNL     1      14.783 -14.094  14.400  1.00  0.00     0.274 HD
ATOM     38  H32 UNL     1      15.587 -14.386  13.119  1.00  0.00     0.274 HD
ATOM     39  H31 UNL     1      15.969 -15.303  14.493  1.00  0.00     0.274 HD
ENDBRANCH  35  36
ENDBRANCH  29  35
ENDBRANCH  28  29
ENDBRANCH   6  27
TORSDOF 9
ENDMDL
MODEL 2
REMARK VINA RESULT: -7.163956550      0.759      1.122
REMARK  9 active torsions:
REMARK  status: ('A' for Active; 'I' for Inactive)
REMARK    1  A    between atoms: C2_2  and  O1_5 
REMARK    2  A    between atoms: O1_5  and  C5_6 
REMARK       I    between atoms: C5_6  and  N1_8 
REMARK    3  A    between atoms: C7_10  and  N2_11 
REMARK    4  A    between atoms: C8_15  and  C10_17 
REMARK    5  A    between atoms: C11_18  and  C12_19 
REMARK    6  A    between atoms: C16_24  and  C17_25 
REMARK    7  A    between atoms: C18_26  and  C19_27 
REMARK    8  A    between atoms: C19_27  and  C20_28 
REMARK    9  A    between atoms: C20_28  and  N3_29 
ROOT
HETATM    1  C12 UNL     1      16.209 -13.778  21.537  1.00  0.00     0.020 A 
HETATM    2  C13 UNL     1      14.942 -13.532  22.019  1.00  0.00     0.039 A 
HETATM    3  C14 UNL     1      13.907 -13.056  21.233  1.00  0.00     0.013 A 
HETATM    4 BR1  UNL     1      12.178 -12.727  21.919  1.00  0.00    -0.051 Br
HETATM    5  C15 UNL     1      14.196 -12.821  19.886  1.00  0.00     0.039 A 
HETATM    6  C16 UNL     1      15.451 -13.056  19.369  1.00  0.00     0.020 A 
HETATM    7  C23 UNL     1      16.445 -13.531  20.200  1.00  0.00     0.041 A 
ENDROOT
BRANCH   1   8
HETATM    8  C11 UNL     1      17.274 -14.275  22.372  1.00  0.00    -0.066 C 
HETATM    9  C10 UNL     1      18.161 -14.678  23.085  1.00  0.00    -0.087 C 
BRANCH   9  10
HETATM   10  C8  UNL     1      19.224 -15.159  23.972  1.00  0.00     0.066 C 
HETATM   11  C7  UNL     1      18.691 -16.059  25.062  1.00  0.00     0.223 C 
HETATM   12  C6  UNL     1      19.679 -17.201  25.140  1.00  0.00     0.162 C 
HETATM   13  N1  UNL     1      20.725 -16.886  24.188  1.00  0.00    -0.324 N 
HETATM   14  C5  UNL     1      22.080 -17.302  24.289  1.00  0.00     0.363 C 
HETATM   15  C24 UNL     1      20.095 -16.086  23.158  1.00  0.00     0.152 C 
HETATM   16  O2  UNL     1      22.949 -17.000  23.433  1.00  0.00    -0.238 OA
HETATM   17  C9  UNL     1      20.026 -14.010  24.517  1.00  0.00     0.033 C 
BRANCH  11  18
HETATM   18  N2  UNL     1      17.429 -16.592  24.630  1.00  0.00    -0.072 N 
ATOM     19  H23 UNL     1      17.242 -16.412  23.643  1.00  0.00     0.274 HD
ATOM     20  H22 UNL     1      17.424 -17.611  24.587  1.00  0.00     0.274 HD
ATOM     21  H21 UNL     1      16.702 -16.220  25.242  1.00  0.00     0.274 HD
ENDBRANCH  11  18
BRANCH  14  22
HETATM   22  O1  UNL     1      22.504 -18.073  25.360  1.00  0.00    -0.294 OA
BRANCH  22  23
HETATM   23  C2  UNL     1      22.605 -19.455  25.252  1.00  0.00     0.061 C 
HETATM   24  C1  UNL     1      24.101 -19.796  25.224  1.00  0.00     0.046 C 
HETATM   25  C3  UNL     1      21.949 -20.026  24.029  1.00  0.00     0.046 C 
HETATM   26  C4  UNL     1      22.019 -20.108  26.473  1.00  0.00     0.046 C 
ENDBRANCH  22  23
ENDBRANCH  14  22
ENDBRANCH   9  10
ENDBRANCH   1   8
BRANCH   6  27
HETATM   27  C17 UNL     1      15.705 -12.802  17.980  1.00  0.00    -0.066 C 
HETATM   28  C18 UNL     1      15.931 -12.577  16.816  1.00  0.00    -0.078 C 
BRANCH  28  29
HETATM   29  C19 UNL     1      16.189 -12.283  15.408  1.00  0.00     0.143 C 
HETATM   30  C21 UNL     1      16.832 -10.939  15.156  1.00  0.00     0.157 C 
HETATM   31  N4  UNL     1      15.518 -10.374  15.123  1.00  0.00    -0.357 N 
HETATM   32  C22 UNL     1      14.990 -11.668  14.799  1.00  0.00     0.241 C 
ATOM     33  H4  UNL     1      15.123  -9.444  15.267  1.00  0.00     0.162 HD
HETATM   34  O3  UNL     1      13.935 -12.050  14.229  1.00  0.00    -0.272 OA
BRANCH  29  35
HETATM   35  C20 UNL     1      16.811 -13.400  14.618  1.00  0.00     0.263 C 
BRANCH  35  36
HETATM   36  N3  UNL     1      15.815 -14.396  14.362  1.00  0.00    -0.077 N 
ATOM     37  H33 UNL     1      14.879 -13.999  14.280  1.00  0.00     0.274 HD
ATOM     38  H32 UNL     1      15.886 -14.786  13.422  1.00  0.00     0.274 HD
ATOM     39  H31 UNL     1      15.872 -15.113  15.086  1.00  0.00     0.274 HD
ENDBRANCH  35  36
ENDBRANCH  29  35
ENDBRANCH  28  29
ENDBRANCH   6  27
TORSDOF 9
ENDMDL
MODEL 3
REMARK VINA RESULT: -7.091893471      1.268      1.546
REMARK  9 active torsions:
REMARK  status: ('A' for Active; 'I' for Inactive)
REMARK    1  A    between atoms: C2_2  and  O1_5 
REMARK    2  A    between atoms: O1_5  and  C5_6 
REMARK       I    between atoms: C5_6  and  N1_8 
REMARK    3  A    between atoms: C7_10  and  N2_11 
REMARK    4  A    between atoms: C8_15  and  C10_17 
REMARK    5  A    between atoms: C11_18  and  C12_19 
REMARK    6  A    between atoms: C16_24  and  C17_25 
REMARK    7  A    between atoms: C18_26  and  C19_27 
REMARK    8  A    between atoms: C19_27  and  C20_28 
REMARK    9  A    between atoms: C20_28  and  N3_29 
ROOT
HETATM    1  C12 UNL     1      15.959 -13.693  21.362  1.00  0.00     0.020 A 
HETATM    2  C13 UNL     1      14.771 -13.217  21.871  1.00  0.00     0.039 A 
HETATM    3  C14 UNL     1      13.817 -12.572  21.103  1.00  0.00     0.013 A 
HETATM    4 BR1  UNL     1      12.195 -11.927  21.825  1.00  0.00    -0.051 Br
HETATM    5  C15 UNL     1      14.106 -12.411  19.744  1.00  0.00     0.039 A 
HETATM    6  C16 UNL     1      15.283 -12.875  19.201  1.00  0.00     0.020 A 
HETATM    7  C23 UNL     1      16.198 -13.510  20.015  1.00  0.00     0.041 A 
ENDROOT
BRANCH   1   8
HETATM    8  C11 UNL     1      16.941 -14.363  22.179  1.00  0.00    -0.066 C 
HETATM    9  C10 UNL     1      17.753 -14.917  22.879  1.00  0.00    -0.087 C 
BRANCH   9  10
HETATM   10  C8  UNL     1      18.722 -15.590  23.748  1.00  0.00     0.066 C 
HETATM   11  C7  UNL     1      18.940 -17.031  23.348  1.00  0.00     0.223 C 
HETATM   12  C6  UNL     1      20.434 -17.238  23.441  1.00  0.00     0.162 C 
HETATM   13  N1  UNL     1      20.977 -15.989  23.937  1.00  0.00    -0.324 N 
HETATM   14  C5  UNL     1      22.166 -15.857  24.704  1.00  0.00     0.363 C 
HETATM   15  C24 UNL     1      20.067 -14.955  23.488  1.00  0.00     0.152 C 
HETATM   16  O2  UNL     1      22.593 -14.748  25.110  1.00  0.00    -0.238 OA
HETATM   17  C9  UNL     1      18.331 -15.448  25.193  1.00  0.00     0.033 C 
BRANCH  11  18
HETATM   18  N2  UNL     1      18.555 -17.179  21.971  1.00  0.00    -0.072 N 
ATOM     19  H23 UNL     1      19.256 -17.672  21.417  1.00  0.00     0.274 HD
ATOM     20  H22 UNL     1      17.790 -17.841  21.845  1.00  0.00     0.274 HD
ATOM     21  H21 UNL     1      18.341 -16.253  21.602  1.00  0.00     0.274 HD
ENDBRANCH  11  18
BRANCH  14  22
HETATM   22  O1  UNL     1      22.916 -16.973  25.042  1.00  0.00    -0.294 OA
BRANCH  22  23
HETATM   23  C2  UNL     1      24.089 -17.281  24.363  1.00  0.00     0.061 C 
HETATM   24  C1  UNL     1      25.007 -18.006  25.356  1.00  0.00     0.046 C 
HETATM   25  C3  UNL     1      24.810 -16.086  23.811  1.00  0.00     0.046 C 
HETATM   26  C4  UNL     1      23.794 -18.238  23.241  1.00  0.00     0.046 C 
ENDBRANCH  22  23
ENDBRANCH  14  22
ENDBRANCH   9  10
ENDBRANCH   1   8
BRANCH   6  27
HETATM   27  C17 UNL     1      15.540 -12.689  17.801  1.00  0.00    -0.066 C 
HETATM   28  C18 UNL     1      15.772 -12.529  16.628  1.00  0.00    -0.078 C 
BRANCH  28  29
HETATM   29  C19 UNL     1      16.050 -12.309  15.210  1.00  0.00     0.143 C 
HETATM   30  C21 UNL     1      16.641 -10.956  14.890  1.00  0.00     0.157 C 
HETATM   31  N4  UNL     1      15.305 -10.451  14.795  1.00  0.00    -0.357 N 
HETATM   32  C22 UNL     1      14.840 -11.785  14.541  1.00  0.00     0.241 C 
ATOM     33  H4  UNL     1      14.868  -9.533  14.875  1.00  0.00     0.162 HD
HETATM   34  O3  UNL     1      13.816 -12.246  13.974  1.00  0.00    -0.272 OA
BRANCH  29  35
HETATM   35  C20 UNL     1      16.737 -13.443  14.503  1.00  0.00     0.263 C 
BRANCH  35  36
HETATM   36  N3  UNL     1      15.755 -14.409  14.115  1.00  0.00    -0.077 N 
ATOM     37  H33 UNL     1      14.826 -14.186  14.472  1.00  0.00     0.274 HD
ATOM     38  H32 UNL     1      15.538 -14.367  13.119  1.00  0.00     0.274 HD
ATOM     39  H31 UNL     1      16.071 -15.335  14.405  1.00  0.00     0.274 HD
ENDBRANCH  35  36
ENDBRANCH  29  35
ENDBRANCH  28  29
ENDBRANCH   6  27
TORSDOF 9
ENDMDL
MODEL 4
REMARK VINA RESULT: -7.085533987      3.922      5.081
REMARK  9 active torsions:
REMARK  status: ('A' for Active; 'I' for Inactive)
REMARK    1  A    between atoms: C2_2  and  O1_5 
REMARK    2  A    between atoms: O1_5  and  C5_6 
REMARK       I    between atoms: C5_6  and  N1_8 
REMARK    3  A    between atoms: C7_10  and  N2_11 
REMARK    4  A    between atoms: C8_15  and  C10_17 
REMARK    5  A    between atoms: C11_18  and  C12_19 
REMARK    6  A    between atoms: C16_24  and  C17_25 
REMARK    7  A    between atoms: C18_26  and  C19_27 
REMARK    8  A    between atoms: C19_27  and  C20_28 
REMARK    9  A    between atoms: C20_28  and  N3_29 
ROOT
HETATM    1  C12 UNL     1      19.374 -13.837  21.805  1.00  0.00     0.020 A 
HETATM    2  C13 UNL     1      19.886 -13.616  20.545  1.00  0.00     0.039 A 
HETATM    3  C14 UNL     1      19.147 -13.079  19.505  1.00  0.00     0.013 A 
HETATM    4 BR1  UNL     1      19.874 -12.786  17.787  1.00  0.00    -0.051 Br
HETATM    5  C15 UNL     1      17.815 -12.757  19.780  1.00  0.00     0.039 A 
HETATM    6  C16 UNL     1      17.268 -12.964  21.028  1.00  0.00     0.020 A 
HETATM    7  C23 UNL     1      18.053 -13.503  22.027  1.00  0.00     0.041 A 
ENDROOT
BRANCH   1   8
HETATM    8  C11 UNL     1      20.160 -14.397  22.876  1.00  0.00    -0.066 C 
HETATM    9  C10 UNL     1      20.825 -14.847  23.777  1.00  0.00    -0.087 C 
BRANCH   9  10
HETATM   10  C8  UNL     1      21.631 -15.370  24.883  1.00  0.00     0.066 C 
HETATM   11  C7  UNL     1      20.777 -15.965  25.979  1.00  0.00     0.223 C 
HETATM   12  C6  UNL     1      21.480 -17.244  26.368  1.00  0.00     0.162 C 
HETATM   13  N1  UNL     1      22.688 -17.292  25.570  1.00  0.00    -0.324 N 
HETATM   14  C5  UNL     1      23.898 -17.935  25.948  1.00  0.00     0.363 C 
HETATM   15  C24 UNL     1      22.388 -16.565  24.353  1.00  0.00     0.152 C 
HETATM   16  O2  UNL     1      24.919 -17.946  25.216  1.00  0.00    -0.238 OA
HETATM   17  C9  UNL     1      22.577 -14.321  25.397  1.00  0.00     0.033 C 
BRANCH  11  18
HETATM   18  N2  UNL     1      19.501 -16.311  25.416  1.00  0.00    -0.072 N 
ATOM     19  H23 UNL     1      19.431 -17.301  25.178  1.00  0.00     0.274 HD
ATOM     20  H22 UNL     1      18.747 -16.282  26.102  1.00  0.00     0.274 HD
ATOM     21  H21 UNL     1      19.331 -15.701  24.617  1.00  0.00     0.274 HD
ENDBRANCH  11  18
BRANCH  14  22
HETATM   22  O1  UNL     1      23.999 -18.589  27.166  1.00  0.00    -0.294 OA
BRANCH  22  23
HETATM   23  C2  UNL     1      23.836 -19.966  27.256  1.00  0.00     0.061 C 
HETATM   24  C1  UNL     1      25.222 -20.567  27.524  1.00  0.00     0.046 C 
HETATM   25  C3  UNL     1      23.257 -20.598  26.024  1.00  0.00     0.046 C 
HETATM   26  C4  UNL     1      22.965 -20.302  28.435  1.00  0.00     0.046 C 
ENDBRANCH  22  23
ENDBRANCH  14  22
ENDBRANCH   9  10
ENDBRANCH   1   8
BRANCH   6  27
HETATM   27  C17 UNL     1      15.896 -12.619  21.267  1.00  0.00    -0.066 C 
HETATM   28  C18 UNL     1      14.740 -12.328  21.450  1.00  0.00    -0.078 C 
BRANCH  28  29
HETATM   29  C19 UNL     1      13.345 -11.951  21.670  1.00  0.00     0.143 C 
HETATM   30  C21 UNL     1      12.621 -11.481  20.430  1.00  0.00     0.157 C 
HETATM   31  N4  UNL     1      13.110 -10.165  20.705  1.00  0.00    -0.357 N 
HETATM   32  C22 UNL     1      13.271 -10.533  22.083  1.00  0.00     0.241 C 
ATOM     33  H4  UNL     1      13.275  -9.322  20.156  1.00  0.00     0.162 HD
HETATM   34  O3  UNL     1      13.319  -9.870  23.151  1.00  0.00    -0.272 OA
BRANCH  29  35
HETATM   35  C20 UNL     1      12.541 -12.907  22.505  1.00  0.00     0.263 C 
BRANCH  35  36
HETATM   36  N3  UNL     1      11.341 -12.252  22.931  1.00  0.00    -0.077 N 
ATOM     37  H33 UNL     1      11.487 -11.671  23.756  1.00  0.00     0.274 HD
ATOM     38  H32 UNL     1      11.050 -11.516  22.288  1.00  0.00     0.274 HD
ATOM     39  H31 UNL     1      10.615 -12.955  23.073  1.00  0.00     0.274 HD
ENDBRANCH  35  36
ENDBRANCH  29  35
ENDBRANCH  28  29
ENDBRANCH   6  27
TORSDOF 9
ENDMDL
MODEL 5
REMARK VINA RESULT: -7.072172204      1.142      1.599
REMARK  9 active torsions:
REMARK  status: ('A' for Active; 'I' for Inactive)
REMARK    1  A    between atoms: C2_2  and  O1_5 
REMARK    2  A    between atoms: O1_5  and  C5_6 
REMARK       I    between atoms: C5_6  and  N1_8 
REMARK    3  A    between atoms: C7_10  and  N2_11 
REMARK    4  A    between atoms: C8_15  and  C10_17 
REMARK    5  A    between atoms: C11_18  and  C12_19 
REMARK    6  A    between atoms: C16_24  and  C17_25 
REMARK    7  A    between atoms: C18_26  and  C19_27 
REMARK    8  A    between atoms: C19_27  and  C20_28 
REMARK    9  A    between atoms: C20_28  and  N3_29 
ROOT
HETATM    1  C12 UNL     1      15.989 -13.872  21.326  1.00  0.00     0.020 A 
HETATM    2  C13 UNL     1      14.828 -13.364  21.867  1.00  0.00     0.039 A 
HETATM    3  C14 UNL     1      13.890 -12.659  21.133  1.00  0.00     0.013 A 
HETATM    4 BR1  UNL     1      12.306 -11.973  21.899  1.00  0.00    -0.051 Br
HETATM    5  C15 UNL     1      14.166 -12.469  19.776  1.00  0.00     0.039 A 
HETATM    6  C16 UNL     1      15.316 -12.962  19.200  1.00  0.00     0.020 A 
HETATM    7  C23 UNL     1      16.216 -13.658  19.981  1.00  0.00     0.041 A 
ENDROOT
BRANCH   1   8
HETATM    8  C11 UNL     1      16.954 -14.605  22.107  1.00  0.00    -0.066 C 
HETATM    9  C10 UNL     1      17.755 -15.236  22.754  1.00  0.00    -0.087 C 
BRANCH   9  10
HETATM   10  C8  UNL     1      18.724 -16.022  23.522  1.00  0.00     0.066 C 
HETATM   11  C7  UNL     1      19.715 -16.733  22.630  1.00  0.00     0.223 C 
HETATM   12  C6  UNL     1      21.053 -16.543  23.306  1.00  0.00     0.162 C 
HETATM   13  N1  UNL     1      20.777 -15.828  24.536  1.00  0.00    -0.324 N 
HETATM   14  C5  UNL     1      21.548 -15.914  25.727  1.00  0.00     0.363 C 
HETATM   15  C24 UNL     1      19.588 -15.041  24.280  1.00  0.00     0.152 C 
HETATM   16  O2  UNL     1      21.265 -15.271  26.768  1.00  0.00    -0.238 OA
HETATM   17  C9  UNL     1      18.024 -16.960  24.465  1.00  0.00     0.033 C 
BRANCH  11  18
HETATM   18  N2  UNL     1      19.754 -16.049  21.366  1.00  0.00    -0.072 N 
ATOM     19  H23 UNL     1      20.493 -15.347  21.320  1.00  0.00     0.274 HD
ATOM     20  H22 UNL     1      20.082 -16.645  20.606  1.00  0.00     0.274 HD
ATOM     21  H21 UNL     1      18.828 -15.659  21.189  1.00  0.00     0.274 HD
ENDBRANCH  11  18
BRANCH  14  22
HETATM   22  O1  UNL     1      22.668 -16.730  25.786  1.00  0.00    -0.294 OA
BRANCH  22  23
HETATM   23  C2  UNL     1      22.574 -18.043  26.230  1.00  0.00     0.061 C 
HETATM   24  C1  UNL     1      23.123 -18.938  25.112  1.00  0.00     0.046 C 
HETATM   25  C3  UNL     1      21.179 -18.480  26.568  1.00  0.00     0.046 C 
HETATM   26  C4  UNL     1      23.453 -18.239  27.435  1.00  0.00     0.046 C 
ENDBRANCH  22  23
ENDBRANCH  14  22
ENDBRANCH   9  10
ENDBRANCH   1   8
BRANCH   6  27
HETATM   27  C17 UNL     1      15.560 -12.744  17.803  1.00  0.00    -0.066 C 
HETATM   28  C18 UNL     1      15.783 -12.563  16.632  1.00  0.00    -0.078 C 
BRANCH  28  29
HETATM   29  C19 UNL     1      16.057 -12.318  15.217  1.00  0.00     0.143 C 
HETATM   30  C21 UNL     1      16.656 -10.963  14.920  1.00  0.00     0.157 C 
HETATM   31  N4  UNL     1      15.324 -10.447  14.841  1.00  0.00    -0.357 N 
HETATM   32  C22 UNL     1      14.848 -11.773  14.562  1.00  0.00     0.241 C 
ATOM     33  H4  UNL     1      14.893  -9.528  14.940  1.00  0.00     0.162 HD
HETATM   34  O3  UNL     1      13.819 -12.215  13.990  1.00  0.00    -0.272 OA
BRANCH  29  35
HETATM   35  C20 UNL     1      16.733 -13.443  14.485  1.00  0.00     0.263 C 
BRANCH  35  36
HETATM   36  N3  UNL     1      15.751 -14.422  14.133  1.00  0.00    -0.077 N 
ATOM     37  H33 UNL     1      15.432 -14.962  14.938  1.00  0.00     0.274 HD
ATOM     38  H32 UNL     1      14.856 -14.003  13.880  1.00  0.00     0.274 HD
ATOM     39  H31 UNL     1      16.127 -15.014  13.392  1.00  0.00     0.274 HD
ENDBRANCH  35  36
ENDBRANCH  29  35
ENDBRANCH  28  29
ENDBRANCH   6  27
TORSDOF 9
ENDMDL
