MODEL 1
REMARK VINA RESULT: -8.673055267      0.000      0.000
REMARK  2 active torsions:
REMARK  status: ('A' for Active; 'I' for Inactive)
REMARK    1  A    between atoms: C2_2  and  C5_5 
REMARK       I    between atoms: C5_5  and  N1_7 
REMARK       I    between atoms: N2_13  and  C9_15 
REMARK       I    between atoms: C9_15  and  N4_19 
REMARK    2  A    between atoms: N4_19  and  C10_21 
ROOT
HETATM    1  C5  UNL     1      14.514 -12.700  19.159  1.00  0.00     0.239 C 
HETATM    2  O1  UNL     1      13.730 -11.689  19.152  1.00  0.00    -0.272 OA
HETATM    3  N1  UNL     1      14.616 -13.530  20.312  1.00  0.00    -0.237 N 
HETATM    4  C6  UNL     1      13.963 -13.458  21.596  1.00  0.00     0.254 C 
HETATM    5  O2  UNL     1      13.449 -12.582  22.317  1.00  0.00    -0.271 OA
HETATM    6  C7  UNL     1      14.163 -14.924  21.710  1.00  0.00     0.219 C 
HETATM    7 BR1  UNL     1      12.737 -15.987  20.979  1.00  0.00    -0.073 Br
HETATM    8  C8  UNL     1      15.297 -14.686  20.770  1.00  0.00     0.133 C 
HETATM    9  N2  UNL     1      16.417 -15.241  20.462  1.00  0.00    -0.179 N 
ATOM     10  H2  UNL     1      17.020 -14.839  19.744  1.00  0.00     0.185 HD
HETATM   11  C9  UNL     1      16.792 -16.433  21.150  1.00  0.00     0.673 C 
HETATM   12  N3  UNL     1      16.416 -17.541  20.587  1.00  0.00    -0.235 N 
ATOM     13  H31 UNL     1      16.684 -18.393  21.079  1.00  0.00     0.174 HD
ATOM     14  H32 UNL     1      15.888 -17.562  19.714  1.00  0.00     0.174 HD
HETATM   15  N4  UNL     1      17.526 -16.405  22.363  1.00  0.00    -0.212 N 
ATOM     16  H4  UNL     1      17.009 -16.512  23.236  1.00  0.00     0.178 HD
ENDROOT
BRANCH  15  17
HETATM   17  C10 UNL     1      18.967 -16.233  22.441  1.00  0.00     0.209 C 
HETATM   18  C11 UNL     1      19.607 -17.373  23.104  1.00  0.00     0.243 C 
HETATM   19  O3  UNL     1      20.098 -18.213  22.306  1.00  0.00    -0.271 OA
HETATM   20  N5  UNL     1      19.804 -17.753  24.451  1.00  0.00    -0.349 N 
HETATM   21  C12 UNL     1      19.586 -16.974  25.617  1.00  0.00     0.042 C 
ATOM     22  H5  UNL     1      20.144 -18.703  24.603  1.00  0.00     0.163 HD
HETATM   23  C13 UNL     1      18.157 -16.623  25.889  1.00  0.00     0.039 C 
HETATM   24  C14 UNL     1      20.046 -17.795  26.835  1.00  0.00     0.039 C 
HETATM   25  C15 UNL     1      20.496 -15.783  25.566  1.00  0.00     0.026 C 
HETATM   26  C16 UNL     1      21.929 -16.338  25.595  1.00  0.00     0.029 C 
HETATM   27  C17 UNL     1      20.323 -15.068  26.918  1.00  0.00     0.029 C 
HETATM   28  S1  UNL     1      20.342 -14.642  24.284  1.00  0.00    -0.145 SA
HETATM   29  C18 UNL     1      19.341 -14.878  22.879  1.00  0.00     0.031 C 
HETATM   30  C19 UNL     1      18.142 -13.918  22.992  1.00  0.00     0.029 C 
HETATM   31  C20 UNL     1      20.158 -14.194  21.742  1.00  0.00     0.029 C 
ENDBRANCH  15  17
BRANCH   1  32
HETATM   32  C2  UNL     1      15.288 -12.941  17.916  1.00  0.00     0.031 C 
HETATM   33  C1  UNL     1      16.745 -12.653  18.190  1.00  0.00     0.025 C 
HETATM   34  C3  UNL     1      14.782 -12.042  16.800  1.00  0.00     0.025 C 
HETATM   35  C4  UNL     1      15.157 -14.378  17.459  1.00  0.00     0.025 C 
ENDBRANCH   1  32
TORSDOF 2
ENDMDL
MODEL 2
REMARK VINA RESULT: -8.447438961      1.490      2.348
REMARK  2 active torsions:
REMARK  status: ('A' for Active; 'I' for Inactive)
REMARK    1  A    between atoms: C2_2  and  C5_5 
REMARK       I    between atoms: C5_5  and  N1_7 
REMARK       I    between atoms: N2_13  and  C9_15 
REMARK       I    between atoms: C9_15  and  N4_19 
REMARK    2  A    between atoms: N4_19  and  C10_21 
ROOT
HETATM    1  C5  UNL     1      14.512 -12.633  19.190  1.00  0.00     0.239 C 
HETATM    2  O1  UNL     1      13.701 -11.662  18.996  1.00  0.00    -0.272 OA
HETATM    3  N1  UNL     1      14.593 -13.266  20.464  1.00  0.00    -0.237 N 
HETATM    4  C6  UNL     1      13.891 -13.013  21.698  1.00  0.00     0.254 C 
HETATM    5  O2  UNL     1      13.327 -12.051  22.252  1.00  0.00    -0.271 OA
HETATM    6  C7  UNL     1      14.127 -14.435  22.050  1.00  0.00     0.219 C 
HETATM    7 BR1  UNL     1      12.758 -15.646  21.452  1.00  0.00    -0.073 Br
HETATM    8  C8  UNL     1      15.288 -14.312  21.121  1.00  0.00     0.133 C 
HETATM    9  N2  UNL     1      16.433 -14.872  20.942  1.00  0.00    -0.179 N 
ATOM     10  H2  UNL     1      17.052 -14.569  20.190  1.00  0.00     0.185 HD
HETATM   11  C9  UNL     1      16.815 -15.927  21.824  1.00  0.00     0.673 C 
HETATM   12  N3  UNL     1      16.490 -17.122  21.432  1.00  0.00    -0.235 N 
ATOM     13  H31 UNL     1      16.762 -17.876  22.062  1.00  0.00     0.174 HD
ATOM     14  H32 UNL     1      15.995 -17.297  20.557  1.00  0.00     0.174 HD
HETATM   15  N4  UNL     1      17.501 -15.683  23.039  1.00  0.00    -0.212 N 
ATOM     16  H4  UNL     1      16.956 -15.667  23.901  1.00  0.00     0.178 HD
ENDROOT
BRANCH  15  17
HETATM   17  C10 UNL     1      18.933 -15.454  23.135  1.00  0.00     0.209 C 
HETATM   18  C11 UNL     1      19.656 -16.121  22.049  1.00  0.00     0.243 C 
HETATM   19  O3  UNL     1      19.949 -15.359  21.091  1.00  0.00    -0.271 OA
HETATM   20  N5  UNL     1      20.109 -17.441  21.824  1.00  0.00    -0.349 N 
HETATM   21  C12 UNL     1      20.156 -18.516  22.751  1.00  0.00     0.042 C 
ATOM     22  H5  UNL     1      20.441 -17.646  20.882  1.00  0.00     0.163 HD
HETATM   23  C13 UNL     1      18.824 -19.015  23.215  1.00  0.00     0.039 C 
HETATM   24  C14 UNL     1      20.826 -19.717  22.057  1.00  0.00     0.039 C 
HETATM   25  C15 UNL     1      21.076 -18.133  23.872  1.00  0.00     0.026 C 
HETATM   26  C16 UNL     1      22.467 -17.952  23.242  1.00  0.00     0.029 C 
HETATM   27  C17 UNL     1      21.203 -19.387  24.754  1.00  0.00     0.029 C 
HETATM   28  S1  UNL     1      20.704 -16.768  24.856  1.00  0.00    -0.145 SA
HETATM   29  C18 UNL     1      19.432 -15.630  24.510  1.00  0.00     0.031 C 
HETATM   30  C19 UNL     1      18.313 -15.849  25.544  1.00  0.00     0.029 C 
HETATM   31  C20 UNL     1      20.025 -14.275  25.002  1.00  0.00     0.029 C 
ENDBRANCH  15  17
BRANCH   1  32
HETATM   32  C2  UNL     1      15.338 -13.042  18.027  1.00  0.00     0.031 C 
HETATM   33  C1  UNL     1      14.910 -12.237  16.824  1.00  0.00     0.025 C 
HETATM   34  C3  UNL     1      15.156 -14.526  17.751  1.00  0.00     0.025 C 
HETATM   35  C4  UNL     1      16.808 -12.787  18.282  1.00  0.00     0.025 C 
ENDBRANCH   1  32
TORSDOF 2
ENDMDL
MODEL 3
REMARK VINA RESULT: -7.197324453      3.057      3.532
REMARK  2 active torsions:
REMARK  status: ('A' for Active; 'I' for Inactive)
REMARK    1  A    between atoms: C2_2  and  C5_5 
REMARK       I    between atoms: C5_5  and  N1_7 
REMARK       I    between atoms: N2_13  and  C9_15 
REMARK       I    between atoms: C9_15  and  N4_19 
REMARK    2  A    between atoms: N4_19  and  C10_21 
ROOT
HETATM    1  C5  UNL     1      13.687 -18.079  19.523  1.00  0.00     0.239 C 
HETATM    2  O1  UNL     1      12.493 -17.693  19.272  1.00  0.00    -0.272 OA
HETATM    3  N1  UNL     1      14.225 -17.961  20.837  1.00  0.00    -0.237 N 
HETATM    4  C6  UNL     1      13.654 -17.444  22.056  1.00  0.00     0.254 C 
HETATM    5  O2  UNL     1      12.775 -16.624  22.382  1.00  0.00    -0.271 OA
HETATM    6  C7  UNL     1      14.585 -18.331  22.795  1.00  0.00     0.219 C 
HETATM    7 BR1  UNL     1      13.900 -20.092  23.153  1.00  0.00    -0.073 Br
HETATM    8  C8  UNL     1      15.414 -18.234  21.559  1.00  0.00     0.133 C 
HETATM    9  N2  UNL     1      16.654 -18.339  21.227  1.00  0.00    -0.179 N 
ATOM     10  H2  UNL     1      16.948 -18.217  20.258  1.00  0.00     0.185 HD
HETATM   11  C9  UNL     1      17.605 -18.631  22.250  1.00  0.00     0.673 C 
HETATM   12  N3  UNL     1      17.844 -19.893  22.441  1.00  0.00    -0.235 N 
ATOM     13  H31 UNL     1      18.523 -20.102  23.172  1.00  0.00     0.174 HD
ATOM     14  H32 UNL     1      17.386 -20.627  21.900  1.00  0.00     0.174 HD
HETATM   15  N4  UNL     1      18.241 -17.612  23.001  1.00  0.00    -0.212 N 
ATOM     16  H4  UNL     1      17.871 -17.400  23.928  1.00  0.00     0.178 HD
ENDROOT
BRANCH  15  17
HETATM   17  C10 UNL     1      19.387 -16.849  22.535  1.00  0.00     0.209 C 
HETATM   18  C11 UNL     1      20.623 -17.288  23.188  1.00  0.00     0.243 C 
HETATM   19  O3  UNL     1      21.308 -18.083  22.494  1.00  0.00    -0.271 OA
HETATM   20  N5  UNL     1      21.235 -17.020  24.434  1.00  0.00    -0.349 N 
HETATM   21  C12 UNL     1      20.881 -16.025  25.383  1.00  0.00     0.042 C 
ATOM     22  H5  UNL     1      22.027 -17.615  24.681  1.00  0.00     0.163 HD
HETATM   23  C13 UNL     1      19.550 -16.217  26.038  1.00  0.00     0.039 C 
HETATM   24  C14 UNL     1      21.912 -16.065  26.526  1.00  0.00     0.039 C 
HETATM   25  C15 UNL     1      21.044 -14.680  24.739  1.00  0.00     0.026 C 
HETATM   26  C16 UNL     1      22.538 -14.544  24.403  1.00  0.00     0.029 C 
HETATM   27  C17 UNL     1      20.796 -13.651  25.855  1.00  0.00     0.029 C 
HETATM   28  S1  UNL     1      20.101 -14.272  23.356  1.00  0.00    -0.145 SA
HETATM   29  C18 UNL     1      19.107 -15.404  22.481  1.00  0.00     0.031 C 
HETATM   30  C19 UNL     1      17.635 -15.054  22.768  1.00  0.00     0.029 C 
HETATM   31  C20 UNL     1      19.240 -14.926  21.004  1.00  0.00     0.029 C 
ENDBRANCH  15  17
BRANCH   1  32
HETATM   32  C2  UNL     1      14.449 -18.642  18.382  1.00  0.00     0.031 C 
HETATM   33  C1  UNL     1      15.513 -17.651  17.974  1.00  0.00     0.025 C 
HETATM   34  C3  UNL     1      13.518 -18.916  17.212  1.00  0.00     0.025 C 
HETATM   35  C4  UNL     1      15.123 -19.944  18.762  1.00  0.00     0.025 C 
ENDBRANCH   1  32
TORSDOF 2
ENDMDL
MODEL 4
REMARK VINA RESULT: -6.999609438      2.162      3.165
REMARK  2 active torsions:
REMARK  status: ('A' for Active; 'I' for Inactive)
REMARK    1  A    between atoms: C2_2  and  C5_5 
REMARK       I    between atoms: C5_5  and  N1_7 
REMARK       I    between atoms: N2_13  and  C9_15 
REMARK       I    between atoms: C9_15  and  N4_19 
REMARK    2  A    between atoms: N4_19  and  C10_21 
ROOT
HETATM    1  C5  UNL     1      14.045 -14.350  20.400  1.00  0.00     0.239 C 
HETATM    2  O1  UNL     1      12.815 -14.010  20.306  1.00  0.00    -0.272 OA
HETATM    3  N1  UNL     1      14.420 -15.521  21.119  1.00  0.00    -0.237 N 
HETATM    4  C6  UNL     1      13.629 -16.490  21.837  1.00  0.00     0.254 C 
HETATM    5  O2  UNL     1      12.531 -16.526  22.423  1.00  0.00    -0.271 OA
HETATM    6  C7  UNL     1      14.711 -17.472  21.577  1.00  0.00     0.219 C 
HETATM    7 BR1  UNL     1      14.525 -18.452  19.933  1.00  0.00    -0.073 Br
HETATM    8  C8  UNL     1      15.576 -16.260  21.476  1.00  0.00     0.133 C 
HETATM    9  N2  UNL     1      16.817 -15.955  21.630  1.00  0.00    -0.179 N 
ATOM     10  H2  UNL     1      17.142 -14.998  21.488  1.00  0.00     0.185 HD
HETATM   11  C9  UNL     1      17.726 -16.989  22.005  1.00  0.00     0.673 C 
HETATM   12  N3  UNL     1      18.296 -17.610  21.018  1.00  0.00    -0.235 N 
ATOM     13  H31 UNL     1      18.945 -18.350  21.285  1.00  0.00     0.174 HD
ATOM     14  H32 UNL     1      18.110 -17.379  20.042  1.00  0.00     0.174 HD
HETATM   15  N4  UNL     1      17.985 -17.310  23.361  1.00  0.00    -0.212 N 
ATOM     16  H4  UNL     1      17.496 -18.110  23.763  1.00  0.00     0.178 HD
ENDROOT
BRANCH  15  17
HETATM   17  C10 UNL     1      18.902 -16.572  24.213  1.00  0.00     0.209 C 
HETATM   18  C11 UNL     1      20.128 -16.213  23.496  1.00  0.00     0.243 C 
HETATM   19  O3  UNL     1      20.133 -15.033  23.058  1.00  0.00    -0.271 OA
HETATM   20  N5  UNL     1      21.325 -16.894  23.177  1.00  0.00    -0.349 N 
HETATM   21  C12 UNL     1      21.775 -18.146  23.673  1.00  0.00     0.042 C 
ATOM     22  H5  UNL     1      21.941 -16.429  22.509  1.00  0.00     0.163 HD
HETATM   23  C13 UNL     1      20.953 -19.326  23.259  1.00  0.00     0.039 C 
HETATM   24  C14 UNL     1      23.183 -18.408  23.109  1.00  0.00     0.039 C 
HETATM   25  C15 UNL     1      21.950 -18.030  25.158  1.00  0.00     0.026 C 
HETATM   26  C16 UNL     1      23.051 -16.979  25.379  1.00  0.00     0.029 C 
HETATM   27  C17 UNL     1      22.579 -19.360  25.609  1.00  0.00     0.029 C 
HETATM   28  S1  UNL     1      20.593 -17.664  26.155  1.00  0.00    -0.145 SA
HETATM   29  C18 UNL     1      19.033 -17.184  25.546  1.00  0.00     0.031 C 
HETATM   30  C19 UNL     1      18.058 -18.351  25.784  1.00  0.00     0.029 C 
HETATM   31  C20 UNL     1      18.535 -16.163  26.613  1.00  0.00     0.029 C 
ENDBRANCH  15  17
BRANCH   1  32
HETATM   32  C2  UNL     1      15.025 -13.464  19.725  1.00  0.00     0.031 C 
HETATM   33  C1  UNL     1      14.271 -12.413  18.947  1.00  0.00     0.025 C 
HETATM   34  C3  UNL     1      15.905 -14.274  18.785  1.00  0.00     0.025 C 
HETATM   35  C4  UNL     1      15.922 -12.772  20.729  1.00  0.00     0.025 C 
ENDBRANCH   1  32
TORSDOF 2
ENDMDL
MODEL 5
REMARK VINA RESULT: -6.980423122      4.039      8.170
REMARK  2 active torsions:
REMARK  status: ('A' for Active; 'I' for Inactive)
REMARK    1  A    between atoms: C2_2  and  C5_5 
REMARK       I    between atoms: C5_5  and  N1_7 
REMARK       I    between atoms: N2_13  and  C9_15 
REMARK       I    between atoms: C9_15  and  N4_19 
REMARK    2  A    between atoms: N4_19  and  C10_21 
ROOT
HETATM    1  C5  UNL     1      20.234 -15.895  23.741  1.00  0.00     0.239 C 
HETATM    2  O1  UNL     1      21.481 -15.655  23.578  1.00  0.00    -0.272 OA
HETATM    3  N1  UNL     1      19.606 -16.970  23.050  1.00  0.00    -0.237 N 
HETATM    4  C6  UNL     1      20.130 -17.932  22.111  1.00  0.00     0.254 C 
HETATM    5  O2  UNL     1      21.065 -18.000  21.293  1.00  0.00    -0.271 OA
HETATM    6  C7  UNL     1      19.047 -18.850  22.544  1.00  0.00     0.219 C 
HETATM    7 BR1  UNL     1      19.499 -19.974  24.038  1.00  0.00    -0.073 Br
HETATM    8  C8  UNL     1      18.339 -17.590  22.915  1.00  0.00     0.133 C 
HETATM    9  N2  UNL     1      17.127 -17.182  23.065  1.00  0.00    -0.179 N 
ATOM     10  H2  UNL     1      16.929 -16.220  23.338  1.00  0.00     0.185 HD
HETATM   11  C9  UNL     1      16.069 -18.112  22.838  1.00  0.00     0.673 C 
HETATM   12  N3  UNL     1      15.674 -18.770  23.886  1.00  0.00    -0.235 N 
ATOM     13  H31 UNL     1      14.918 -19.434  23.724  1.00  0.00     0.174 HD
ATOM     14  H32 UNL     1      16.090 -18.635  24.808  1.00  0.00     0.174 HD
HETATM   15  N4  UNL     1      15.491 -18.300  21.557  1.00  0.00    -0.212 N 
ATOM     16  H4  UNL     1      15.805 -19.097  21.004  1.00  0.00     0.178 HD
ENDROOT
BRANCH  15  17
HETATM   17  C10 UNL     1      14.480 -17.427  20.982  1.00  0.00     0.209 C 
HETATM   18  C11 UNL     1      13.140 -17.767  21.470  1.00  0.00     0.243 C 
HETATM   19  O3  UNL     1      12.742 -17.033  22.411  1.00  0.00    -0.271 OA
HETATM   20  N5  UNL     1      12.177 -18.741  21.123  1.00  0.00    -0.349 N 
HETATM   21  C12 UNL     1      12.171 -19.597  19.990  1.00  0.00     0.042 C 
ATOM     22  H5  UNL     1      11.390 -18.842  21.765  1.00  0.00     0.163 HD
HETATM   23  C13 UNL     1      13.265 -20.618  19.958  1.00  0.00     0.039 C 
HETATM   24  C14 UNL     1      10.859 -20.402  20.003  1.00  0.00     0.039 C 
HETATM   25  C15 UNL     1      12.111 -18.746  18.756  1.00  0.00     0.026 C 
HETATM   26  C16 UNL     1      10.772 -17.992  18.821  1.00  0.00     0.029 C 
HETATM   27  C17 UNL     1      11.954 -19.726  17.581  1.00  0.00     0.029 C 
HETATM   28  S1  UNL     1      13.384 -17.636  18.417  1.00  0.00    -0.145 SA
HETATM   29  C18 UNL     1      14.664 -17.246  19.533  1.00  0.00     0.031 C 
HETATM   30  C19 UNL     1      15.962 -17.877  18.996  1.00  0.00     0.029 C 
HETATM   31  C20 UNL     1      14.933 -15.737  19.250  1.00  0.00     0.029 C 
ENDBRANCH  15  17
BRANCH   1  32
HETATM   32  C2  UNL     1      19.510 -14.999  24.675  1.00  0.00     0.031 C 
HETATM   33  C1  UNL     1      18.409 -14.296  23.917  1.00  0.00     0.025 C 
HETATM   34  C3  UNL     1      20.465 -13.976  25.270  1.00  0.00     0.025 C 
HETATM   35  C4  UNL     1      18.890 -15.780  25.814  1.00  0.00     0.025 C 
ENDBRANCH   1  32
TORSDOF 2
ENDMDL
