MODEL 1
REMARK VINA RESULT: -8.048804776      0.000      0.000
REMARK  5 active torsions:
REMARK  status: ('A' for Active; 'I' for Inactive)
REMARK    1  A    between atoms: C11_11  and  O1_12 
REMARK    2  A    between atoms: C12_14  and  O2_15 
REMARK    3  A    between atoms: N1_19  and  C15_20 
REMARK    4  A    between atoms: C19_24  and  O3_25 
REMARK    5  A    between atoms: C21_27  and  O4_28 
ROOT
HETATM    1  C1  UNL     1      20.065 -14.304  22.165  1.00  0.00     0.015 C 
HETATM    2  C2  UNL     1      20.173 -14.989  23.289  1.00  0.00    -0.082 C 
HETATM    3  C3  UNL     1      20.428 -16.446  23.203  1.00  0.00     0.059 C 
HETATM    4  C4  UNL     1      20.964 -17.102  24.427  1.00  0.00     0.090 C 
HETATM    5  C5  UNL     1      21.060 -16.244  25.638  1.00  0.00     0.030 C 
HETATM    6  C6  UNL     1      19.750 -15.841  26.325  1.00  0.00     0.022 C 
HETATM    7  C7  UNL     1      18.909 -15.134  25.320  1.00  0.00     0.019 C 
HETATM    8  C8  UNL     1      20.039 -14.352  24.613  1.00  0.00     0.028 C 
HETATM    9  C9  UNL     1      21.200 -14.781  25.442  1.00  0.00    -0.001 C 
HETATM   10  C10 UNL     1      22.523 -14.219  25.286  1.00  0.00     0.049 C 
HETATM   11  C11 UNL     1      23.419 -14.738  24.225  1.00  0.00     0.150 C 
HETATM   12  C12 UNL     1      23.985 -16.110  24.432  1.00  0.00     0.169 C 
HETATM   13  C13 UNL     1      23.300 -17.241  23.756  1.00  0.00     0.108 C 
HETATM   14  C14 UNL     1      24.383 -18.266  23.495  1.00  0.00     0.034 C 
HETATM   15  N1  UNL     1      22.181 -17.830  24.281  1.00  0.00    -0.389 N 
HETATM   16  C26 UNL     1      20.587 -14.684  26.829  1.00  0.00    -0.075 C 
HETATM   17  C27 UNL     1      20.747 -13.944  27.888  1.00  0.00     0.015 C 
ENDROOT
BRANCH  15  18
HETATM   18  C15 UNL     1      22.175 -19.198  24.714  1.00  0.00     0.144 C 
HETATM   19  C16 UNL     1      21.611 -19.349  26.086  1.00  0.00     0.015 C 
HETATM   20  C17 UNL     1      20.644 -20.147  26.450  1.00  0.00    -0.025 A 
HETATM   21  C18 UNL     1      20.205 -20.170  27.782  1.00  0.00     0.051 A 
HETATM   22  C23 UNL     1      20.081 -21.026  25.556  1.00  0.00    -0.022 A 
HETATM   23  C19 UNL     1      19.238 -21.028  28.222  1.00  0.00     0.102 A 
HETATM   24  C21 UNL     1      18.683 -21.896  27.313  1.00  0.00     0.099 A 
HETATM   25  C22 UNL     1      19.086 -21.905  26.008  1.00  0.00     0.051 A 
HETATM   26  C24 UNL     1      20.524 -21.073  24.341  1.00  0.00     0.029 C 
HETATM   27  C25 UNL     1      21.629 -20.232  23.842  1.00  0.00     0.015 C 
HETATM   28 BR1  UNL     1      21.231 -19.811  22.016  1.00  0.00    -0.053 Br
BRANCH  23  29
HETATM   29  O3  UNL     1      18.813 -21.030  29.572  1.00  0.00    -0.353 OA
HETATM   30  C20 UNL     1      19.696 -20.695  30.608  1.00  0.00     0.210 C 
ENDBRANCH  23  29
BRANCH  24  31
HETATM   31  O4  UNL     1      17.681 -22.802  27.706  1.00  0.00    -0.358 OA
ATOM     32  H4  UNL     1      17.385 -23.482  27.113  1.00  0.00     0.217 HD
ENDBRANCH  24  31
ENDBRANCH  15  18
BRANCH  12  33
HETATM   33  O2  UNL     1      25.256 -16.028  23.820  1.00  0.00    -0.391 OA
ATOM     34  H2  UNL     1      25.853 -16.166  24.546  1.00  0.00     0.210 HD
ENDBRANCH  12  33
BRANCH  11  35
HETATM   35  O1  UNL     1      24.477 -13.776  24.239  1.00  0.00    -0.393 OA
ATOM     36  H1  UNL     1      24.333 -13.317  23.420  1.00  0.00     0.210 HD
ENDBRANCH  11  35
TORSDOF 5
ENDMDL
MODEL 2
REMARK VINA RESULT: -7.797900993      5.679      8.791
REMARK  5 active torsions:
REMARK  status: ('A' for Active; 'I' for Inactive)
REMARK    1  A    between atoms: C11_11  and  O1_12 
REMARK    2  A    between atoms: C12_14  and  O2_15 
REMARK    3  A    between atoms: N1_19  and  C15_20 
REMARK    4  A    between atoms: C19_24  and  O3_25 
REMARK    5  A    between atoms: C21_27  and  O4_28 
ROOT
HETATM    1  C1  UNL     1      14.244 -17.674  17.766  1.00  0.00     0.015 C 
HETATM    2  C2  UNL     1      14.929 -17.564  18.890  1.00  0.00    -0.082 C 
HETATM    3  C3  UNL     1      15.532 -16.250  19.221  1.00  0.00     0.059 C 
HETATM    4  C4  UNL     1      15.912 -16.032  20.643  1.00  0.00     0.090 C 
HETATM    5  C5  UNL     1      15.764 -17.204  21.545  1.00  0.00     0.030 C 
HETATM    6  C6  UNL     1      16.754 -18.362  21.371  1.00  0.00     0.022 C 
HETATM    7  C7  UNL     1      16.649 -18.841  19.966  1.00  0.00     0.019 C 
HETATM    8  C8  UNL     1      15.118 -18.701  19.810  1.00  0.00     0.028 C 
HETATM    9  C9  UNL     1      14.765 -18.238  21.181  1.00  0.00    -0.001 C 
HETATM   10  C10 UNL     1      13.400 -18.081  21.627  1.00  0.00     0.049 C 
HETATM   11  C11 UNL     1      12.660 -16.839  21.298  1.00  0.00     0.150 C 
HETATM   12  C12 UNL     1      13.079 -15.594  22.018  1.00  0.00     0.169 C 
HETATM   13  C13 UNL     1      14.005 -14.673  21.310  1.00  0.00     0.108 C 
HETATM   14  C14 UNL     1      13.681 -13.293  21.841  1.00  0.00     0.034 C 
HETATM   15  N1  UNL     1      15.358 -14.884  21.283  1.00  0.00    -0.389 N 
HETATM   16  C26 UNL     1      15.641 -19.166  22.008  1.00  0.00    -0.075 C 
HETATM   17  C27 UNL     1      15.460 -20.152  22.838  1.00  0.00     0.015 C 
ENDROOT
BRANCH  15  18
HETATM   18  C15 UNL     1      16.282 -13.975  21.897  1.00  0.00     0.144 C 
HETATM   19  C16 UNL     1      17.032 -14.609  23.018  1.00  0.00     0.015 C 
HETATM   20  C17 UNL     1      18.329 -14.647  23.169  1.00  0.00    -0.025 A 
HETATM   21  C18 UNL     1      18.898 -15.298  24.272  1.00  0.00     0.051 A 
HETATM   22  C23 UNL     1      19.159 -13.996  22.288  1.00  0.00    -0.022 A 
HETATM   23  C19 UNL     1      20.244 -15.314  24.503  1.00  0.00     0.102 A 
HETATM   24  C21 UNL     1      21.058 -14.662  23.609  1.00  0.00     0.099 A 
HETATM   25  C22 UNL     1      20.541 -14.016  22.523  1.00  0.00     0.051 A 
HETATM   26  C24 UNL     1      18.650 -13.327  21.304  1.00  0.00     0.029 C 
HETATM   27  C25 UNL     1      17.199 -13.203  21.067  1.00  0.00     0.015 C 
HETATM   28 BR1  UNL     1      16.945 -13.163  19.169  1.00  0.00    -0.053 Br
BRANCH  23  29
HETATM   29  O3  UNL     1      20.792 -15.979  25.625  1.00  0.00    -0.353 OA
HETATM   30  C20 UNL     1      20.722 -15.413  26.906  1.00  0.00     0.210 C 
ENDBRANCH  23  29
BRANCH  24  31
HETATM   31  O4  UNL     1      22.453 -14.646  23.791  1.00  0.00    -0.358 OA
ATOM     32  H4  UNL     1      23.032 -14.433  23.069  1.00  0.00     0.217 HD
ENDBRANCH  24  31
ENDBRANCH  15  18
BRANCH  12  33
HETATM   33  O2  UNL     1      11.869 -14.875  22.145  1.00  0.00    -0.391 OA
ATOM     34  H2  UNL     1      11.852 -14.342  21.360  1.00  0.00     0.210 HD
ENDBRANCH  12  33
BRANCH  11  35
HETATM   35  O1  UNL     1      11.325 -17.185  21.675  1.00  0.00    -0.393 OA
ATOM     36  H1  UNL     1      11.323 -18.125  21.539  1.00  0.00     0.210 HD
ENDBRANCH  11  35
TORSDOF 5
ENDMDL
MODEL 3
REMARK VINA RESULT: -7.770196049      5.818      8.431
REMARK  5 active torsions:
REMARK  status: ('A' for Active; 'I' for Inactive)
REMARK    1  A    between atoms: C11_11  and  O1_12 
REMARK    2  A    between atoms: C12_14  and  O2_15 
REMARK    3  A    between atoms: N1_19  and  C15_20 
REMARK    4  A    between atoms: C19_24  and  O3_25 
REMARK    5  A    between atoms: C21_27  and  O4_28 
ROOT
HETATM    1  C1  UNL     1      14.781 -16.810  17.527  1.00  0.00     0.015 C 
HETATM    2  C2  UNL     1      15.187 -16.801  18.784  1.00  0.00    -0.082 C 
HETATM    3  C3  UNL     1      16.119 -15.731  19.214  1.00  0.00     0.059 C 
HETATM    4  C4  UNL     1      16.219 -15.484  20.678  1.00  0.00     0.090 C 
HETATM    5  C5  UNL     1      15.470 -16.426  21.551  1.00  0.00     0.030 C 
HETATM    6  C6  UNL     1      16.005 -17.858  21.671  1.00  0.00     0.022 C 
HETATM    7  C7  UNL     1      16.059 -18.438  20.301  1.00  0.00     0.019 C 
HETATM    8  C8  UNL     1      14.753 -17.820  19.758  1.00  0.00     0.028 C 
HETATM    9  C9  UNL     1      14.283 -17.107  20.979  1.00  0.00    -0.001 C 
HETATM   10  C10 UNL     1      12.995 -16.456  21.059  1.00  0.00     0.049 C 
HETATM   11  C11 UNL     1      12.832 -15.086  20.513  1.00  0.00     0.150 C 
HETATM   12  C12 UNL     1      13.486 -13.974  21.275  1.00  0.00     0.169 C 
HETATM   13  C13 UNL     1      14.810 -13.503  20.795  1.00  0.00     0.108 C 
HETATM   14  C14 UNL     1      14.878 -12.041  21.182  1.00  0.00     0.034 C 
HETATM   15  N1  UNL     1      15.972 -14.151  21.119  1.00  0.00    -0.389 N 
HETATM   16  C26 UNL     1      14.567 -18.168  22.031  1.00  0.00    -0.075 C 
HETATM   17  C27 UNL     1      13.869 -18.933  22.819  1.00  0.00     0.015 C 
ENDROOT
BRANCH  15  18
HETATM   18  C15 UNL     1      16.990 -13.533  21.918  1.00  0.00     0.144 C 
HETATM   19  C16 UNL     1      17.252 -14.288  23.176  1.00  0.00     0.015 C 
HETATM   20  C17 UNL     1      18.410 -14.716  23.604  1.00  0.00    -0.025 A 
HETATM   21  C18 UNL     1      18.502 -15.432  24.806  1.00  0.00     0.051 A 
HETATM   22  C23 UNL     1      19.566 -14.420  22.923  1.00  0.00    -0.022 A 
HETATM   23  C19 UNL     1      19.695 -15.849  25.324  1.00  0.00     0.102 A 
HETATM   24  C21 UNL     1      20.840 -15.548  24.626  1.00  0.00     0.099 A 
HETATM   25  C22 UNL     1      20.791 -14.851  23.453  1.00  0.00     0.051 A 
HETATM   26  C24 UNL     1      19.510 -13.696  21.852  1.00  0.00     0.029 C 
HETATM   27  C25 UNL     1      18.256 -13.145  21.305  1.00  0.00     0.015 C 
HETATM   28 BR1  UNL     1      18.423 -13.162  19.397  1.00  0.00    -0.053 Br
BRANCH  23  29
HETATM   29  O3  UNL     1      19.760 -16.570  26.539  1.00  0.00    -0.353 OA
HETATM   30  C20 UNL     1      18.907 -17.654  26.783  1.00  0.00     0.210 C 
ENDBRANCH  23  29
BRANCH  24  31
HETATM   31  O4  UNL     1      22.099 -15.953  25.107  1.00  0.00    -0.358 OA
ATOM     32  H4  UNL     1      22.896 -15.669  24.675  1.00  0.00     0.217 HD
ENDBRANCH  24  31
ENDBRANCH  15  18
BRANCH  12  33
HETATM   33  O2  UNL     1      12.608 -12.886  21.068  1.00  0.00    -0.391 OA
ATOM     34  H2  UNL     1      11.777 -13.217  21.385  1.00  0.00     0.210 HD
ENDBRANCH  12  33
BRANCH  11  35
HETATM   35  O1  UNL     1      11.412 -14.924  20.550  1.00  0.00    -0.393 OA
ATOM     36  H1  UNL     1      11.320 -14.144  21.085  1.00  0.00     0.210 HD
ENDBRANCH  11  35
TORSDOF 5
ENDMDL
MODEL 4
REMARK VINA RESULT: -7.519035298      6.361      9.435
REMARK  5 active torsions:
REMARK  status: ('A' for Active; 'I' for Inactive)
REMARK    1  A    between atoms: C11_11  and  O1_12 
REMARK    2  A    between atoms: C12_14  and  O2_15 
REMARK    3  A    between atoms: N1_19  and  C15_20 
REMARK    4  A    between atoms: C19_24  and  O3_25 
REMARK    5  A    between atoms: C21_27  and  O4_28 
ROOT
HETATM    1  C1  UNL     1      18.906 -19.541  20.947  1.00  0.00     0.015 C 
HETATM    2  C2  UNL     1      18.265 -18.425  21.243  1.00  0.00    -0.082 C 
HETATM    3  C3  UNL     1      17.014 -18.116  20.510  1.00  0.00     0.059 C 
HETATM    4  C4  UNL     1      16.105 -17.118  21.135  1.00  0.00     0.090 C 
HETATM    5  C5  UNL     1      16.617 -16.446  22.358  1.00  0.00     0.030 C 
HETATM    6  C6  UNL     1      17.752 -15.429  22.186  1.00  0.00     0.022 C 
HETATM    7  C7  UNL     1      18.891 -16.129  21.530  1.00  0.00     0.019 C 
HETATM    8  C8  UNL     1      18.759 -17.481  22.264  1.00  0.00     0.028 C 
HETATM    9  C9  UNL     1      17.624 -17.165  23.175  1.00  0.00    -0.001 C 
HETATM   10  C10 UNL     1      17.171 -18.072  24.206  1.00  0.00     0.049 C 
HETATM   11  C11 UNL     1      16.244 -19.175  23.856  1.00  0.00     0.150 C 
HETATM   12  C12 UNL     1      14.835 -18.790  23.521  1.00  0.00     0.169 C 
HETATM   13  C13 UNL     1      14.483 -18.665  22.083  1.00  0.00     0.108 C 
HETATM   14  C14 UNL     1      13.013 -19.016  21.999  1.00  0.00     0.034 C 
HETATM   15  N1  UNL     1      14.761 -17.533  21.365  1.00  0.00    -0.389 N 
HETATM   16  C26 UNL     1      18.031 -15.774  23.634  1.00  0.00    -0.075 C 
HETATM   17  C27 UNL     1      18.420 -15.217  24.744  1.00  0.00     0.015 C 
ENDROOT
BRANCH  15  18
HETATM   18  C15 UNL     1      13.724 -16.708  20.815  1.00  0.00     0.144 C 
HETATM   19  C16 UNL     1      13.429 -15.529  21.678  1.00  0.00     0.015 C 
HETATM   20  C17 UNL     1      13.409 -14.276  21.310  1.00  0.00    -0.025 A 
HETATM   21  C18 UNL     1      13.129 -13.266  22.241  1.00  0.00     0.051 A 
HETATM   22  C23 UNL     1      13.596 -13.926  19.994  1.00  0.00    -0.022 A 
HETATM   23  C19 UNL     1      13.040 -11.949  21.892  1.00  0.00     0.102 A 
HETATM   24  C21 UNL     1      13.236 -11.617  20.573  1.00  0.00     0.099 A 
HETATM   25  C22 UNL     1      13.508 -12.572  19.637  1.00  0.00     0.051 A 
HETATM   26  C24 UNL     1      13.782 -14.849  19.106  1.00  0.00     0.029 C 
HETATM   27  C25 UNL     1      13.793 -16.291  19.419  1.00  0.00     0.015 C 
HETATM   28 BR1  UNL     1      15.078 -17.105  18.255  1.00  0.00    -0.053 Br
BRANCH  23  29
HETATM   29  O3  UNL     1      12.757 -10.949  22.852  1.00  0.00    -0.353 OA
HETATM   30  C20 UNL     1      11.534 -10.930  23.536  1.00  0.00     0.210 C 
ENDBRANCH  23  29
BRANCH  24  31
HETATM   31  O4  UNL     1      13.160 -10.276  20.153  1.00  0.00    -0.358 OA
ATOM     32  H4  UNL     1      13.655  -9.977  19.400  1.00  0.00     0.217 HD
ENDBRANCH  24  31
ENDBRANCH  15  18
BRANCH  12  33
HETATM   33  O2  UNL     1      14.083 -19.891  23.991  1.00  0.00    -0.391 OA
ATOM     34  H2  UNL     1      13.582 -20.150  23.227  1.00  0.00     0.210 HD
ENDBRANCH  12  33
BRANCH  11  35
HETATM   35  O1  UNL     1      16.256 -19.958  25.052  1.00  0.00    -0.393 OA
ATOM     36  H1  UNL     1      15.348 -20.229  25.116  1.00  0.00     0.210 HD
ENDBRANCH  11  35
TORSDOF 5
ENDMDL
MODEL 5
REMARK VINA RESULT: -7.448935823      7.949     10.797
REMARK  5 active torsions:
REMARK  status: ('A' for Active; 'I' for Inactive)
REMARK    1  A    between atoms: C11_11  and  O1_12 
REMARK    2  A    between atoms: C12_14  and  O2_15 
REMARK    3  A    between atoms: N1_19  and  C15_20 
REMARK    4  A    between atoms: C19_24  and  O3_25 
REMARK    5  A    between atoms: C21_27  and  O4_28 
ROOT
HETATM    1  C1  UNL     1      17.534 -18.580  21.105  1.00  0.00     0.015 C 
HETATM    2  C2  UNL     1      16.378 -17.942  21.129  1.00  0.00    -0.082 C 
HETATM    3  C3  UNL     1      16.354 -16.513  20.736  1.00  0.00     0.059 C 
HETATM    4  C4  UNL     1      15.031 -15.947  20.360  1.00  0.00     0.090 C 
HETATM    5  C5  UNL     1      13.860 -16.846  20.546  1.00  0.00     0.030 C 
HETATM    6  C6  UNL     1      13.418 -17.144  21.984  1.00  0.00     0.022 C 
HETATM    7  C7  UNL     1      14.580 -17.739  22.701  1.00  0.00     0.019 C 
HETATM    8  C8  UNL     1      15.124 -18.602  21.541  1.00  0.00     0.028 C 
HETATM    9  C9  UNL     1      14.096 -18.309  20.504  1.00  0.00    -0.001 C 
HETATM   10  C10 UNL     1      14.055 -18.988  19.229  1.00  0.00     0.049 C 
HETATM   11  C11 UNL     1      14.928 -18.524  18.123  1.00  0.00     0.150 C 
HETATM   12  C12 UNL     1      14.568 -17.218  17.483  1.00  0.00     0.169 C 
HETATM   13  C13 UNL     1      15.298 -16.008  17.941  1.00  0.00     0.108 C 
HETATM   14  C14 UNL     1      15.328 -15.083  16.744  1.00  0.00     0.034 C 
HETATM   15  N1  UNL     1      14.939 -15.332  19.077  1.00  0.00    -0.389 N 
HETATM   16  C26 UNL     1      12.835 -18.389  21.349  1.00  0.00    -0.075 C 
HETATM   17  C27 UNL     1      11.799 -19.172  21.437  1.00  0.00     0.015 C 
ENDROOT
BRANCH  15  18
HETATM   18  C15 UNL     1      14.452 -13.984  19.037  1.00  0.00     0.144 C 
HETATM   19  C16 UNL     1      13.316 -13.770  19.978  1.00  0.00     0.015 C 
HETATM   20  C17 UNL     1      13.225 -12.844  20.895  1.00  0.00    -0.025 A 
HETATM   21  C18 UNL     1      12.096 -12.774  21.724  1.00  0.00     0.051 A 
HETATM   22  C23 UNL     1      14.197 -11.882  21.024  1.00  0.00    -0.022 A 
HETATM   23  C19 UNL     1      11.928 -11.791  22.656  1.00  0.00     0.102 A 
HETATM   24  C21 UNL     1      12.914 -10.840  22.775  1.00  0.00     0.099 A 
HETATM   25  C22 UNL     1      14.027 -10.874  21.984  1.00  0.00     0.051 A 
HETATM   26  C24 UNL     1      15.211 -11.885  20.219  1.00  0.00     0.029 C 
HETATM   27  C25 UNL     1      15.390 -12.871  19.137  1.00  0.00     0.015 C 
HETATM   28 BR1  UNL     1      17.270 -13.207  18.992  1.00  0.00    -0.053 Br
BRANCH  23  29
HETATM   29  O3  UNL     1      10.779 -11.743  23.480  1.00  0.00    -0.353 OA
HETATM   30  C20 UNL     1      10.793 -12.289  24.771  1.00  0.00     0.210 C 
ENDBRANCH  23  29
BRANCH  24  31
HETATM   31  O4  UNL     1      12.800  -9.804  23.719  1.00  0.00    -0.358 OA
ATOM     32  H4  UNL     1      13.553  -9.271  23.945  1.00  0.00     0.217 HD
ENDBRANCH  24  31
ENDBRANCH  15  18
BRANCH  12  33
HETATM   33  O2  UNL     1      14.964 -17.402  16.138  1.00  0.00    -0.391 OA
ATOM     34  H2  UNL     1      14.328 -18.027  15.811  1.00  0.00     0.210 HD
ENDBRANCH  12  33
BRANCH  11  35
HETATM   35  O1  UNL     1      14.781 -19.582  17.172  1.00  0.00    -0.393 OA
ATOM     36  H1  UNL     1      15.403 -20.222  17.497  1.00  0.00     0.210 HD
ENDBRANCH  11  35
TORSDOF 5
ENDMDL
