MODEL 1
REMARK VINA RESULT: -8.520432424      0.000      0.000
REMARK  5 active torsions:
REMARK  status: ('A' for Active; 'I' for Inactive)
REMARK       I    between atoms: C2_2  and  N1_4 
REMARK    1  A    between atoms: N1_4  and  C4_6 
REMARK    2  A    between atoms: C13_15  and  C30_40 
REMARK    3  A    between atoms: C16_18  and  O2_19 
REMARK    4  A    between atoms: C17_21  and  O3_22 
REMARK    5  A    between atoms: C18_24  and  O4_25 
ROOT
HETATM    1  C4  UNL     1      16.533 -14.329  20.738  1.00  0.00     0.069 C 
HETATM    2  C5  UNL     1      16.545 -15.057  22.053  1.00  0.00     0.041 C 
HETATM    3  C6  UNL     1      15.641 -13.180  20.965  1.00  0.00     0.071 C 
HETATM    4  C7  UNL     1      14.500 -12.852  19.912  1.00  0.00    -0.056 C 
HETATM    5  C8  UNL     1      13.293 -12.494  20.086  1.00  0.00     0.007 C 
HETATM    6  C9  UNL     1      12.628 -12.337  21.422  1.00  0.00     0.001 C 
HETATM    7  C10 UNL     1      12.408 -13.321  22.285  1.00  0.00    -0.000 C 
HETATM    8  C11 UNL     1      12.588 -14.719  22.483  1.00  0.00    -0.003 C 
HETATM    9  C12 UNL     1      12.706 -15.940  22.139  1.00  0.00    -0.010 C 
HETATM   10  C13 UNL     1      12.763 -17.029  21.125  1.00  0.00     0.036 C 
HETATM   11  C14 UNL     1      11.553 -17.878  21.382  1.00  0.00    -0.011 C 
HETATM   12  C15 UNL     1      10.825 -18.582  20.593  1.00  0.00     0.004 C 
HETATM   13  C16 UNL     1      11.155 -18.628  19.160  1.00  0.00     0.172 C 
HETATM   14  C17 UNL     1      11.857 -17.424  18.766  1.00  0.00     0.189 C 
HETATM   15  C18 UNL     1      12.821 -16.712  19.683  1.00  0.00     0.138 C 
HETATM   16  C19 UNL     1      14.217 -16.646  19.088  1.00  0.00     0.319 C 
HETATM   17  C20 UNL     1      14.657 -17.928  18.380  1.00  0.00     0.109 C 
HETATM   18  F1  UNL     1      14.261 -18.126  17.114  1.00  0.00    -0.213 F 
HETATM   19  C21 UNL     1      14.626 -19.104  19.306  1.00  0.00     0.080 C 
HETATM   20  C22 UNL     1      14.784 -18.572  20.632  1.00  0.00     0.000 C 
HETATM   21  C23 UNL     1      15.955 -17.530  20.519  1.00  0.00     0.285 C 
HETATM   22  N2  UNL     1      15.324 -16.364  19.994  1.00  0.00     0.114 N 
HETATM   23  C24 UNL     1      16.276 -15.365  19.509  1.00  0.00     0.275 C 
HETATM   24  C25 UNL     1      15.562 -14.387  18.868  1.00  0.00     0.012 C 
HETATM   25  C26 UNL     1      15.080 -13.679  18.971  1.00  0.00     0.005 C 
HETATM   26  C27 UNL     1      15.020 -19.671  21.644  1.00  0.00    -0.007 C 
HETATM   27  C28 UNL     1      16.001 -19.424  22.724  1.00  0.00     0.011 C 
HETATM   28  C29 UNL     1      13.533 -19.372  22.007  1.00  0.00     0.012 C 
HETATM   29  C30 UNL     1      13.863 -17.977  21.533  1.00  0.00     0.016 C 
ENDROOT
BRANCH   1  30
HETATM   30  N1  UNL     1      17.915 -13.930  20.552  1.00  0.00    -0.345 N 
HETATM   31  C2  UNL     1      18.516 -13.096  19.616  1.00  0.00     0.216 C 
HETATM   32  C1  UNL     1      20.027 -12.959  19.639  1.00  0.00     0.117 C 
HETATM   33  O1  UNL     1      17.981 -12.437  18.744  1.00  0.00    -0.274 OA
HETATM   34  C3  UNL     1      18.920 -14.513  21.515  1.00  0.00     0.153 C 
ENDBRANCH   1  30
BRANCH  15  35
HETATM   35  O4  UNL     1      12.261 -15.451  19.614  1.00  0.00    -0.383 OA
ATOM     36  H4  UNL     1      11.606 -15.541  18.932  1.00  0.00     0.210 HD
ENDBRANCH  15  35
BRANCH  14  37
HETATM   37  O3  UNL     1      10.699 -16.554  18.517  1.00  0.00    -0.390 OA
ATOM     38  H3  UNL     1      10.870 -16.336  17.608  1.00  0.00     0.210 HD
ENDBRANCH  14  37
BRANCH  13  39
HETATM   39  O2  UNL     1       9.923 -18.738  18.472  1.00  0.00    -0.389 OA
ATOM     40  H2  UNL     1      10.136 -18.994  17.582  1.00  0.00     0.210 HD
ENDBRANCH  13  39
TORSDOF 5
ENDMDL
MODEL 2
REMARK VINA RESULT: -8.018130843      4.893      7.462
REMARK  5 active torsions:
REMARK  status: ('A' for Active; 'I' for Inactive)
REMARK       I    between atoms: C2_2  and  N1_4 
REMARK    1  A    between atoms: N1_4  and  C4_6 
REMARK    2  A    between atoms: C13_15  and  C30_40 
REMARK    3  A    between atoms: C16_18  and  O2_19 
REMARK    4  A    between atoms: C17_21  and  O3_22 
REMARK    5  A    between atoms: C18_24  and  O4_25 
ROOT
HETATM    1  C4  UNL     1      19.071 -15.350  21.921  1.00  0.00     0.069 C 
HETATM    2  C5  UNL     1      20.009 -16.301  21.230  1.00  0.00     0.041 C 
HETATM    3  C6  UNL     1      19.952 -14.497  22.735  1.00  0.00     0.071 C 
HETATM    4  C7  UNL     1      19.597 -14.232  24.259  1.00  0.00    -0.056 C 
HETATM    5  C8  UNL     1      20.344 -14.194  25.287  1.00  0.00     0.007 C 
HETATM    6  C9  UNL     1      21.821 -14.456  25.286  1.00  0.00     0.001 C 
HETATM    7  C10 UNL     1      22.390 -15.614  24.977  1.00  0.00    -0.000 C 
HETATM    8  C11 UNL     1      22.103 -16.948  24.571  1.00  0.00    -0.003 C 
HETATM    9  C12 UNL     1      21.418 -18.018  24.484  1.00  0.00    -0.010 C 
HETATM   10  C13 UNL     1      20.214 -18.846  24.772  1.00  0.00     0.036 C 
HETATM   11  C14 UNL     1      20.701 -19.978  25.628  1.00  0.00    -0.011 C 
HETATM   12  C15 UNL     1      20.120 -20.656  26.550  1.00  0.00     0.004 C 
HETATM   13  C16 UNL     1      18.727 -20.343  26.904  1.00  0.00     0.172 C 
HETATM   14  C17 UNL     1      18.428 -18.960  26.598  1.00  0.00     0.189 C 
HETATM   15  C18 UNL     1      19.025 -18.246  25.411  1.00  0.00     0.138 C 
HETATM   16  C19 UNL     1      17.951 -17.754  24.454  1.00  0.00     0.319 C 
HETATM   17  C20 UNL     1      16.802 -18.740  24.243  1.00  0.00     0.109 C 
HETATM   18  F1  UNL     1      15.811 -18.768  25.145  1.00  0.00    -0.213 F 
HETATM   19  C21 UNL     1      17.295 -20.052  23.716  1.00  0.00     0.080 C 
HETATM   20  C22 UNL     1      18.529 -19.771  23.035  1.00  0.00     0.000 C 
HETATM   21  C23 UNL     1      18.236 -18.491  22.169  1.00  0.00     0.285 C 
HETATM   22  N2  UNL     1      18.361 -17.415  23.097  1.00  0.00     0.114 N 
HETATM   23  C24 UNL     1      17.824 -16.154  22.589  1.00  0.00     0.275 C 
HETATM   24  C25 UNL     1      17.830 -15.253  23.621  1.00  0.00     0.012 C 
HETATM   25  C26 UNL     1      18.314 -14.706  24.081  1.00  0.00     0.005 C 
HETATM   26  C27 UNL     1      19.007 -20.966  22.242  1.00  0.00    -0.007 C 
HETATM   27  C28 UNL     1      19.611 -20.724  20.913  1.00  0.00     0.011 C 
HETATM   28  C29 UNL     1      20.017 -21.084  23.426  1.00  0.00     0.012 C 
HETATM   29  C30 UNL     1      19.854 -19.585  23.507  1.00  0.00     0.016 C 
ENDROOT
BRANCH   1  30
HETATM   30  N1  UNL     1      18.452 -14.624  20.829  1.00  0.00    -0.345 N 
HETATM   31  C2  UNL     1      18.928 -13.603  20.014  1.00  0.00     0.216 C 
HETATM   32  C1  UNL     1      17.976 -12.984  19.006  1.00  0.00     0.117 C 
HETATM   33  O1  UNL     1      20.042 -13.113  19.995  1.00  0.00    -0.274 OA
HETATM   34  C3  UNL     1      17.030 -14.999  20.491  1.00  0.00     0.153 C 
ENDBRANCH   1  30
BRANCH  15  35
HETATM   35  O4  UNL     1      19.543 -17.153  26.079  1.00  0.00    -0.383 OA
ATOM     36  H4  UNL     1      20.227 -17.533  26.618  1.00  0.00     0.210 HD
ENDBRANCH  15  35
BRANCH  14  37
HETATM   37  O3  UNL     1      18.927 -18.339  27.834  1.00  0.00    -0.390 OA
ATOM     38  H3  UNL     1      18.147 -18.424  28.368  1.00  0.00     0.210 HD
ENDBRANCH  14  37
BRANCH  13  39
HETATM   39  O2  UNL     1      18.605 -20.589  28.293  1.00  0.00    -0.389 OA
ATOM     40  H2  UNL     1      18.031 -21.341  28.382  1.00  0.00     0.210 HD
ENDBRANCH  13  39
TORSDOF 5
ENDMDL
MODEL 3
REMARK VINA RESULT: -7.979701623      2.621      4.892
REMARK  5 active torsions:
REMARK  status: ('A' for Active; 'I' for Inactive)
REMARK       I    between atoms: C2_2  and  N1_4 
REMARK    1  A    between atoms: N1_4  and  C4_6 
REMARK    2  A    between atoms: C13_15  and  C30_40 
REMARK    3  A    between atoms: C16_18  and  O2_19 
REMARK    4  A    between atoms: C17_21  and  O3_22 
REMARK    5  A    between atoms: C18_24  and  O4_25 
ROOT
HETATM    1  C4  UNL     1      13.516 -13.017  21.229  1.00  0.00     0.069 C 
HETATM    2  C5  UNL     1      12.553 -13.280  20.104  1.00  0.00     0.041 C 
HETATM    3  C6  UNL     1      14.660 -12.354  20.582  1.00  0.00     0.071 C 
HETATM    4  C7  UNL     1      16.133 -12.852  20.893  1.00  0.00    -0.056 C 
HETATM    5  C8  UNL     1      17.130 -13.020  20.122  1.00  0.00     0.007 C 
HETATM    6  C9  UNL     1      17.110 -12.811  18.636  1.00  0.00     0.001 C 
HETATM    7  C10 UNL     1      16.388 -13.518  17.776  1.00  0.00    -0.000 C 
HETATM    8  C11 UNL     1      15.454 -14.588  17.688  1.00  0.00    -0.003 C 
HETATM    9  C12 UNL     1      14.895 -15.679  18.034  1.00  0.00    -0.010 C 
HETATM   10  C13 UNL     1      14.745 -16.866  18.921  1.00  0.00     0.036 C 
HETATM   11  C14 UNL     1      15.089 -18.050  18.066  1.00  0.00    -0.011 C 
HETATM   12  C15 UNL     1      15.614 -19.184  18.358  1.00  0.00     0.004 C 
HETATM   13  C16 UNL     1      15.981 -19.469  19.754  1.00  0.00     0.172 C 
HETATM   14  C17 UNL     1      16.252 -18.237  20.465  1.00  0.00     0.189 C 
HETATM   15  C18 UNL     1      15.500 -16.959  20.186  1.00  0.00     0.138 C 
HETATM   16  C19 UNL     1      14.768 -16.459  21.420  1.00  0.00     0.319 C 
HETATM   17  C20 UNL     1      14.101 -17.563  22.242  1.00  0.00     0.109 C 
HETATM   18  F1  UNL     1      14.852 -18.247  23.118  1.00  0.00    -0.213 F 
HETATM   19  C21 UNL     1      13.114 -18.335  21.425  1.00  0.00     0.080 C 
HETATM   20  C22 UNL     1      12.683 -17.450  20.377  1.00  0.00     0.000 C 
HETATM   21  C23 UNL     1      12.403 -16.077  21.090  1.00  0.00     0.285 C 
HETATM   22  N2  UNL     1      13.696 -15.491  21.221  1.00  0.00     0.114 N 
HETATM   23  C24 UNL     1      13.719 -14.351  22.138  1.00  0.00     0.275 C 
HETATM   24  C25 UNL     1      15.028 -13.994  22.324  1.00  0.00     0.012 C 
HETATM   25  C26 UNL     1      15.700 -13.566  21.991  1.00  0.00     0.005 C 
HETATM   26  C27 UNL     1      11.500 -18.018  19.625  1.00  0.00    -0.007 C 
HETATM   27  C28 UNL     1      10.427 -17.088  19.212  1.00  0.00     0.011 C 
HETATM   28  C29 UNL     1      12.589 -18.307  18.546  1.00  0.00     0.012 C 
HETATM   29  C30 UNL     1      13.268 -17.093  19.134  1.00  0.00     0.016 C 
ENDROOT
BRANCH   1  30
HETATM   30  N1  UNL     1      12.782 -12.125  22.107  1.00  0.00    -0.345 N 
HETATM   31  C2  UNL     1      12.998 -10.799  22.462  1.00  0.00     0.216 C 
HETATM   32  C1  UNL     1      12.082 -10.173  23.498  1.00  0.00     0.117 C 
HETATM   33  O1  UNL     1      13.853 -10.039  22.047  1.00  0.00    -0.274 OA
HETATM   34  C3  UNL     1      11.569 -12.703  22.794  1.00  0.00     0.153 C 
ENDBRANCH   1  30
BRANCH  15  35
HETATM   35  O4  UNL     1      16.588 -16.136  19.966  1.00  0.00    -0.383 OA
ATOM     36  H4  UNL     1      16.188 -15.302  19.747  1.00  0.00     0.210 HD
ENDBRANCH  15  35
BRANCH  14  37
HETATM   37  O3  UNL     1      17.661 -18.059  20.085  1.00  0.00    -0.390 OA
ATOM     38  H3  UNL     1      17.537 -17.584  19.272  1.00  0.00     0.210 HD
ENDBRANCH  14  37
BRANCH  13  39
HETATM   39  O2  UNL     1      17.137 -20.284  19.703  1.00  0.00    -0.389 OA
ATOM     40  H2  UNL     1      17.347 -20.391  18.782  1.00  0.00     0.210 HD
ENDBRANCH  13  39
TORSDOF 5
ENDMDL
MODEL 4
REMARK VINA RESULT: -7.788169292      5.152      8.071
REMARK  5 active torsions:
REMARK  status: ('A' for Active; 'I' for Inactive)
REMARK       I    between atoms: C2_2  and  N1_4 
REMARK    1  A    between atoms: N1_4  and  C4_6 
REMARK    2  A    between atoms: C13_15  and  C30_40 
REMARK    3  A    between atoms: C16_18  and  O2_19 
REMARK    4  A    between atoms: C17_21  and  O3_22 
REMARK    5  A    between atoms: C18_24  and  O4_25 
ROOT
HETATM    1  C4  UNL     1      18.183 -15.489  21.914  1.00  0.00     0.069 C 
HETATM    2  C5  UNL     1      17.898 -14.707  23.166  1.00  0.00     0.041 C 
HETATM    3  C6  UNL     1      17.086 -16.468  21.839  1.00  0.00     0.071 C 
HETATM    4  C7  UNL     1      17.416 -17.995  21.560  1.00  0.00    -0.056 C 
HETATM    5  C8  UNL     1      16.933 -19.053  22.074  1.00  0.00     0.007 C 
HETATM    6  C9  UNL     1      15.904 -19.084  23.166  1.00  0.00     0.001 C 
HETATM    7  C10 UNL     1      16.086 -18.629  24.399  1.00  0.00    -0.000 C 
HETATM    8  C11 UNL     1      17.043 -18.006  25.250  1.00  0.00    -0.003 C 
HETATM    9  C12 UNL     1      18.206 -17.721  25.684  1.00  0.00    -0.010 C 
HETATM   10  C13 UNL     1      19.692 -17.817  25.650  1.00  0.00     0.036 C 
HETATM   11  C14 UNL     1      20.078 -18.510  26.923  1.00  0.00    -0.011 C 
HETATM   12  C15 UNL     1      21.061 -19.286  27.203  1.00  0.00     0.004 C 
HETATM   13  C16 UNL     1      22.040 -19.615  26.155  1.00  0.00     0.172 C 
HETATM   14  C17 UNL     1      21.429 -19.513  24.846  1.00  0.00     0.189 C 
HETATM   15  C18 UNL     1      20.377 -18.481  24.522  1.00  0.00     0.138 C 
HETATM   16  C19 UNL     1      20.820 -17.561  23.398  1.00  0.00     0.319 C 
HETATM   17  C20 UNL     1      22.289 -17.142  23.475  1.00  0.00     0.109 C 
HETATM   18  F1  UNL     1      23.218 -17.979  22.990  1.00  0.00    -0.213 F 
HETATM   19  C21 UNL     1      22.593 -16.444  24.764  1.00  0.00     0.080 C 
HETATM   20  C22 UNL     1      21.351 -15.876  25.213  1.00  0.00     0.000 C 
HETATM   21  C23 UNL     1      20.722 -15.206  23.938  1.00  0.00     0.285 C 
HETATM   22  N2  UNL     1      20.115 -16.294  23.245  1.00  0.00     0.114 N 
HETATM   23  C24 UNL     1      19.739 -15.962  21.871  1.00  0.00     0.275 C 
HETATM   24  C25 UNL     1      19.344 -17.120  21.256  1.00  0.00     0.012 C 
HETATM   25  C26 UNL     1      18.697 -17.682  21.153  1.00  0.00     0.005 C 
HETATM   26  C27 UNL     1      21.563 -14.933  26.375  1.00  0.00    -0.007 C 
HETATM   27  C28 UNL     1      20.763 -13.689  26.418  1.00  0.00     0.011 C 
HETATM   28  C29 UNL     1      20.982 -16.132  27.186  1.00  0.00     0.012 C 
HETATM   29  C30 UNL     1      20.245 -16.436  25.903  1.00  0.00     0.016 C 
ENDROOT
BRANCH   1  30
HETATM   30  N1  UNL     1      18.109 -14.493  20.862  1.00  0.00    -0.345 N 
HETATM   31  C2  UNL     1      17.038 -14.030  20.105  1.00  0.00     0.216 C 
HETATM   32  C1  UNL     1      17.319 -13.030  18.998  1.00  0.00     0.117 C 
HETATM   33  O1  UNL     1      15.862 -14.327  20.205  1.00  0.00    -0.274 OA
HETATM   34  C3  UNL     1      19.405 -13.825  20.475  1.00  0.00     0.153 C 
ENDBRANCH   1  30
BRANCH  15  35
HETATM   35  O4  UNL     1      19.411 -19.336  24.026  1.00  0.00    -0.383 OA
ATOM     36  H4  UNL     1      19.845 -20.181  24.032  1.00  0.00     0.210 HD
ENDBRANCH  15  35
BRANCH  14  37
HETATM   37  O3  UNL     1      20.829 -20.853  24.768  1.00  0.00    -0.390 OA
ATOM     38  H3  UNL     1      21.276 -21.258  25.502  1.00  0.00     0.210 HD
ENDBRANCH  14  37
BRANCH  13  39
HETATM   39  O2  UNL     1      22.464 -20.941  26.409  1.00  0.00    -0.389 OA
ATOM     40  H2  UNL     1      22.686 -20.978  27.332  1.00  0.00     0.210 HD
ENDBRANCH  13  39
TORSDOF 5
ENDMDL
MODEL 5
REMARK VINA RESULT: -7.769944490      7.351     10.255
REMARK  5 active torsions:
REMARK  status: ('A' for Active; 'I' for Inactive)
REMARK       I    between atoms: C2_2  and  N1_4 
REMARK    1  A    between atoms: N1_4  and  C4_6 
REMARK    2  A    between atoms: C13_15  and  C30_40 
REMARK    3  A    between atoms: C16_18  and  O2_19 
REMARK    4  A    between atoms: C17_21  and  O3_22 
REMARK    5  A    between atoms: C18_24  and  O4_25 
ROOT
HETATM    1  C4  UNL     1      22.397 -20.283  23.221  1.00  0.00     0.069 C 
HETATM    2  C5  UNL     1      21.583 -20.827  24.362  1.00  0.00     0.041 C 
HETATM    3  C6  UNL     1      23.767 -20.210  23.753  1.00  0.00     0.071 C 
HETATM    4  C7  UNL     1      24.616 -18.884  23.555  1.00  0.00    -0.056 C 
HETATM    5  C8  UNL     1      25.386 -18.268  24.357  1.00  0.00     0.007 C 
HETATM    6  C9  UNL     1      25.640 -18.667  25.781  1.00  0.00     0.001 C 
HETATM    7  C10 UNL     1      24.728 -18.679  26.745  1.00  0.00    -0.000 C 
HETATM    8  C11 UNL     1      23.354 -18.418  27.011  1.00  0.00    -0.003 C 
HETATM    9  C12 UNL     1      22.225 -17.848  26.859  1.00  0.00    -0.010 C 
HETATM   10  C13 UNL     1      21.312 -16.876  26.198  1.00  0.00     0.036 C 
HETATM   11  C14 UNL     1      20.965 -15.869  27.256  1.00  0.00    -0.011 C 
HETATM   12  C15 UNL     1      20.680 -14.620  27.179  1.00  0.00     0.004 C 
HETATM   13  C16 UNL     1      20.666 -13.966  25.861  1.00  0.00     0.172 C 
HETATM   14  C17 UNL     1      21.547 -14.659  24.945  1.00  0.00     0.189 C 
HETATM   15  C18 UNL     1      21.735 -16.156  24.980  1.00  0.00     0.138 C 
HETATM   16  C19 UNL     1      21.328 -16.803  23.667  1.00  0.00     0.319 C 
HETATM   17  C20 UNL     1      20.058 -16.217  23.048  1.00  0.00     0.109 C 
HETATM   18  F1  UNL     1      20.163 -15.096  22.319  1.00  0.00    -0.213 F 
HETATM   19  C21 UNL     1      18.891 -16.331  23.977  1.00  0.00     0.080 C 
HETATM   20  C22 UNL     1      19.177 -17.442  24.844  1.00  0.00     0.000 C 
HETATM   21  C23 UNL     1      19.701 -18.579  23.892  1.00  0.00     0.285 C 
HETATM   22  N2  UNL     1      21.069 -18.238  23.675  1.00  0.00     0.114 N 
HETATM   23  C24 UNL     1      21.675 -18.979  22.569  1.00  0.00     0.275 C 
HETATM   24  C25 UNL     1      22.914 -18.440  22.339  1.00  0.00     0.012 C 
HETATM   25  C26 UNL     1      23.737 -18.420  22.598  1.00  0.00     0.005 C 
HETATM   26  C27 UNL     1      17.970 -17.824  25.670  1.00  0.00    -0.007 C 
HETATM   27  C28 UNL     1      17.708 -19.262  25.896  1.00  0.00     0.011 C 
HETATM   28  C29 UNL     1      18.772 -17.104  26.797  1.00  0.00     0.012 C 
HETATM   29  C30 UNL     1      19.979 -17.556  26.010  1.00  0.00     0.016 C 
ENDROOT
BRANCH   1  30
HETATM   30  N1  UNL     1      22.257 -21.291  22.187  1.00  0.00    -0.345 N 
HETATM   31  C2  UNL     1      23.173 -21.819  21.285  1.00  0.00     0.216 C 
HETATM   32  C1  UNL     1      22.675 -22.812  20.251  1.00  0.00     0.117 C 
HETATM   33  O1  UNL     1      24.365 -21.587  21.201  1.00  0.00    -0.274 OA
HETATM   34  C3  UNL     1      20.883 -21.891  22.013  1.00  0.00     0.153 C 
ENDBRANCH   1  30
BRANCH  15  35
HETATM   35  O4  UNL     1      23.114 -16.178  25.063  1.00  0.00    -0.383 OA
ATOM     36  H4  UNL     1      23.280 -16.817  25.746  1.00  0.00     0.210 HD
ENDBRANCH  15  35
BRANCH  14  37
HETATM   37  O3  UNL     1      22.813 -14.006  25.305  1.00  0.00    -0.390 OA
ATOM     38  H3  UNL     1      23.297 -14.770  25.596  1.00  0.00     0.210 HD
ENDBRANCH  14  37
BRANCH  13  39
HETATM   39  O2  UNL     1      21.108 -12.637  26.073  1.00  0.00    -0.389 OA
ATOM     40  H2  UNL     1      21.248 -12.262  25.212  1.00  0.00     0.210 HD
ENDBRANCH  13  39
TORSDOF 5
ENDMDL
