MODEL 1
REMARK VINA RESULT: -7.946426020      0.000      0.000
REMARK  2 active torsions:
REMARK  status: ('A' for Active; 'I' for Inactive)
REMARK       I    between atoms: C1_4  and  N3_6 
REMARK       I    between atoms: N3_6  and  C2_8 
REMARK    1  A    between atoms: C2_8  and  C3_10 
REMARK    2  A    between atoms: C6_16  and  N4_17 
REMARK       I    between atoms: N4_17  and  C7_19 
ROOT
HETATM    1  C3  UNL     1       7.983   1.215  92.578  1.00  0.00     0.116 C 
HETATM    2  C4  UNL     1       9.425   1.562  92.436  1.00  0.00     0.156 C 
HETATM    3  S1  UNL     1       9.364   3.204  91.704  1.00  0.00     0.147 S 
HETATM    4  O2  UNL     1       9.788   4.246  92.676  1.00  0.00    -0.228 OA
HETATM    5  O3  UNL     1      10.135   3.222  90.433  1.00  0.00    -0.228 OA
HETATM    6  C5  UNL     1       7.597   3.297  91.383  1.00  0.00     0.166 C 
HETATM    7  C6  UNL     1       7.231   1.848  91.439  1.00  0.00     0.113 C 
ENDROOT
BRANCH   1   8
HETATM    8  C2  UNL     1       7.420   1.554  93.897  1.00  0.00     0.231 C 
HETATM    9  N3  UNL     1       6.008   1.628  94.079  1.00  0.00    -0.301 N 
HETATM   10  C1  UNL     1       5.397   1.942  95.299  1.00  0.00     0.188 C 
ATOM     11  H3  UNL     1       5.409   1.441  93.275  1.00  0.00     0.171 HD
HETATM   12  N1  UNL     1       4.127   1.999  95.426  1.00  0.00    -0.373 N 
HETATM   13  N2  UNL     1       6.196   2.210  96.443  1.00  0.00    -0.064 NA
ATOM     14  H12 UNL     1       3.682   2.228  96.315  1.00  0.00     0.158 HD
ATOM     15  H11 UNL     1       3.553   1.807  94.605  1.00  0.00     0.158 HD
HETATM   16  O1  UNL     1       8.157   1.785  94.887  1.00  0.00    -0.273 OA
ENDBRANCH   1   8
BRANCH   7  17
HETATM   17  N4  UNL     1       7.673   1.202  90.211  1.00  0.00    -0.339 N 
HETATM   18  C7  UNL     1       6.753   0.871  89.185  1.00  0.00     0.329 C 
HETATM   19  N5  UNL     1       7.201   0.243  87.997  1.00  0.00    -0.040 NA
HETATM   20  O4  UNL     1       5.542   1.143  89.351  1.00  0.00    -0.251 OA
ATOM     21  H4  UNL     1       8.662   0.985  90.086  1.00  0.00     0.164 HD
ENDBRANCH   7  17
TORSDOF 2
ENDMDL
MODEL 2
REMARK VINA RESULT: -7.933795143      2.838      4.860
REMARK  2 active torsions:
REMARK  status: ('A' for Active; 'I' for Inactive)
REMARK       I    between atoms: C1_4  and  N3_6 
REMARK       I    between atoms: N3_6  and  C2_8 
REMARK    1  A    between atoms: C2_8  and  C3_10 
REMARK    2  A    between atoms: C6_16  and  N4_17 
REMARK       I    between atoms: N4_17  and  C7_19 
ROOT
HETATM    1  C3  UNL     1       8.146   1.697  91.024  1.00  0.00     0.116 C 
HETATM    2  C4  UNL     1       9.231   1.075  91.833  1.00  0.00     0.156 C 
HETATM    3  S1  UNL     1       8.491   0.968  93.469  1.00  0.00     0.147 S 
HETATM    4  O2  UNL     1       8.181  -0.439  93.833  1.00  0.00    -0.228 OA
HETATM    5  O3  UNL     1       9.349   1.668  94.462  1.00  0.00    -0.228 OA
HETATM    6  C5  UNL     1       6.986   1.902  93.151  1.00  0.00     0.166 C 
HETATM    7  C6  UNL     1       7.378   2.639  91.910  1.00  0.00     0.113 C 
ENDROOT
BRANCH   1   8
HETATM    8  C2  UNL     1       7.283   0.718  90.341  1.00  0.00     0.231 C 
HETATM    9  N3  UNL     1       5.955   1.072  89.961  1.00  0.00    -0.301 N 
HETATM   10  C1  UNL     1       5.074   0.201  89.309  1.00  0.00     0.188 C 
ATOM     11  H3  UNL     1       5.627   2.013  90.177  1.00  0.00     0.171 HD
HETATM   12  N1  UNL     1       3.890   0.552  88.983  1.00  0.00    -0.373 N 
HETATM   13  N2  UNL     1       5.491  -1.121  88.991  1.00  0.00    -0.064 NA
ATOM     14  H12 UNL     1       3.248  -0.083  88.507  1.00  0.00     0.158 HD
ATOM     15  H11 UNL     1       3.590   1.499  89.212  1.00  0.00     0.158 HD
HETATM   16  O1  UNL     1       7.684  -0.441  90.074  1.00  0.00    -0.273 OA
ENDBRANCH   1   8
BRANCH   7  17
HETATM   17  N4  UNL     1       8.275   3.728  92.272  1.00  0.00    -0.339 N 
HETATM   18  C7  UNL     1       7.773   5.012  92.600  1.00  0.00     0.329 C 
HETATM   19  N5  UNL     1       8.659   6.060  92.950  1.00  0.00    -0.040 NA
HETATM   20  O4  UNL     1       6.535   5.200  92.574  1.00  0.00    -0.251 OA
ATOM     21  H4  UNL     1       9.282   3.564  92.290  1.00  0.00     0.164 HD
ENDBRANCH   7  17
TORSDOF 2
ENDMDL
MODEL 3
REMARK VINA RESULT: -7.899953917      3.752      4.688
REMARK  2 active torsions:
REMARK  status: ('A' for Active; 'I' for Inactive)
REMARK       I    between atoms: C1_4  and  N3_6 
REMARK       I    between atoms: N3_6  and  C2_8 
REMARK    1  A    between atoms: C2_8  and  C3_10 
REMARK    2  A    between atoms: C6_16  and  N4_17 
REMARK       I    between atoms: N4_17  and  C7_19 
ROOT
HETATM    1  C3  UNL     1       8.042   5.021  92.168  1.00  0.00     0.116 C 
HETATM    2  C4  UNL     1       6.722   4.999  92.857  1.00  0.00     0.156 C 
HETATM    3  S1  UNL     1       6.765   3.432  93.739  1.00  0.00     0.147 S 
HETATM    4  O2  UNL     1       6.895   3.639  95.205  1.00  0.00    -0.228 OA
HETATM    5  O3  UNL     1       5.595   2.598  93.354  1.00  0.00    -0.228 OA
HETATM    6  C5  UNL     1       8.284   2.765  93.042  1.00  0.00     0.166 C 
HETATM    7  C6  UNL     1       8.414   3.608  91.813  1.00  0.00     0.113 C 
ENDROOT
BRANCH   1   8
HETATM    8  C2  UNL     1       9.094   5.718  92.928  1.00  0.00     0.231 C 
HETATM    9  N3  UNL     1       8.787   6.902  93.662  1.00  0.00    -0.301 N 
HETATM   10  C1  UNL     1       9.729   7.619  94.409  1.00  0.00     0.188 C 
ATOM     11  H3  UNL     1       7.828   7.246  93.641  1.00  0.00     0.171 HD
HETATM   12  N1  UNL     1       9.419   8.677  95.054  1.00  0.00    -0.373 N 
HETATM   13  N2  UNL     1      11.078   7.174  94.463  1.00  0.00    -0.064 NA
ATOM     14  H12 UNL     1      10.106   9.200  95.599  1.00  0.00     0.158 HD
ATOM     15  H11 UNL     1       8.452   8.997  95.015  1.00  0.00     0.158 HD
HETATM   16  O1  UNL     1      10.276   5.296  92.955  1.00  0.00    -0.273 OA
ENDBRANCH   1   8
BRANCH   7  17
HETATM   17  N4  UNL     1       7.458   3.140  90.818  1.00  0.00    -0.339 N 
HETATM   18  C7  UNL     1       7.735   2.010  90.009  1.00  0.00     0.329 C 
HETATM   19  N5  UNL     1       6.795   1.570  89.047  1.00  0.00    -0.040 NA
HETATM   20  O4  UNL     1       8.826   1.414  90.162  1.00  0.00    -0.251 OA
ATOM     21  H4  UNL     1       6.572   3.635  90.702  1.00  0.00     0.164 HD
ENDBRANCH   7  17
TORSDOF 2
ENDMDL
MODEL 4
REMARK VINA RESULT: -7.895154146      2.579      3.418
REMARK  2 active torsions:
REMARK  status: ('A' for Active; 'I' for Inactive)
REMARK       I    between atoms: C1_4  and  N3_6 
REMARK       I    between atoms: N3_6  and  C2_8 
REMARK    1  A    between atoms: C2_8  and  C3_10 
REMARK    2  A    between atoms: C6_16  and  N4_17 
REMARK       I    between atoms: N4_17  and  C7_19 
ROOT
HETATM    1  C3  UNL     1       7.046   2.812  92.321  1.00  0.00     0.116 C 
HETATM    2  C4  UNL     1       6.829   1.960  93.523  1.00  0.00     0.156 C 
HETATM    3  S1  UNL     1       8.419   1.141  93.718  1.00  0.00     0.147 S 
HETATM    4  O2  UNL     1       9.150   1.653  94.907  1.00  0.00    -0.228 OA
HETATM    5  O3  UNL     1       8.234  -0.335  93.718  1.00  0.00    -0.228 OA
HETATM    6  C5  UNL     1       9.199   1.689  92.192  1.00  0.00     0.166 C 
HETATM    7  C6  UNL     1       7.997   2.097  91.401  1.00  0.00     0.113 C 
ENDROOT
BRANCH   1   8
HETATM    8  C2  UNL     1       7.478   4.184  92.640  1.00  0.00     0.231 C 
HETATM    9  N3  UNL     1       7.017   4.826  93.826  1.00  0.00    -0.301 N 
HETATM   10  C1  UNL     1       7.382   6.126  94.199  1.00  0.00     0.188 C 
ATOM     11  H3  UNL     1       6.386   4.311  94.438  1.00  0.00     0.171 HD
HETATM   12  N1  UNL     1       6.950   6.671  95.270  1.00  0.00    -0.373 N 
HETATM   13  N2  UNL     1       8.261   6.879  93.373  1.00  0.00    -0.064 NA
ATOM     14  H12 UNL     1       7.217   7.617  95.542  1.00  0.00     0.158 HD
ATOM     15  H11 UNL     1       6.320   6.131  95.863  1.00  0.00     0.158 HD
HETATM   16  O1  UNL     1       8.256   4.820  91.887  1.00  0.00    -0.273 OA
ENDBRANCH   1   8
BRANCH   7  17
HETATM   17  N4  UNL     1       7.321   0.899  90.919  1.00  0.00    -0.339 N 
HETATM   18  C7  UNL     1       6.667   0.883  89.662  1.00  0.00     0.329 C 
HETATM   19  N5  UNL     1       6.015  -0.289  89.209  1.00  0.00    -0.040 NA
HETATM   20  O4  UNL     1       6.676   1.923  88.965  1.00  0.00    -0.251 OA
ATOM     21  H4  UNL     1       7.320   0.058  91.496  1.00  0.00     0.164 HD
ENDBRANCH   7  17
TORSDOF 2
ENDMDL
MODEL 5
REMARK VINA RESULT: -7.796259044      3.902      4.984
REMARK  2 active torsions:
REMARK  status: ('A' for Active; 'I' for Inactive)
REMARK       I    between atoms: C1_4  and  N3_6 
REMARK       I    between atoms: N3_6  and  C2_8 
REMARK    1  A    between atoms: C2_8  and  C3_10 
REMARK    2  A    between atoms: C6_16  and  N4_17 
REMARK       I    between atoms: N4_17  and  C7_19 
ROOT
HETATM    1  C3  UNL     1       7.917   5.210  92.355  1.00  0.00     0.116 C 
HETATM    2  C4  UNL     1       6.572   5.009  92.961  1.00  0.00     0.156 C 
HETATM    3  S1  UNL     1       6.747   3.425  93.794  1.00  0.00     0.147 S 
HETATM    4  O2  UNL     1       6.767   3.590  95.272  1.00  0.00    -0.228 OA
HETATM    5  O3  UNL     1       5.706   2.479  93.313  1.00  0.00    -0.228 OA
HETATM    6  C5  UNL     1       8.370   2.964  93.171  1.00  0.00     0.166 C 
HETATM    7  C6  UNL     1       8.471   3.862  91.979  1.00  0.00     0.113 C 
ENDROOT
BRANCH   1   8
HETATM    8  C2  UNL     1       8.836   5.992  93.200  1.00  0.00     0.231 C 
HETATM    9  N3  UNL     1      10.214   6.104  92.853  1.00  0.00    -0.301 N 
HETATM   10  C1  UNL     1      11.148   6.829  93.603  1.00  0.00     0.188 C 
ATOM     11  H3  UNL     1      10.538   5.629  92.011  1.00  0.00     0.171 HD
HETATM   12  N1  UNL     1      12.377   6.909  93.262  1.00  0.00    -0.373 N 
HETATM   13  N2  UNL     1      10.737   7.506  94.784  1.00  0.00    -0.064 NA
ATOM     14  H12 UNL     1      13.058   7.437  93.808  1.00  0.00     0.158 HD
ATOM     15  H11 UNL     1      12.672   6.423  92.415  1.00  0.00     0.158 HD
HETATM   16  O1  UNL     1       8.438   6.578  94.237  1.00  0.00    -0.273 OA
ENDBRANCH   1   8
BRANCH   7  17
HETATM   17  N4  UNL     1       7.635   3.327  90.914  1.00  0.00    -0.339 N 
HETATM   18  C7  UNL     1       8.046   2.204  90.153  1.00  0.00     0.329 C 
HETATM   19  N5  UNL     1       7.220   1.697  89.121  1.00  0.00    -0.040 NA
HETATM   20  O4  UNL     1       9.150   1.673  90.412  1.00  0.00    -0.251 OA
ATOM     21  H4  UNL     1       6.737   3.768  90.711  1.00  0.00     0.164 HD
ENDBRANCH   7  17
TORSDOF 2
ENDMDL
