MODEL 1
REMARK VINA RESULT: -8.741914437      0.000      0.000
REMARK  2 active torsions:
REMARK  status: ('A' for Active; 'I' for Inactive)
REMARK       I    between atoms: N2_3  and  C2_4 
REMARK    1  A    between atoms: C2_4  and  C3_6 
REMARK       I    between atoms: N4_12  and  C7_13 
REMARK       I    between atoms: C7_13  and  N5_15 
REMARK    2  A    between atoms: N5_15  and  N6_17 
REMARK       I    between atoms: N6_17  and  C8_19 
ROOT
HETATM    1  N1  UNL     1       3.009   0.530  90.517  1.00  0.00    -0.156 NA
HETATM    2  C1  UNL     1       4.040   0.550  89.990  1.00  0.00     0.271 C 
HETATM    3  N2  UNL     1       5.252   0.598  89.424  1.00  0.00    -0.292 NA
HETATM    4  C2  UNL     1       6.467   0.643  88.850  1.00  0.00     0.310 C 
HETATM    5  O1  UNL     1       6.736   0.243  87.665  1.00  0.00    -0.256 OA
ENDROOT
BRANCH   4   6
HETATM    6  C3  UNL     1       7.681   1.203  89.607  1.00  0.00     0.129 C 
HETATM    7  C4  UNL     1       8.626   0.114  89.996  1.00  0.00     0.135 C 
HETATM    8  N3  UNL     1       9.218   0.257  91.270  1.00  0.00    -0.400 N 
HETATM    9  C5  UNL     1      10.140   1.297  91.481  1.00  0.00     0.075 C 
ATOM     10  H3  UNL     1       8.981  -0.386  92.026  1.00  0.00     0.158 HD
HETATM   11  C6  UNL     1       9.694   2.665  90.988  1.00  0.00     0.171 C 
HETATM   12  N4  UNL     1       8.292   2.841  91.260  1.00  0.00    -0.327 N 
HETATM   13  C7  UNL     1       7.919   3.926  92.068  1.00  0.00     0.337 C 
HETATM   14  C9  UNL     1       7.198   2.003  90.784  1.00  0.00     0.145 C 
HETATM   15  O2  UNL     1       6.653   4.044  92.305  1.00  0.00    -0.245 OA
HETATM   16  N5  UNL     1       8.744   4.892  92.645  1.00  0.00    -0.249 N 
ATOM     17  H5  UNL     1       9.749   4.842  92.480  1.00  0.00     0.192 HD
BRANCH  16  18
HETATM   18  N6  UNL     1       8.235   5.941  93.453  1.00  0.00    -0.270 N 
HETATM   19  C8  UNL     1       9.025   7.078  93.767  1.00  0.00     0.200 C 
HETATM   20  N7  UNL     1      10.263   7.051  93.411  1.00  0.00    -0.372 N 
HETATM   21  N8  UNL     1       8.525   8.207  94.439  1.00  0.00    -0.062 NA
ATOM     22  H72 UNL     1      10.627   6.232  92.924  1.00  0.00     0.158 HD
ATOM     23  H71 UNL     1      10.831   7.867  93.637  1.00  0.00     0.158 HD
ATOM     24  H6  UNL     1       7.283   5.878  93.813  1.00  0.00     0.189 HD
ENDBRANCH  16  18
ENDBRANCH   4   6
TORSDOF 2
ENDMDL
MODEL 2
REMARK VINA RESULT: -8.184940463      3.573      5.286
REMARK  2 active torsions:
REMARK  status: ('A' for Active; 'I' for Inactive)
REMARK       I    between atoms: N2_3  and  C2_4 
REMARK    1  A    between atoms: C2_4  and  C3_6 
REMARK       I    between atoms: N4_12  and  C7_13 
REMARK       I    between atoms: C7_13  and  N5_15 
REMARK    2  A    between atoms: N5_15  and  N6_17 
REMARK       I    between atoms: N6_17  and  C8_19 
ROOT
HETATM    1  N1  UNL     1       6.688   0.436  88.444  1.00  0.00    -0.156 NA
HETATM    2  C1  UNL     1       7.364   1.172  89.030  1.00  0.00     0.271 C 
HETATM    3  N2  UNL     1       8.101   2.038  89.737  1.00  0.00    -0.292 NA
HETATM    4  C2  UNL     1       8.847   2.906  90.442  1.00  0.00     0.310 C 
HETATM    5  O1  UNL     1      10.091   3.134  90.248  1.00  0.00    -0.256 OA
ENDROOT
BRANCH   4   6
HETATM    6  C3  UNL     1       8.237   3.727  91.589  1.00  0.00     0.129 C 
HETATM    7  C4  UNL     1       8.985   5.001  91.800  1.00  0.00     0.135 C 
HETATM    8  N3  UNL     1       9.150   5.388  93.147  1.00  0.00    -0.400 N 
HETATM    9  C5  UNL     1       8.022   5.788  93.885  1.00  0.00     0.075 C 
ATOM     10  H3  UNL     1      10.074   5.378  93.580  1.00  0.00     0.158 HD
HETATM   11  C6  UNL     1       6.821   4.860  93.781  1.00  0.00     0.171 C 
HETATM   12  N4  UNL     1       7.268   3.492  93.778  1.00  0.00    -0.327 N 
HETATM   13  C7  UNL     1       6.786   2.651  94.793  1.00  0.00     0.337 C 
HETATM   14  C9  UNL     1       8.181   2.873  92.825  1.00  0.00     0.145 C 
HETATM   15  O2  UNL     1       7.221   1.433  94.769  1.00  0.00    -0.245 OA
HETATM   16  N5  UNL     1       5.897   2.964  95.822  1.00  0.00    -0.249 N 
ATOM     17  H5  UNL     1       5.524   3.912  95.876  1.00  0.00     0.192 HD
BRANCH  16  18
HETATM   18  N6  UNL     1       5.494   2.014  96.794  1.00  0.00    -0.270 N 
HETATM   19  C8  UNL     1       4.225   1.382  96.724  1.00  0.00     0.200 C 
HETATM   20  N7  UNL     1       3.403   1.809  95.828  1.00  0.00    -0.372 N 
HETATM   21  N8  UNL     1       3.834   0.332  97.574  1.00  0.00    -0.062 NA
ATOM     22  H72 UNL     1       3.686   2.570  95.211  1.00  0.00     0.158 HD
ATOM     23  H71 UNL     1       2.492   1.355  95.778  1.00  0.00     0.158 HD
ATOM     24  H6  UNL     1       6.128   1.780  97.557  1.00  0.00     0.189 HD
ENDBRANCH  16  18
ENDBRANCH   4   6
TORSDOF 2
ENDMDL
MODEL 3
REMARK VINA RESULT: -8.129127039      5.293      6.380
REMARK  2 active torsions:
REMARK  status: ('A' for Active; 'I' for Inactive)
REMARK       I    between atoms: N2_3  and  C2_4 
REMARK    1  A    between atoms: C2_4  and  C3_6 
REMARK       I    between atoms: N4_12  and  C7_13 
REMARK       I    between atoms: C7_13  and  N5_15 
REMARK    2  A    between atoms: N5_15  and  N6_17 
REMARK       I    between atoms: N6_17  and  C8_19 
ROOT
HETATM    1  N1  UNL     1       1.900  -2.218  91.243  1.00  0.00    -0.156 NA
HETATM    2  C1  UNL     1       2.023  -2.291  92.392  1.00  0.00     0.271 C 
HETATM    3  N2  UNL     1       2.197  -2.332  93.719  1.00  0.00    -0.292 NA
HETATM    4  C2  UNL     1       2.367  -2.380  95.052  1.00  0.00     0.310 C 
HETATM    5  O1  UNL     1       1.882  -3.277  95.824  1.00  0.00    -0.256 OA
ENDROOT
BRANCH   4   6
HETATM    6  C3  UNL     1       3.195  -1.313  95.784  1.00  0.00     0.129 C 
HETATM    7  C4  UNL     1       2.607  -0.991  97.117  1.00  0.00     0.135 C 
HETATM    8  N3  UNL     1       2.654   0.372  97.485  1.00  0.00    -0.400 N 
HETATM    9  C5  UNL     1       3.901   0.961  97.758  1.00  0.00     0.075 C 
ATOM     10  H3  UNL     1       1.797   0.920  97.551  1.00  0.00     0.158 HD
HETATM   11  C6  UNL     1       4.984   0.690  96.725  1.00  0.00     0.171 C 
HETATM   12  N4  UNL     1       4.411   0.729  95.406  1.00  0.00    -0.327 N 
HETATM   13  C7  UNL     1       4.936   1.663  94.498  1.00  0.00     0.337 C 
HETATM   14  C9  UNL     1       3.327  -0.104  94.899  1.00  0.00     0.145 C 
HETATM   15  O2  UNL     1       4.386   1.681  93.328  1.00  0.00    -0.245 OA
HETATM   16  N5  UNL     1       5.975   2.570  94.702  1.00  0.00    -0.249 N 
ATOM     17  H5  UNL     1       6.442   2.587  95.609  1.00  0.00     0.192 HD
BRANCH  16  18
HETATM   18  N6  UNL     1       6.407   3.470  93.695  1.00  0.00    -0.270 N 
HETATM   19  C8  UNL     1       6.824   4.789  94.015  1.00  0.00     0.200 C 
HETATM   20  N7  UNL     1       6.660   5.179  95.231  1.00  0.00    -0.372 N 
HETATM   21  N8  UNL     1       7.395   5.669  93.078  1.00  0.00    -0.062 NA
ATOM     22  H72 UNL     1       6.246   4.541  95.911  1.00  0.00     0.158 HD
ATOM     23  H71 UNL     1       6.959   6.127  95.461  1.00  0.00     0.158 HD
ATOM     24  H6  UNL     1       6.419   3.164  92.722  1.00  0.00     0.189 HD
ENDBRANCH  16  18
ENDBRANCH   4   6
TORSDOF 2
ENDMDL
MODEL 4
REMARK VINA RESULT: -8.113913069      3.477      4.890
REMARK  2 active torsions:
REMARK  status: ('A' for Active; 'I' for Inactive)
REMARK       I    between atoms: N2_3  and  C2_4 
REMARK    1  A    between atoms: C2_4  and  C3_6 
REMARK       I    between atoms: N4_12  and  C7_13 
REMARK       I    between atoms: C7_13  and  N5_15 
REMARK    2  A    between atoms: N5_15  and  N6_17 
REMARK       I    between atoms: N6_17  and  C8_19 
ROOT
HETATM    1  N1  UNL     1       9.363  -1.653  89.816  1.00  0.00    -0.156 NA
HETATM    2  C1  UNL     1       8.810  -0.636  89.773  1.00  0.00     0.271 C 
HETATM    3  N2  UNL     1       8.187   0.549  89.774  1.00  0.00    -0.292 NA
HETATM    4  C2  UNL     1       7.559   1.737  89.768  1.00  0.00     0.310 C 
HETATM    5  O1  UNL     1       6.855   2.193  88.802  1.00  0.00    -0.256 OA
ENDROOT
BRANCH   4   6
HETATM    6  C3  UNL     1       7.642   2.684  90.975  1.00  0.00     0.129 C 
HETATM    7  C4  UNL     1       8.887   3.507  90.934  1.00  0.00     0.135 C 
HETATM    8  N3  UNL     1       9.510   3.721  92.182  1.00  0.00    -0.400 N 
HETATM    9  C5  UNL     1       8.866   4.528  93.137  1.00  0.00     0.075 C 
ATOM     10  H3  UNL     1      10.415   3.298  92.389  1.00  0.00     0.158 HD
HETATM   11  C6  UNL     1       7.397   4.207  93.366  1.00  0.00     0.171 C 
HETATM   12  N4  UNL     1       7.205   2.781  93.339  1.00  0.00    -0.327 N 
HETATM   13  C7  UNL     1       6.664   2.178  94.485  1.00  0.00     0.337 C 
HETATM   14  C9  UNL     1       7.519   1.878  92.238  1.00  0.00     0.145 C 
HETATM   15  O2  UNL     1       6.521   0.893  94.432  1.00  0.00    -0.245 OA
HETATM   16  N5  UNL     1       6.260   2.791  95.671  1.00  0.00    -0.249 N 
ATOM     17  H5  UNL     1       6.348   3.804  95.756  1.00  0.00     0.192 HD
BRANCH  16  18
HETATM   18  N6  UNL     1       5.730   2.058  96.763  1.00  0.00    -0.270 N 
HETATM   19  C8  UNL     1       4.407   1.544  96.733  1.00  0.00     0.200 C 
HETATM   20  N7  UNL     1       3.663   1.890  95.740  1.00  0.00    -0.372 N 
HETATM   21  N8  UNL     1       3.885   0.692  97.723  1.00  0.00    -0.062 NA
ATOM     22  H72 UNL     1       4.042   2.508  95.022  1.00  0.00     0.158 HD
ATOM     23  H71 UNL     1       2.713   1.521  95.719  1.00  0.00     0.158 HD
ATOM     24  H6  UNL     1       6.311   1.896  97.586  1.00  0.00     0.189 HD
ENDBRANCH  16  18
ENDBRANCH   4   6
TORSDOF 2
ENDMDL
MODEL 5
REMARK VINA RESULT: -8.082770060      1.403      1.632
REMARK  2 active torsions:
REMARK  status: ('A' for Active; 'I' for Inactive)
REMARK       I    between atoms: N2_3  and  C2_4 
REMARK    1  A    between atoms: C2_4  and  C3_6 
REMARK       I    between atoms: N4_12  and  C7_13 
REMARK       I    between atoms: C7_13  and  N5_15 
REMARK    2  A    between atoms: N5_15  and  N6_17 
REMARK       I    between atoms: N6_17  and  C8_19 
ROOT
HETATM    1  N1  UNL     1       3.383   0.411  89.933  1.00  0.00    -0.156 NA
HETATM    2  C1  UNL     1       4.521   0.556  89.772  1.00  0.00     0.271 C 
HETATM    3  N2  UNL     1       5.841   0.740  89.639  1.00  0.00    -0.292 NA
HETATM    4  C2  UNL     1       7.165   0.923  89.498  1.00  0.00     0.310 C 
HETATM    5  O1  UNL     1       7.823   0.729  88.418  1.00  0.00    -0.256 OA
ENDROOT
BRANCH   4   6
HETATM    6  C3  UNL     1       8.029   1.400  90.675  1.00  0.00     0.129 C 
HETATM    7  C4  UNL     1       8.388   0.266  91.578  1.00  0.00     0.135 C 
HETATM    8  N3  UNL     1       8.382   0.569  92.957  1.00  0.00    -0.400 N 
HETATM    9  C5  UNL     1       9.358   1.443  93.468  1.00  0.00     0.075 C 
ATOM     10  H3  UNL     1       7.681   0.159  93.574  1.00  0.00     0.158 HD
HETATM   11  C6  UNL     1       9.547   2.730  92.680  1.00  0.00     0.171 C 
HETATM   12  N4  UNL     1       8.267   3.215  92.236  1.00  0.00    -0.327 N 
HETATM   13  C7  UNL     1       7.880   4.499  92.652  1.00  0.00     0.337 C 
HETATM   14  C9  UNL     1       7.311   2.510  91.391  1.00  0.00     0.145 C 
HETATM   15  O2  UNL     1       6.718   4.895  92.247  1.00  0.00    -0.245 OA
HETATM   16  N5  UNL     1       8.593   5.398  93.444  1.00  0.00    -0.249 N 
ATOM     17  H5  UNL     1       9.518   5.130  93.781  1.00  0.00     0.192 HD
BRANCH  16  18
HETATM   18  N6  UNL     1       8.080   6.671  93.798  1.00  0.00    -0.270 N 
HETATM   19  C8  UNL     1       7.198   6.830  94.900  1.00  0.00     0.200 C 
HETATM   20  N7  UNL     1       6.773   5.757  95.472  1.00  0.00    -0.372 N 
HETATM   21  N8  UNL     1       6.777   8.083  95.380  1.00  0.00    -0.062 NA
ATOM     22  H72 UNL     1       7.079   4.849  95.124  1.00  0.00     0.158 HD
ATOM     23  H71 UNL     1       6.140   5.872  96.263  1.00  0.00     0.158 HD
ATOM     24  H6  UNL     1       8.350   7.489  93.252  1.00  0.00     0.189 HD
ENDBRANCH  16  18
ENDBRANCH   4   6
TORSDOF 2
ENDMDL
