MODEL 1
REMARK VINA RESULT: -7.429504180      0.000      0.000
REMARK  5 active torsions:
REMARK  status: ('A' for Active; 'I' for Inactive)
REMARK       I    between atoms: C2_2  and  N1_4 
REMARK    1  A    between atoms: N1_4  and  S1_6 
REMARK    2  A    between atoms: S1_6  and  N2_9 
REMARK       I    between atoms: N2_9  and  C3_11 
REMARK       I    between atoms: C3_11  and  N5_17 
REMARK    3  A    between atoms: N3_12  and  N4_14 
REMARK    4  A    between atoms: N5_17  and  N6_19 
REMARK    5  A    between atoms: N6_19  and  C4_21 
ROOT
HETATM    1  N2  UNL     1       7.331   3.756  91.872  1.00  0.00    -0.097 N 
ATOM      2  H2  UNL     1       6.946   4.423  91.203  1.00  0.00     0.199 HD
HETATM    3  C3  UNL     1       6.714   3.589  93.138  1.00  0.00     0.721 C 
HETATM    4  N3  UNL     1       5.942   2.605  93.417  1.00  0.00    -0.137 N 
ATOM      5  H3  UNL     1       5.751   1.899  92.706  1.00  0.00     0.205 HD
HETATM    6  N5  UNL     1       6.969   4.561  94.136  1.00  0.00    -0.128 N 
ATOM      7  H5  UNL     1       7.232   4.283  95.082  1.00  0.00     0.205 HD
ENDROOT
BRANCH   1   8
HETATM    8  S1  UNL     1       8.721   2.840  91.462  1.00  0.00     0.339 S 
HETATM    9  O2  UNL     1       9.048   1.925  92.597  1.00  0.00    -0.182 OA
HETATM   10  O3  UNL     1       9.897   3.720  91.142  1.00  0.00    -0.182 OA
BRANCH   8  11
HETATM   11  N1  UNL     1       8.388   1.914  90.027  1.00  0.00    -0.237 N 
HETATM   12  C2  UNL     1       7.213   1.138  89.953  1.00  0.00     0.228 C 
HETATM   13  C1  UNL     1       6.988   0.362  88.682  1.00  0.00     0.118 C 
HETATM   14  O1  UNL     1       6.399   1.094  90.889  1.00  0.00    -0.273 OA
ATOM     15  H1  UNL     1       9.040   1.933  89.243  1.00  0.00     0.183 HD
ENDBRANCH   8  11
ENDBRANCH   1   8
BRANCH   4  16
HETATM   16  N4  UNL     1       5.362   2.486  94.671  1.00  0.00    -0.331 N 
ATOM     17  H42 UNL     1       5.910   2.068  95.423  1.00  0.00     0.177 HD
ATOM     18  H41 UNL     1       4.409   2.807  94.841  1.00  0.00     0.177 HD
ENDBRANCH   4  16
BRANCH   6  19
HETATM   19  N6  UNL     1       6.851   5.904  93.793  1.00  0.00    -0.264 N 
ATOM     20  H6  UNL     1       5.989   6.250  93.371  1.00  0.00     0.189 HD
BRANCH  19  21
HETATM   21  C4  UNL     1       7.918   6.780  94.029  1.00  0.00     0.200 C 
HETATM   22  N7  UNL     1       7.742   7.987  94.745  1.00  0.00    -0.068 NA
HETATM   23  S2  UNL     1       9.420   6.446  93.485  1.00  0.00    -0.043 SA
ENDBRANCH  19  21
ENDBRANCH   6  19
TORSDOF 5
ENDMDL
MODEL 2
REMARK VINA RESULT: -7.178104222      2.834      4.996
REMARK  5 active torsions:
REMARK  status: ('A' for Active; 'I' for Inactive)
REMARK       I    between atoms: C2_2  and  N1_4 
REMARK    1  A    between atoms: N1_4  and  S1_6 
REMARK    2  A    between atoms: S1_6  and  N2_9 
REMARK       I    between atoms: N2_9  and  C3_11 
REMARK       I    between atoms: C3_11  and  N5_17 
REMARK    3  A    between atoms: N3_12  and  N4_14 
REMARK    4  A    between atoms: N5_17  and  N6_19 
REMARK    5  A    between atoms: N6_19  and  C4_21 
ROOT
HETATM    1  N2  UNL     1       5.851   3.128  93.370  1.00  0.00    -0.097 N 
ATOM      2  H2  UNL     1       5.200   3.001  92.595  1.00  0.00     0.199 HD
HETATM    3  C3  UNL     1       6.853   4.128  93.294  1.00  0.00     0.721 C 
HETATM    4  N3  UNL     1       6.760   5.259  93.891  1.00  0.00    -0.137 N 
ATOM      5  H3  UNL     1       5.933   5.465  94.452  1.00  0.00     0.205 HD
HETATM    6  N5  UNL     1       8.007   3.858  92.520  1.00  0.00    -0.128 N 
ATOM      7  H5  UNL     1       8.940   4.033  92.893  1.00  0.00     0.205 HD
ENDROOT
BRANCH   1   8
HETATM    8  S1  UNL     1       5.730   2.131  94.759  1.00  0.00     0.339 S 
HETATM    9  O2  UNL     1       6.305   2.862  95.929  1.00  0.00    -0.182 OA
HETATM   10  O3  UNL     1       6.431   0.815  94.567  1.00  0.00    -0.182 OA
BRANCH   8  11
HETATM   11  N1  UNL     1       4.055   1.763  95.051  1.00  0.00    -0.237 N 
HETATM   12  C2  UNL     1       3.215   1.426  93.968  1.00  0.00     0.228 C 
HETATM   13  C1  UNL     1       1.777   1.119  94.292  1.00  0.00     0.118 C 
HETATM   14  O1  UNL     1       3.639   1.384  92.803  1.00  0.00    -0.273 OA
ATOM     15  H1  UNL     1       3.682   1.790  95.999  1.00  0.00     0.183 HD
ENDBRANCH   8  11
ENDBRANCH   1   8
BRANCH   4  16
HETATM   16  N4  UNL     1       7.767   6.206  93.787  1.00  0.00    -0.331 N 
ATOM     17  H42 UNL     1       7.902   6.861  94.557  1.00  0.00     0.177 HD
ATOM     18  H41 UNL     1       8.362   6.251  92.959  1.00  0.00     0.177 HD
ENDBRANCH   4  16
BRANCH   6  19
HETATM   19  N6  UNL     1       7.835   3.348  91.237  1.00  0.00    -0.264 N 
ATOM     20  H6  UNL     1       7.710   3.981  90.447  1.00  0.00     0.189 HD
BRANCH  19  21
HETATM   21  C4  UNL     1       7.834   1.962  91.032  1.00  0.00     0.200 C 
HETATM   22  N7  UNL     1       6.632   1.241  90.849  1.00  0.00    -0.068 NA
HETATM   23  S2  UNL     1       9.228   1.113  90.997  1.00  0.00    -0.043 SA
ENDBRANCH  19  21
ENDBRANCH   6  19
TORSDOF 5
ENDMDL
MODEL 3
REMARK VINA RESULT: -7.138941126      2.986      6.470
REMARK  5 active torsions:
REMARK  status: ('A' for Active; 'I' for Inactive)
REMARK       I    between atoms: C2_2  and  N1_4 
REMARK    1  A    between atoms: N1_4  and  S1_6 
REMARK    2  A    between atoms: S1_6  and  N2_9 
REMARK       I    between atoms: N2_9  and  C3_11 
REMARK       I    between atoms: C3_11  and  N5_17 
REMARK    3  A    between atoms: N3_12  and  N4_14 
REMARK    4  A    between atoms: N5_17  and  N6_19 
REMARK    5  A    between atoms: N6_19  and  C4_21 
ROOT
HETATM    1  N2  UNL     1       7.365   1.718  90.643  1.00  0.00    -0.097 N 
ATOM      2  H2  UNL     1       7.081   2.525  90.087  1.00  0.00     0.199 HD
HETATM    3  C3  UNL     1       7.835   0.545  89.998  1.00  0.00     0.721 C 
HETATM    4  N3  UNL     1       9.078   0.245  89.910  1.00  0.00    -0.137 N 
ATOM      5  H3  UNL     1       9.776   0.868  90.317  1.00  0.00     0.205 HD
HETATM    6  N5  UNL     1       6.879  -0.330  89.428  1.00  0.00    -0.128 N 
ATOM      7  H5  UNL     1       6.917  -1.333  89.604  1.00  0.00     0.205 HD
ENDROOT
BRANCH   1   8
HETATM    8  S1  UNL     1       7.273   1.784  92.353  1.00  0.00     0.339 S 
HETATM    9  O2  UNL     1       7.979   0.596  92.921  1.00  0.00    -0.182 OA
HETATM   10  O3  UNL     1       5.849   1.828  92.835  1.00  0.00    -0.182 OA
BRANCH   8  11
HETATM   11  N1  UNL     1       8.030   3.249  92.907  1.00  0.00    -0.237 N 
HETATM   12  C2  UNL     1       9.244   3.671  92.325  1.00  0.00     0.228 C 
HETATM   13  C1  UNL     1       9.845   4.947  92.853  1.00  0.00     0.118 C 
HETATM   14  O1  UNL     1       9.795   3.023  91.422  1.00  0.00    -0.273 OA
ATOM     15  H1  UNL     1       7.598   3.801  93.648  1.00  0.00     0.183 HD
ENDBRANCH   8  11
ENDBRANCH   1   8
BRANCH   4  16
HETATM   16  N4  UNL     1       9.488  -0.914  89.269  1.00  0.00    -0.331 N 
ATOM     17  H42 UNL     1       9.970  -1.628  89.815  1.00  0.00     0.177 HD
ATOM     18  H41 UNL     1       9.314  -1.054  88.274  1.00  0.00     0.177 HD
ENDBRANCH   4  16
BRANCH   6  19
HETATM   19  N6  UNL     1       5.886   0.216  88.620  1.00  0.00    -0.264 N 
ATOM     20  H6  UNL     1       6.081   1.047  88.061  1.00  0.00     0.189 HD
BRANCH  19  21
HETATM   21  C4  UNL     1       4.618  -0.378  88.577  1.00  0.00     0.200 C 
HETATM   22  N7  UNL     1       4.401  -1.614  87.926  1.00  0.00    -0.068 NA
HETATM   23  S2  UNL     1       3.328   0.334  89.278  1.00  0.00    -0.043 SA
ENDBRANCH  19  21
ENDBRANCH   6  19
TORSDOF 5
ENDMDL
MODEL 4
REMARK VINA RESULT: -7.015174285      2.630      6.068
REMARK  5 active torsions:
REMARK  status: ('A' for Active; 'I' for Inactive)
REMARK       I    between atoms: C2_2  and  N1_4 
REMARK    1  A    between atoms: N1_4  and  S1_6 
REMARK    2  A    between atoms: S1_6  and  N2_9 
REMARK       I    between atoms: N2_9  and  C3_11 
REMARK       I    between atoms: C3_11  and  N5_17 
REMARK    3  A    between atoms: N3_12  and  N4_14 
REMARK    4  A    between atoms: N5_17  and  N6_19 
REMARK    5  A    between atoms: N6_19  and  C4_21 
ROOT
HETATM    1  N2  UNL     1       7.839   3.900  91.201  1.00  0.00    -0.097 N 
ATOM      2  H2  UNL     1       7.679   4.403  90.329  1.00  0.00     0.199 HD
HETATM    3  C3  UNL     1       8.432   2.612  91.176  1.00  0.00     0.721 C 
HETATM    4  N3  UNL     1       9.666   2.403  91.455  1.00  0.00    -0.137 N 
ATOM      5  H3  UNL     1      10.264   3.189  91.709  1.00  0.00     0.205 HD
HETATM    6  N5  UNL     1       7.615   1.509  90.824  1.00  0.00    -0.128 N 
ATOM      7  H5  UNL     1       7.614   0.658  91.387  1.00  0.00     0.205 HD
ENDROOT
BRANCH   1   8
HETATM    8  S1  UNL     1       7.391   4.613  92.694  1.00  0.00     0.339 S 
HETATM    9  O2  UNL     1       7.553   3.602  93.781  1.00  0.00    -0.182 OA
HETATM   10  O3  UNL     1       5.980   5.131  92.666  1.00  0.00    -0.182 OA
BRANCH   8  11
HETATM   11  N1  UNL     1       8.417   5.986  92.998  1.00  0.00    -0.237 N 
HETATM   12  C2  UNL     1       9.804   5.796  93.172  1.00  0.00     0.228 C 
HETATM   13  C1  UNL     1      10.632   7.027  93.432  1.00  0.00     0.118 C 
HETATM   14  O1  UNL     1      10.321   4.669  93.113  1.00  0.00    -0.273 OA
ATOM     15  H1  UNL     1       8.017   6.922  93.051  1.00  0.00     0.183 HD
ENDBRANCH   8  11
ENDBRANCH   1   8
BRANCH   4  16
HETATM   16  N4  UNL     1      10.199   1.123  91.415  1.00  0.00    -0.331 N 
ATOM     17  H42 UNL     1       9.752   0.428  90.818  1.00  0.00     0.177 HD
ATOM     18  H41 UNL     1      11.020   0.880  91.969  1.00  0.00     0.177 HD
ENDBRANCH   4  16
BRANCH   6  19
HETATM   19  N6  UNL     1       6.813   1.618  89.692  1.00  0.00    -0.264 N 
ATOM     20  H6  UNL     1       6.333   2.495  89.488  1.00  0.00     0.189 HD
BRANCH  19  21
HETATM   21  C4  UNL     1       6.668   0.521  88.833  1.00  0.00     0.200 C 
HETATM   22  N7  UNL     1       7.745   0.043  88.053  1.00  0.00    -0.068 NA
HETATM   23  S2  UNL     1       5.240  -0.258  88.694  1.00  0.00    -0.043 SA
ENDBRANCH  19  21
ENDBRANCH   6  19
TORSDOF 5
ENDMDL
MODEL 5
REMARK VINA RESULT: -6.994025892      2.575      6.156
REMARK  5 active torsions:
REMARK  status: ('A' for Active; 'I' for Inactive)
REMARK       I    between atoms: C2_2  and  N1_4 
REMARK    1  A    between atoms: N1_4  and  S1_6 
REMARK    2  A    between atoms: S1_6  and  N2_9 
REMARK       I    between atoms: N2_9  and  C3_11 
REMARK       I    between atoms: C3_11  and  N5_17 
REMARK    3  A    between atoms: N3_12  and  N4_14 
REMARK    4  A    between atoms: N5_17  and  N6_19 
REMARK    5  A    between atoms: N6_19  and  C4_21 
ROOT
HETATM    1  N2  UNL     1       6.884   2.949  92.380  1.00  0.00    -0.097 N 
ATOM      2  H2  UNL     1       6.232   3.573  91.903  1.00  0.00     0.199 HD
HETATM    3  C3  UNL     1       7.885   2.272  91.638  1.00  0.00     0.721 C 
HETATM    4  N3  UNL     1       9.109   2.651  91.605  1.00  0.00    -0.137 N 
ATOM      5  H3  UNL     1       9.394   3.476  92.132  1.00  0.00     0.205 HD
HETATM    6  N5  UNL     1       7.505   1.124  90.900  1.00  0.00    -0.128 N 
ATOM      7  H5  UNL     1       8.046   0.262  90.960  1.00  0.00     0.205 HD
ENDROOT
BRANCH   1   8
HETATM    8  S1  UNL     1       6.766   2.723  94.075  1.00  0.00     0.339 S 
HETATM    9  O2  UNL     1       7.983   2.000  94.551  1.00  0.00    -0.182 OA
HETATM   10  O3  UNL     1       5.523   1.965  94.453  1.00  0.00    -0.182 OA
BRANCH   8  11
HETATM   11  N1  UNL     1       6.654   4.277  94.849  1.00  0.00    -0.237 N 
HETATM   12  C2  UNL     1       7.412   5.359  94.355  1.00  0.00     0.228 C 
HETATM   13  C1  UNL     1       7.267   6.675  95.073  1.00  0.00     0.118 C 
HETATM   14  O1  UNL     1       8.164   5.237  93.376  1.00  0.00    -0.273 OA
ATOM     15  H1  UNL     1       6.043   4.405  95.655  1.00  0.00     0.183 HD
ENDBRANCH   8  11
ENDBRANCH   1   8
BRANCH   4  16
HETATM   16  N4  UNL     1      10.052   1.955  90.863  1.00  0.00    -0.331 N 
ATOM     17  H42 UNL     1      10.668   1.303  91.349  1.00  0.00     0.177 HD
ATOM     18  H41 UNL     1      10.129   2.088  89.855  1.00  0.00     0.177 HD
ENDBRANCH   4  16
BRANCH   6  19
HETATM   19  N6  UNL     1       6.375   1.204  90.092  1.00  0.00    -0.264 N 
ATOM     20  H6  UNL     1       5.632   1.868  90.316  1.00  0.00     0.189 HD
BRANCH  19  21
HETATM   21  C4  UNL     1       6.258   0.372  88.971  1.00  0.00     0.200 C 
HETATM   22  N7  UNL     1       7.308   0.242  88.033  1.00  0.00    -0.068 NA
HETATM   23  S2  UNL     1       4.899  -0.489  88.697  1.00  0.00    -0.043 SA
ENDBRANCH  19  21
ENDBRANCH   6  19
TORSDOF 5
ENDMDL
