MODEL 1
REMARK VINA RESULT: -6.813007307      0.000      0.000
REMARK  3 active torsions:
REMARK  status: ('A' for Active; 'I' for Inactive)
REMARK    1  A    between atoms: C2_2  and  C3_6 
REMARK    2  A    between atoms: C3_6  and  C4_7 
REMARK    3  A    between atoms: C6_16  and  N4_17 
REMARK       I    between atoms: N4_17  and  C7_19 
ROOT
HETATM    1  C3  UNL     1       3.584   0.055  96.210  1.00  0.00     0.149 C 
HETATM    2  C5  UNL     1       5.044   0.108  96.552  1.00  0.00     0.196 C 
HETATM    3  S1  UNL     1       5.623   1.363  95.436  1.00  0.00     0.233 S 
HETATM    4  O2  UNL     1       6.314   0.799  94.234  1.00  0.00    -0.206 OA
HETATM    5  O3  UNL     1       6.488   2.353  96.163  1.00  0.00    -0.206 OA
HETATM    6  N3  UNL     1       4.092   2.041  95.087  1.00  0.00    -0.272 N 
ATOM      7  H3  UNL     1       3.942   2.923  94.596  1.00  0.00     0.180 HD
HETATM    8  C6  UNL     1       3.171   1.290  95.526  1.00  0.00     0.117 C 
ENDROOT
BRANCH   1   9
HETATM    9  C2  UNL     1       2.825  -0.122  97.476  1.00  0.00     0.002 C 
HETATM   10  C1  UNL     1       3.214   0.557  98.741  1.00  0.00     0.064 C 
HETATM   11  N1  UNL     1       1.801  -0.883  97.492  1.00  0.00    -0.404 N 
ATOM     12  H12 UNL     1       1.280  -1.005  98.361  1.00  0.00     0.155 HD
ATOM     13  H11 UNL     1       1.535  -1.349  96.624  1.00  0.00     0.155 HD
ENDBRANCH   1   9
BRANCH   1  14
HETATM   14  C4  UNL     1       3.426  -1.142  95.322  1.00  0.00     0.254 C 
HETATM   15  N2  UNL     1       2.695  -1.040  94.110  1.00  0.00    -0.061 NA
HETATM   16  O1  UNL     1       3.919  -2.262  95.596  1.00  0.00    -0.275 OA
ENDBRANCH   1  14
BRANCH   8  17
HETATM   17  N4  UNL     1       1.787   1.714  95.320  1.00  0.00    -0.319 N 
HETATM   18  C7  UNL     1       1.415   2.550  94.258  1.00  0.00     0.187 C 
HETATM   19  N5  UNL     1       0.457   3.386  94.398  1.00  0.00    -0.373 N 
HETATM   20  N6  UNL     1       2.084   2.488  93.019  1.00  0.00    -0.064 NA
ATOM     21  H52 UNL     1      -0.027   3.431  95.295  1.00  0.00     0.158 HD
ATOM     22  H51 UNL     1       0.187   3.994  93.625  1.00  0.00     0.158 HD
ATOM     23  H4  UNL     1       1.069   1.391  95.969  1.00  0.00     0.169 HD
ENDBRANCH   8  17
TORSDOF 3
ENDMDL
MODEL 2
REMARK VINA RESULT: -6.433726921      5.016      6.616
REMARK  3 active torsions:
REMARK  status: ('A' for Active; 'I' for Inactive)
REMARK    1  A    between atoms: C2_2  and  C3_6 
REMARK    2  A    between atoms: C3_6  and  C4_7 
REMARK    3  A    between atoms: C6_16  and  N4_17 
REMARK       I    between atoms: N4_17  and  C7_19 
ROOT
HETATM    1  C3  UNL     1       8.364   2.645  92.315  1.00  0.00     0.149 C 
HETATM    2  C5  UNL     1       8.508   2.430  90.837  1.00  0.00     0.196 C 
HETATM    3  S1  UNL     1       7.144   1.341  90.503  1.00  0.00     0.233 S 
HETATM    4  O2  UNL     1       7.561  -0.090  90.367  1.00  0.00    -0.206 OA
HETATM    5  O3  UNL     1       6.377   1.815  89.301  1.00  0.00    -0.206 OA
HETATM    6  N3  UNL     1       6.275   1.665  91.940  1.00  0.00    -0.272 N 
ATOM      7  H3  UNL     1       5.313   1.376  92.118  1.00  0.00     0.180 HD
HETATM    8  C6  UNL     1       6.998   2.317  92.751  1.00  0.00     0.117 C 
ENDROOT
BRANCH   1   9
HETATM    9  C2  UNL     1       8.679   4.069  92.601  1.00  0.00     0.002 C 
HETATM   10  C1  UNL     1       7.693   5.163  92.386  1.00  0.00     0.064 C 
HETATM   11  N1  UNL     1       9.833   4.379  93.046  1.00  0.00    -0.404 N 
ATOM     12  H12 UNL     1      10.049   5.357  93.243  1.00  0.00     0.155 HD
ATOM     13  H11 UNL     1      10.509   3.629  93.193  1.00  0.00     0.155 HD
ENDBRANCH   1   9
BRANCH   1  14
HETATM   14  C4  UNL     1       9.375   1.738  92.949  1.00  0.00     0.254 C 
HETATM   15  N2  UNL     1       9.361   1.525  94.352  1.00  0.00    -0.061 NA
HETATM   16  O1  UNL     1      10.258   1.138  92.292  1.00  0.00    -0.275 OA
ENDBRANCH   1  14
BRANCH   8  17
HETATM   17  N4  UNL     1       6.416   2.688  94.040  1.00  0.00    -0.319 N 
HETATM   18  C7  UNL     1       5.698   1.773  94.824  1.00  0.00     0.187 C 
HETATM   19  N5  UNL     1       4.724   2.169  95.550  1.00  0.00    -0.373 N 
HETATM   20  N6  UNL     1       6.035   0.404  94.828  1.00  0.00    -0.064 NA
ATOM     21  H52 UNL     1       4.480   3.159  95.547  1.00  0.00     0.158 HD
ATOM     22  H51 UNL     1       4.202   1.502  96.120  1.00  0.00     0.158 HD
ATOM     23  H4  UNL     1       6.536   3.642  94.380  1.00  0.00     0.169 HD
ENDBRANCH   8  17
TORSDOF 3
ENDMDL
MODEL 3
REMARK VINA RESULT: -6.390453249      2.397      3.663
REMARK  3 active torsions:
REMARK  status: ('A' for Active; 'I' for Inactive)
REMARK    1  A    between atoms: C2_2  and  C3_6 
REMARK    2  A    between atoms: C3_6  and  C4_7 
REMARK    3  A    between atoms: C6_16  and  N4_17 
REMARK       I    between atoms: N4_17  and  C7_19 
ROOT
HETATM    1  C3  UNL     1       3.702   0.308  96.249  1.00  0.00     0.149 C 
HETATM    2  C5  UNL     1       3.768   1.634  95.550  1.00  0.00     0.196 C 
HETATM    3  S1  UNL     1       2.587   1.404  94.243  1.00  0.00     0.233 S 
HETATM    4  O2  UNL     1       3.229   1.106  92.924  1.00  0.00    -0.206 OA
HETATM    5  O3  UNL     1       1.662   2.586  94.158  1.00  0.00    -0.206 OA
HETATM    6  N3  UNL     1       1.786   0.059  94.932  1.00  0.00    -0.272 N 
ATOM      7  H3  UNL     1       0.904  -0.328  94.599  1.00  0.00     0.180 HD
HETATM    8  C6  UNL     1       2.448  -0.385  95.917  1.00  0.00     0.117 C 
ENDROOT
BRANCH   1   9
HETATM    9  C2  UNL     1       3.791   0.559  97.711  1.00  0.00     0.002 C 
HETATM   10  C1  UNL     1       2.586   0.707  98.571  1.00  0.00     0.064 C 
HETATM   11  N1  UNL     1       4.937   0.653  98.262  1.00  0.00    -0.404 N 
ATOM     12  H12 UNL     1       4.999   0.825  99.266  1.00  0.00     0.155 HD
ATOM     13  H11 UNL     1       5.764   0.552  97.673  1.00  0.00     0.155 HD
ENDBRANCH   1   9
BRANCH   1  14
HETATM   14  C4  UNL     1       4.896  -0.457  95.765  1.00  0.00     0.254 C 
HETATM   15  N2  UNL     1       5.897   0.193  94.998  1.00  0.00    -0.061 NA
HETATM   16  O1  UNL     1       5.066  -1.676  96.006  1.00  0.00    -0.275 OA
ENDBRANCH   1  14
BRANCH   8  17
HETATM   17  N4  UNL     1       1.910  -1.540  96.636  1.00  0.00    -0.319 N 
HETATM   18  C7  UNL     1       1.559  -2.728  95.979  1.00  0.00     0.187 C 
HETATM   19  N5  UNL     1       0.587  -3.439  96.406  1.00  0.00    -0.373 N 
HETATM   20  N6  UNL     1       2.268  -3.162  94.841  1.00  0.00    -0.064 NA
ATOM     21  H52 UNL     1       0.073  -3.125  97.229  1.00  0.00     0.158 HD
ATOM     22  H51 UNL     1       0.331  -4.304  95.928  1.00  0.00     0.158 HD
ATOM     23  H4  UNL     1       1.787  -1.479  97.646  1.00  0.00     0.169 HD
ENDBRANCH   8  17
TORSDOF 3
ENDMDL
MODEL 4
REMARK VINA RESULT: -6.371944026      5.572      6.869
REMARK  3 active torsions:
REMARK  status: ('A' for Active; 'I' for Inactive)
REMARK    1  A    between atoms: C2_2  and  C3_6 
REMARK    2  A    between atoms: C3_6  and  C4_7 
REMARK    3  A    between atoms: C6_16  and  N4_17 
REMARK       I    between atoms: N4_17  and  C7_19 
ROOT
HETATM    1  C3  UNL     1       8.237   1.351  92.057  1.00  0.00     0.149 C 
HETATM    2  C5  UNL     1       7.943   0.339  90.989  1.00  0.00     0.196 C 
HETATM    3  S1  UNL     1       7.019   1.310  89.824  1.00  0.00     0.233 S 
HETATM    4  O2  UNL     1       5.543   1.081  89.915  1.00  0.00    -0.206 OA
HETATM    5  O3  UNL     1       7.533   1.085  88.430  1.00  0.00    -0.206 OA
HETATM    6  N3  UNL     1       7.510   2.841  90.408  1.00  0.00    -0.272 N 
ATOM      7  H3  UNL     1       7.350   3.727  89.929  1.00  0.00     0.180 HD
HETATM    8  C6  UNL     1       8.100   2.715  91.521  1.00  0.00     0.117 C 
ENDROOT
BRANCH   1   9
HETATM    9  C2  UNL     1       9.621   1.114  92.541  1.00  0.00     0.002 C 
HETATM   10  C1  UNL     1       9.994   1.220  93.978  1.00  0.00     0.064 C 
HETATM   11  N1  UNL     1      10.535   0.809  91.705  1.00  0.00    -0.404 N 
ATOM     12  H12 UNL     1      11.485   0.646  92.037  1.00  0.00     0.155 HD
ATOM     13  H11 UNL     1      10.279   0.737  90.719  1.00  0.00     0.155 HD
ENDBRANCH   1   9
BRANCH   1  14
HETATM   14  C4  UNL     1       7.238   1.086  93.143  1.00  0.00     0.254 C 
HETATM   15  N2  UNL     1       6.090   1.910  93.272  1.00  0.00    -0.061 NA
HETATM   16  O1  UNL     1       7.364   0.151  93.968  1.00  0.00    -0.275 OA
ENDBRANCH   1  14
BRANCH   8  17
HETATM   17  N4  UNL     1       8.595   3.926  92.174  1.00  0.00    -0.319 N 
HETATM   18  C7  UNL     1       7.794   5.065  92.336  1.00  0.00     0.187 C 
HETATM   19  N5  UNL     1       8.314   6.232  92.304  1.00  0.00    -0.373 N 
HETATM   20  N6  UNL     1       6.403   4.949  92.537  1.00  0.00    -0.064 NA
ATOM     21  H52 UNL     1       9.320   6.317  92.157  1.00  0.00     0.158 HD
ATOM     22  H51 UNL     1       7.730   7.061  92.421  1.00  0.00     0.158 HD
ATOM     23  H4  UNL     1       9.553   3.944  92.523  1.00  0.00     0.169 HD
ENDBRANCH   8  17
TORSDOF 3
ENDMDL
MODEL 5
REMARK VINA RESULT: -6.348217550      5.009      6.354
REMARK  3 active torsions:
REMARK  status: ('A' for Active; 'I' for Inactive)
REMARK    1  A    between atoms: C2_2  and  C3_6 
REMARK    2  A    between atoms: C3_6  and  C4_7 
REMARK    3  A    between atoms: C6_16  and  N4_17 
REMARK       I    between atoms: N4_17  and  C7_19 
ROOT
HETATM    1  C3  UNL     1       8.250   2.665  92.423  1.00  0.00     0.149 C 
HETATM    2  C5  UNL     1       9.295   3.741  92.476  1.00  0.00     0.196 C 
HETATM    3  S1  UNL     1       8.321   5.159  92.917  1.00  0.00     0.233 S 
HETATM    4  O2  UNL     1       8.016   6.043  91.748  1.00  0.00    -0.206 OA
HETATM    5  O3  UNL     1       8.979   5.920  94.033  1.00  0.00    -0.206 OA
HETATM    6  N3  UNL     1       6.962   4.296  93.494  1.00  0.00    -0.272 N 
ATOM      7  H3  UNL     1       6.189   4.707  94.016  1.00  0.00     0.180 HD
HETATM    8  C6  UNL     1       7.056   3.073  93.179  1.00  0.00     0.117 C 
ENDROOT
BRANCH   1   9
HETATM    9  C2  UNL     1       8.839   1.428  92.999  1.00  0.00     0.002 C 
HETATM   10  C1  UNL     1       9.519   1.409  94.322  1.00  0.00     0.064 C 
HETATM   11  N1  UNL     1       8.766   0.336  92.344  1.00  0.00    -0.404 N 
ATOM     12  H12 UNL     1       9.170  -0.513  92.739  1.00  0.00     0.155 HD
ATOM     13  H11 UNL     1       8.300   0.350  91.436  1.00  0.00     0.155 HD
ENDBRANCH   1   9
BRANCH   1  14
HETATM   14  C4  UNL     1       7.941   2.482  90.968  1.00  0.00     0.254 C 
HETATM   15  N2  UNL     1       8.885   2.872  89.983  1.00  0.00    -0.061 NA
HETATM   16  O1  UNL     1       6.863   1.989  90.559  1.00  0.00    -0.275 OA
ENDBRANCH   1  14
BRANCH   8  17
HETATM   17  N4  UNL     1       5.978   2.176  93.594  1.00  0.00    -0.319 N 
HETATM   18  C7  UNL     1       5.779   1.823  94.937  1.00  0.00     0.187 C 
HETATM   19  N5  UNL     1       5.328   0.666  95.241  1.00  0.00    -0.373 N 
HETATM   20  N6  UNL     1       6.070   2.732  95.975  1.00  0.00    -0.064 NA
ATOM     21  H52 UNL     1       5.118   0.009  94.490  1.00  0.00     0.158 HD
ATOM     22  H51 UNL     1       5.183   0.410  96.218  1.00  0.00     0.158 HD
ATOM     23  H4  UNL     1       5.352   1.795  92.886  1.00  0.00     0.169 HD
ENDBRANCH   8  17
TORSDOF 3
ENDMDL
