MODEL 1
REMARK VINA RESULT: -8.644966762      0.000      0.000
REMARK  4 active torsions:
REMARK  status: ('A' for Active; 'I' for Inactive)
REMARK    1  A    between atoms: N1_2  and  N2_3 
REMARK       I    between atoms: N2_3  and  C2_5 
REMARK       I    between atoms: C2_5  and  N4_9 
REMARK    2  A    between atoms: N4_9  and  N5_11 
REMARK       I    between atoms: N5_11  and  C3_13 
REMARK    3  A    between atoms: C3_13  and  C4_15 
REMARK       I    between atoms: N6_19  and  C8_20 
REMARK       I    between atoms: C8_20  and  N7_22 
REMARK    4  A    between atoms: N7_22  and  N8_24 
ROOT
HETATM    1  N5  UNL     1       8.288   4.567  91.415  1.00  0.00    -0.255 N 
ATOM      2  H5  UNL     1       8.029   5.340  90.801  1.00  0.00     0.190 HD
HETATM    3  C3  UNL     1       9.133   4.809  92.519  1.00  0.00     0.242 C 
HETATM    4  O1  UNL     1       9.443   3.847  93.265  1.00  0.00    -0.271 OA
ENDROOT
BRANCH   3   5
HETATM    5  C4  UNL     1       9.687   6.144  92.860  1.00  0.00     0.098 C 
HETATM    6  C5  UNL     1       8.686   7.000  93.558  1.00  0.00     0.017 C 
HETATM    7  C6  UNL     1       9.033   7.408  94.948  1.00  0.00     0.021 C 
HETATM    8  C7  UNL     1      10.465   7.767  95.165  1.00  0.00     0.127 C 
HETATM    9  N6  UNL     1      11.408   7.043  94.369  1.00  0.00    -0.332 N 
HETATM   10  C8  UNL     1      12.747   7.448  94.338  1.00  0.00     0.336 C 
HETATM   11  C9  UNL     1      10.960   5.926  93.627  1.00  0.00     0.141 C 
HETATM   12  O2  UNL     1      13.581   6.822  93.643  1.00  0.00    -0.245 OA
HETATM   13  N7  UNL     1      13.168   8.565  95.091  1.00  0.00    -0.258 N 
ATOM     14  H7  UNL     1      12.483   9.070  95.655  1.00  0.00     0.191 HD
BRANCH  13  15
HETATM   15  N8  UNL     1      14.516   9.005  95.086  1.00  0.00    -0.341 N 
ATOM     16  H82 UNL     1      15.251   8.299  95.117  1.00  0.00     0.177 HD
ATOM     17  H81 UNL     1      14.757   9.996  95.052  1.00  0.00     0.177 HD
ENDBRANCH  13  15
ENDBRANCH   3   5
BRANCH   1  18
HETATM   18  N4  UNL     1       7.803   3.295  91.150  1.00  0.00    -0.129 N 
HETATM   19  C2  UNL     1       8.634   2.350  90.457  1.00  0.00     0.702 C 
HETATM   20  N2  UNL     1       8.054   1.222  89.819  1.00  0.00    -0.136 N 
HETATM   21  N3  UNL     1       9.912   2.512  90.405  1.00  0.00    -0.232 N 
ATOM     22  H2  UNL     1       7.574   1.351  88.929  1.00  0.00     0.201 HD
ATOM     23  H32 UNL     1      10.502   1.841  89.913  1.00  0.00     0.174 HD
ATOM     24  H31 UNL     1      10.329   3.323  90.864  1.00  0.00     0.174 HD
ATOM     25  H4  UNL     1       6.864   3.032  91.446  1.00  0.00     0.205 HD
BRANCH  20  26
HETATM   26  N1  UNL     1       8.121  -0.043  90.365  1.00  0.00    -0.131 NA
HETATM   27  C1  UNL     1       9.073  -0.905  89.699  1.00  0.00     0.159 C 
ENDBRANCH  20  26
ENDBRANCH   1  18
TORSDOF 4
ENDMDL
MODEL 2
REMARK VINA RESULT: -8.174656160      2.610      2.912
REMARK  4 active torsions:
REMARK  status: ('A' for Active; 'I' for Inactive)
REMARK    1  A    between atoms: N1_2  and  N2_3 
REMARK       I    between atoms: N2_3  and  C2_5 
REMARK       I    between atoms: C2_5  and  N4_9 
REMARK    2  A    between atoms: N4_9  and  N5_11 
REMARK       I    between atoms: N5_11  and  C3_13 
REMARK    3  A    between atoms: C3_13  and  C4_15 
REMARK       I    between atoms: N6_19  and  C8_20 
REMARK       I    between atoms: C8_20  and  N7_22 
REMARK    4  A    between atoms: N7_22  and  N8_24 
ROOT
HETATM    1  N5  UNL     1       7.724   5.675  92.937  1.00  0.00    -0.255 N 
ATOM      2  H5  UNL     1       7.164   6.521  93.046  1.00  0.00     0.190 HD
HETATM    3  C3  UNL     1       9.129   5.752  93.057  1.00  0.00     0.242 C 
HETATM    4  O1  UNL     1       9.805   4.702  92.920  1.00  0.00    -0.271 OA
ENDROOT
BRANCH   3   5
HETATM    5  C4  UNL     1       9.868   7.009  93.340  1.00  0.00     0.098 C 
HETATM    6  C5  UNL     1       9.054   7.965  94.143  1.00  0.00     0.017 C 
HETATM    7  C6  UNL     1       9.591   8.309  95.488  1.00  0.00     0.021 C 
HETATM    8  C7  UNL     1      11.070   8.497  95.552  1.00  0.00     0.127 C 
HETATM    9  N6  UNL     1      11.832   7.680  94.658  1.00  0.00    -0.332 N 
HETATM   10  C8  UNL     1      13.198   7.928  94.485  1.00  0.00     0.336 C 
HETATM   11  C9  UNL     1      11.180   6.634  93.966  1.00  0.00     0.141 C 
HETATM   12  O2  UNL     1      13.875   7.220  93.704  1.00  0.00    -0.245 OA
HETATM   13  N7  UNL     1      13.824   8.977  95.191  1.00  0.00    -0.258 N 
ATOM     14  H7  UNL     1      13.267   9.549  95.826  1.00  0.00     0.191 HD
BRANCH  13  15
HETATM   15  N8  UNL     1      15.206   9.258  95.043  1.00  0.00    -0.341 N 
ATOM     16  H82 UNL     1      15.560   9.445  94.105  1.00  0.00     0.177 HD
ATOM     17  H81 UNL     1      15.839   9.277  95.842  1.00  0.00     0.177 HD
ENDBRANCH  13  15
ENDBRANCH   3   5
BRANCH   1  18
HETATM   18  N4  UNL     1       7.094   4.468  92.671  1.00  0.00    -0.129 N 
HETATM   19  C2  UNL     1       6.646   3.648  93.762  1.00  0.00     0.702 C 
HETATM   20  N2  UNL     1       6.385   2.268  93.558  1.00  0.00    -0.136 N 
HETATM   21  N3  UNL     1       6.476   4.152  94.937  1.00  0.00    -0.232 N 
ATOM     22  H2  UNL     1       7.171   1.622  93.483  1.00  0.00     0.201 HD
ATOM     23  H32 UNL     1       6.157   3.569  95.712  1.00  0.00     0.174 HD
ATOM     24  H31 UNL     1       6.664   5.144  95.084  1.00  0.00     0.174 HD
ATOM     25  H4  UNL     1       6.950   4.166  91.709  1.00  0.00     0.205 HD
BRANCH  20  26
HETATM   26  N1  UNL     1       5.101   1.773  93.457  1.00  0.00    -0.131 NA
HETATM   27  C1  UNL     1       4.527   1.408  94.734  1.00  0.00     0.159 C 
ENDBRANCH  20  26
ENDBRANCH   1  18
TORSDOF 4
ENDMDL
MODEL 3
REMARK VINA RESULT: -7.906089215      6.025      9.453
REMARK  4 active torsions:
REMARK  status: ('A' for Active; 'I' for Inactive)
REMARK    1  A    between atoms: N1_2  and  N2_3 
REMARK       I    between atoms: N2_3  and  C2_5 
REMARK       I    between atoms: C2_5  and  N4_9 
REMARK    2  A    between atoms: N4_9  and  N5_11 
REMARK       I    between atoms: N5_11  and  C3_13 
REMARK    3  A    between atoms: C3_13  and  C4_15 
REMARK       I    between atoms: N6_19  and  C8_20 
REMARK       I    between atoms: C8_20  and  N7_22 
REMARK    4  A    between atoms: N7_22  and  N8_24 
ROOT
HETATM    1  N5  UNL     1       5.867   3.546  95.340  1.00  0.00    -0.255 N 
ATOM      2  H5  UNL     1       4.882   3.771  95.479  1.00  0.00     0.190 HD
HETATM    3  C3  UNL     1       6.277   2.195  95.324  1.00  0.00     0.242 C 
HETATM    4  O1  UNL     1       7.494   1.934  95.152  1.00  0.00    -0.271 OA
ENDROOT
BRANCH   3   5
HETATM    5  C4  UNL     1       5.351   1.048  95.500  1.00  0.00     0.098 C 
HETATM    6  C5  UNL     1       5.130   0.725  96.939  1.00  0.00     0.017 C 
HETATM    7  C6  UNL     1       3.734   0.873  97.434  1.00  0.00     0.021 C 
HETATM    8  C7  UNL     1       2.674   0.411  96.491  1.00  0.00     0.127 C 
HETATM    9  N6  UNL     1       2.969   0.584  95.102  1.00  0.00    -0.332 N 
HETATM   10  C8  UNL     1       2.145  -0.006  94.137  1.00  0.00     0.336 C 
HETATM   11  C9  UNL     1       4.096   1.354  94.734  1.00  0.00     0.141 C 
HETATM   12  O2  UNL     1       2.394   0.137  92.918  1.00  0.00    -0.245 OA
HETATM   13  N7  UNL     1       1.024  -0.767  94.533  1.00  0.00    -0.258 N 
ATOM     14  H7  UNL     1       0.826  -0.880  95.527  1.00  0.00     0.191 HD
BRANCH  13  15
HETATM   15  N8  UNL     1       0.165  -1.380  93.586  1.00  0.00    -0.341 N 
ATOM     16  H82 UNL     1      -0.085  -0.850  92.751  1.00  0.00     0.177 HD
ATOM     17  H81 UNL     1      -0.200  -2.323  93.722  1.00  0.00     0.177 HD
ENDBRANCH  13  15
ENDBRANCH   3   5
BRANCH   1  18
HETATM   18  N4  UNL     1       6.784   4.573  95.169  1.00  0.00    -0.129 N 
HETATM   19  C2  UNL     1       7.094   5.032  93.844  1.00  0.00     0.702 C 
HETATM   20  N2  UNL     1       8.288   5.762  93.602  1.00  0.00    -0.136 N 
HETATM   21  N3  UNL     1       6.298   4.789  92.860  1.00  0.00    -0.232 N 
ATOM     22  H2  UNL     1       9.175   5.261  93.564  1.00  0.00     0.201 HD
ATOM     23  H32 UNL     1       6.518   5.115  91.919  1.00  0.00     0.174 HD
ATOM     24  H31 UNL     1       5.440   4.264  93.033  1.00  0.00     0.174 HD
ATOM     25  H4  UNL     1       7.234   4.999  95.979  1.00  0.00     0.205 HD
BRANCH  20  26
HETATM   26  N1  UNL     1       8.285   7.129  93.418  1.00  0.00    -0.131 NA
HETATM   27  C1  UNL     1       8.686   7.866  94.596  1.00  0.00     0.159 C 
ENDBRANCH  20  26
ENDBRANCH   1  18
TORSDOF 4
ENDMDL
MODEL 4
REMARK VINA RESULT: -7.895079083      1.691      2.055
REMARK  4 active torsions:
REMARK  status: ('A' for Active; 'I' for Inactive)
REMARK    1  A    between atoms: N1_2  and  N2_3 
REMARK       I    between atoms: N2_3  and  C2_5 
REMARK       I    between atoms: C2_5  and  N4_9 
REMARK    2  A    between atoms: N4_9  and  N5_11 
REMARK       I    between atoms: N5_11  and  C3_13 
REMARK    3  A    between atoms: C3_13  and  C4_15 
REMARK       I    between atoms: N6_19  and  C8_20 
REMARK       I    between atoms: C8_20  and  N7_22 
REMARK    4  A    between atoms: N7_22  and  N8_24 
ROOT
HETATM    1  N5  UNL     1       9.528   3.675  90.989  1.00  0.00    -0.255 N 
ATOM      2  H5  UNL     1      10.408   4.190  91.026  1.00  0.00     0.190 HD
HETATM    3  C3  UNL     1       8.376   4.223  91.594  1.00  0.00     0.242 C 
HETATM    4  O1  UNL     1       7.300   3.577  91.539  1.00  0.00    -0.271 OA
ENDROOT
BRANCH   3   5
HETATM    5  C4  UNL     1       8.354   5.530  92.299  1.00  0.00     0.098 C 
HETATM    6  C5  UNL     1       7.100   5.719  93.082  1.00  0.00     0.017 C 
HETATM    7  C6  UNL     1       7.267   5.853  94.556  1.00  0.00     0.021 C 
HETATM    8  C7  UNL     1       8.439   6.669  94.991  1.00  0.00     0.127 C 
HETATM    9  N6  UNL     1       9.585   6.599  94.138  1.00  0.00    -0.332 N 
HETATM   10  C8  UNL     1      10.652   7.484  94.335  1.00  0.00     0.336 C 
HETATM   11  C9  UNL     1       9.614   5.631  93.109  1.00  0.00     0.141 C 
HETATM   12  O2  UNL     1      11.660   7.434  93.594  1.00  0.00    -0.245 OA
HETATM   13  N7  UNL     1      10.598   8.440  95.372  1.00  0.00    -0.258 N 
ATOM     14  H7  UNL     1       9.774   8.475  95.973  1.00  0.00     0.191 HD
BRANCH  13  15
HETATM   15  N8  UNL     1      11.659   9.352  95.604  1.00  0.00    -0.341 N 
ATOM     16  H82 UNL     1      12.252   9.202  96.420  1.00  0.00     0.177 HD
ATOM     17  H81 UNL     1      11.834  10.141  94.981  1.00  0.00     0.177 HD
ENDBRANCH  13  15
ENDBRANCH   3   5
BRANCH   1  18
HETATM   18  N4  UNL     1       9.482   2.448  90.344  1.00  0.00    -0.129 N 
HETATM   19  C2  UNL     1       9.461   1.240  91.122  1.00  0.00     0.702 C 
HETATM   20  N2  UNL     1       9.824   0.002  90.528  1.00  0.00    -0.136 N 
HETATM   21  N3  UNL     1       9.112   1.262  92.363  1.00  0.00    -0.232 N 
ATOM     22  H2  UNL     1      10.811  -0.198  90.368  1.00  0.00     0.201 HD
ATOM     23  H32 UNL     1       9.097   0.405  92.915  1.00  0.00     0.174 HD
ATOM     24  H31 UNL     1       8.852   2.152  92.789  1.00  0.00     0.174 HD
ATOM     25  H4  UNL     1       9.464   2.403  89.326  1.00  0.00     0.205 HD
BRANCH  20  26
HETATM   26  N1  UNL     1       8.883  -0.938  90.162  1.00  0.00    -0.131 NA
HETATM   27  C1  UNL     1       7.878  -0.420  89.260  1.00  0.00     0.159 C 
ENDBRANCH  20  26
ENDBRANCH   1  18
TORSDOF 4
ENDMDL
MODEL 5
REMARK VINA RESULT: -7.798303907      4.891      6.048
REMARK  4 active torsions:
REMARK  status: ('A' for Active; 'I' for Inactive)
REMARK    1  A    between atoms: N1_2  and  N2_3 
REMARK       I    between atoms: N2_3  and  C2_5 
REMARK       I    between atoms: C2_5  and  N4_9 
REMARK    2  A    between atoms: N4_9  and  N5_11 
REMARK       I    between atoms: N5_11  and  C3_13 
REMARK    3  A    between atoms: C3_13  and  C4_15 
REMARK       I    between atoms: N6_19  and  C8_20 
REMARK       I    between atoms: C8_20  and  N7_22 
REMARK    4  A    between atoms: N7_22  and  N8_24 
ROOT
HETATM    1  N5  UNL     1       4.748   2.104  94.134  1.00  0.00    -0.255 N 
ATOM      2  H5  UNL     1       4.661   3.068  93.812  1.00  0.00     0.190 HD
HETATM    3  C3  UNL     1       6.015   1.612  94.519  1.00  0.00     0.242 C 
HETATM    4  O1  UNL     1       6.107   0.423  94.913  1.00  0.00    -0.271 OA
ENDROOT
BRANCH   3   5
HETATM    5  C4  UNL     1       7.261   2.420  94.486  1.00  0.00     0.098 C 
HETATM    6  C5  UNL     1       8.360   1.720  93.764  1.00  0.00     0.017 C 
HETATM    7  C6  UNL     1       8.864   2.392  92.535  1.00  0.00     0.021 C 
HETATM    8  C7  UNL     1       8.985   3.876  92.627  1.00  0.00     0.127 C 
HETATM    9  N6  UNL     1       8.013   4.521  93.455  1.00  0.00    -0.332 N 
HETATM   10  C8  UNL     1       8.165   5.874  93.780  1.00  0.00     0.336 C 
HETATM   11  C9  UNL     1       6.913   3.770  93.929  1.00  0.00     0.141 C 
HETATM   12  O2  UNL     1       7.320   6.449  94.505  1.00  0.00    -0.245 OA
HETATM   13  N7  UNL     1       9.271   6.601  93.291  1.00  0.00    -0.258 N 
ATOM     14  H7  UNL     1       9.954   6.127  92.700  1.00  0.00     0.191 HD
BRANCH  13  15
HETATM   15  N8  UNL     1       9.459   7.972  93.597  1.00  0.00    -0.341 N 
ATOM     16  H82 UNL     1       8.695   8.618  93.396  1.00  0.00     0.177 HD
ATOM     17  H81 UNL     1      10.327   8.318  94.007  1.00  0.00     0.177 HD
ENDBRANCH  13  15
ENDBRANCH   3   5
BRANCH   1  18
HETATM   18  N4  UNL     1       3.622   1.297  94.188  1.00  0.00    -0.129 N 
HETATM   19  C2  UNL     1       2.350   1.829  93.783  1.00  0.00     0.702 C 
HETATM   20  N2  UNL     1       1.147   1.200  94.200  1.00  0.00    -0.136 N 
HETATM   21  N3  UNL     1       2.283   2.879  93.038  1.00  0.00    -0.232 N 
ATOM     22  H2  UNL     1       0.824   1.338  95.158  1.00  0.00     0.201 HD
ATOM     23  H32 UNL     1       1.380   3.256  92.750  1.00  0.00     0.174 HD
ATOM     24  H31 UNL     1       3.147   3.331  92.739  1.00  0.00     0.174 HD
ATOM     25  H4  UNL     1       3.695   0.334  94.512  1.00  0.00     0.205 HD
BRANCH  20  26
HETATM   26  N1  UNL     1       0.402   0.409  93.351  1.00  0.00    -0.131 NA
HETATM   27  C1  UNL     1       0.987  -0.894  93.123  1.00  0.00     0.159 C 
ENDBRANCH  20  26
ENDBRANCH   1  18
TORSDOF 4
ENDMDL
