MODEL 1
REMARK VINA RESULT: -7.974758392      0.000      0.000
REMARK  10 active torsions:
REMARK  status: ('A' for Active; 'I' for Inactive)
REMARK    1  A    between atoms: N1_2  and  C2_3 
REMARK    2  A    between atoms: N1_2  and  C7_8 
REMARK    3  A    between atoms: C2_3  and  C3_4 
REMARK    4  A    between atoms: C8_11  and  N3_12 
REMARK    5  A    between atoms: N3_12  and  C9_14 
REMARK    6  A    between atoms: C12_19  and  O1_20 
REMARK    7  A    between atoms: O1_20  and  C13_21 
REMARK    8  A    between atoms: C13_21  and  C14_22 
REMARK    9  A    between atoms: C17_28  and  N6_29 
REMARK   10  A    between atoms: N6_29  and  N7_30 
ROOT
HETATM    1  C7  UNL     1      33.672  18.758   3.499  1.00  0.00     0.697 A 
HETATM    2  N2  UNL     1      33.146  17.526   3.671  1.00  0.00    -0.022 N 
ATOM      3  H2  UNL     1      33.322  17.037   4.549  1.00  0.00     0.203 HD
HETATM    4  C8  UNL     1      32.403  16.921   2.735  1.00  0.00     0.696 A 
HETATM    5  N4  UNL     1      32.190  17.587   1.590  1.00  0.00    -0.154 N 
ATOM      6  H4  UNL     1      31.627  17.141   0.865  1.00  0.00     0.188 HD
HETATM    7  C12 UNL     1      32.685  18.815   1.353  1.00  0.00     0.252 A 
HETATM    8  N9  UNL     1      33.436  19.391   2.340  1.00  0.00    -0.154 N 
ATOM      9  H9  UNL     1      33.826  20.322   2.191  1.00  0.00     0.188 HD
ENDROOT
BRANCH   7  10
HETATM   10  O1  UNL     1      32.473  19.515   0.175  1.00  0.00    -0.317 OA
BRANCH  10  11
HETATM   11  C13 UNL     1      31.853  20.768   0.254  1.00  0.00     0.240 C 
BRANCH  11  12
HETATM   12  C14 UNL     1      31.157  21.170  -1.016  1.00  0.00     0.220 C 
HETATM   13  C15 UNL     1      32.180  21.025  -2.150  1.00  0.00     0.073 C 
HETATM   14  N5  UNL     1      30.717  22.527  -1.024  1.00  0.00    -0.324 N 
HETATM   15  C16 UNL     1      29.672  22.624  -1.968  1.00  0.00     0.268 C 
ATOM     16  H5  UNL     1      31.088  23.286  -0.453  1.00  0.00     0.165 HD
HETATM   17  O2  UNL     1      29.229  23.632  -2.543  1.00  0.00    -0.270 OA
HETATM   18  C17 UNL     1      29.168  21.236  -2.165  1.00  0.00     0.391 C 
HETATM   19  N8  UNL     1      29.969  20.419  -1.276  1.00  0.00    -0.018 N 
ATOM     20  H82 UNL     1      30.150  19.482  -1.638  1.00  0.00     0.282 HD
ATOM     21  H81 UNL     1      29.476  20.132  -0.431  1.00  0.00     0.282 HD
BRANCH  18  22
HETATM   22  N6  UNL     1      29.350  20.792  -3.533  1.00  0.00    -0.105 NA
BRANCH  22  23
HETATM   23  N7  UNL     1      28.703  21.597  -4.449  1.00  0.00    -0.346 N 
ATOM     24  H72 UNL     1      27.878  22.150  -4.212  1.00  0.00     0.172 HD
ATOM     25  H71 UNL     1      29.136  21.576  -5.373  1.00  0.00     0.172 HD
ENDBRANCH  22  23
ENDBRANCH  18  22
ENDBRANCH  11  12
ENDBRANCH  10  11
ENDBRANCH   7  10
BRANCH   4  26
HETATM   26  N3  UNL     1      31.936  15.764   2.950  1.00  0.00    -0.221 N 
ATOM     27  H3  UNL     1      31.257  15.691   3.707  1.00  0.00     0.178 HD
BRANCH  26  28
HETATM   28  C9  UNL     1      32.238  14.553   2.269  1.00  0.00     0.099 A 
HETATM   29  C10 UNL     1      33.262  13.592   2.716  1.00  0.00     0.028 A 
HETATM   30  C11 UNL     1      33.444  14.416   1.407  1.00  0.00     0.028 A 
ENDBRANCH  26  28
ENDBRANCH   4  26
BRANCH   1  31
HETATM   31  N1  UNL     1      34.460  19.331   4.557  1.00  0.00    -0.221 N 
HETATM   32  C1  UNL     1      35.127  18.498   5.536  1.00  0.00     0.168 C 
BRANCH  31  33
HETATM   33  C2  UNL     1      34.611  20.767   4.684  1.00  0.00     0.145 C 
BRANCH  33  34
HETATM   34  C3  UNL     1      36.074  21.107   4.571  1.00  0.00     0.004 C 
HETATM   35  C4  UNL     1      36.509  22.245   5.506  1.00  0.00     0.006 C 
HETATM   36  C5  UNL     1      37.372  22.787   4.379  1.00  0.00     0.001 C 
HETATM   37  C6  UNL     1      36.409  22.059   3.426  1.00  0.00     0.006 C 
ENDBRANCH  33  34
ENDBRANCH  31  33
ENDBRANCH   1  31
TORSDOF 10
ENDMDL
MODEL 2
REMARK VINA RESULT: -7.934810623      1.027      1.236
REMARK  10 active torsions:
REMARK  status: ('A' for Active; 'I' for Inactive)
REMARK    1  A    between atoms: N1_2  and  C2_3 
REMARK    2  A    between atoms: N1_2  and  C7_8 
REMARK    3  A    between atoms: C2_3  and  C3_4 
REMARK    4  A    between atoms: C8_11  and  N3_12 
REMARK    5  A    between atoms: N3_12  and  C9_14 
REMARK    6  A    between atoms: C12_19  and  O1_20 
REMARK    7  A    between atoms: O1_20  and  C13_21 
REMARK    8  A    between atoms: C13_21  and  C14_22 
REMARK    9  A    between atoms: C17_28  and  N6_29 
REMARK   10  A    between atoms: N6_29  and  N7_30 
ROOT
HETATM    1  C7  UNL     1      33.679  18.760   3.494  1.00  0.00     0.697 A 
HETATM    2  N2  UNL     1      33.131  17.535   3.639  1.00  0.00    -0.022 N 
ATOM      3  H2  UNL     1      33.274  17.035   4.516  1.00  0.00     0.203 HD
HETATM    4  C8  UNL     1      32.407  16.949   2.675  1.00  0.00     0.696 A 
HETATM    5  N4  UNL     1      32.237  17.629   1.531  1.00  0.00    -0.154 N 
ATOM      6  H4  UNL     1      31.689  17.199   0.785  1.00  0.00     0.188 HD
HETATM    7  C12 UNL     1      32.756  18.852   1.321  1.00  0.00     0.252 A 
HETATM    8  N9  UNL     1      33.486  19.407   2.335  1.00  0.00    -0.154 N 
ATOM      9  H9  UNL     1      33.893  20.334   2.207  1.00  0.00     0.188 HD
ENDROOT
BRANCH   7  10
HETATM   10  O1  UNL     1      32.589  19.567   0.144  1.00  0.00    -0.317 OA
BRANCH  10  11
HETATM   11  C13 UNL     1      31.678  20.629   0.141  1.00  0.00     0.240 C 
BRANCH  11  12
HETATM   12  C14 UNL     1      30.972  20.806  -1.174  1.00  0.00     0.220 C 
HETATM   13  C15 UNL     1      29.925  19.690  -1.272  1.00  0.00     0.073 C 
HETATM   14  N5  UNL     1      31.828  20.674  -2.308  1.00  0.00    -0.324 N 
HETATM   15  C16 UNL     1      31.213  21.355  -3.380  1.00  0.00     0.268 C 
ATOM     16  H5  UNL     1      32.719  20.179  -2.337  1.00  0.00     0.165 HD
HETATM   17  O2  UNL     1      31.410  21.231  -4.600  1.00  0.00    -0.270 OA
HETATM   18  C17 UNL     1      30.239  22.297  -2.762  1.00  0.00     0.391 C 
HETATM   19  N8  UNL     1      30.383  22.099  -1.334  1.00  0.00    -0.018 N 
ATOM     20  H82 UNL     1      29.511  22.216  -0.817  1.00  0.00     0.282 HD
ATOM     21  H81 UNL     1      30.903  22.843  -0.870  1.00  0.00     0.282 HD
BRANCH  18  22
HETATM   22  N6  UNL     1      28.878  21.994  -3.162  1.00  0.00    -0.105 NA
BRANCH  22  23
HETATM   23  N7  UNL     1      28.709  21.992  -4.532  1.00  0.00    -0.346 N 
ATOM     24  H72 UNL     1      28.957  22.790  -5.119  1.00  0.00     0.172 HD
ATOM     25  H71 UNL     1      28.315  21.119  -4.883  1.00  0.00     0.172 HD
ENDBRANCH  22  23
ENDBRANCH  18  22
ENDBRANCH  11  12
ENDBRANCH  10  11
ENDBRANCH   7  10
BRANCH   4  26
HETATM   26  N3  UNL     1      31.917  15.797   2.865  1.00  0.00    -0.221 N 
ATOM     27  H3  UNL     1      31.208  15.730   3.594  1.00  0.00     0.178 HD
BRANCH  26  28
HETATM   28  C9  UNL     1      32.231  14.586   2.190  1.00  0.00     0.099 A 
HETATM   29  C10 UNL     1      33.199  13.593   2.689  1.00  0.00     0.028 A 
HETATM   30  C11 UNL     1      33.486  14.427   1.405  1.00  0.00     0.028 A 
ENDBRANCH  26  28
ENDBRANCH   4  26
BRANCH   1  31
HETATM   31  N1  UNL     1      34.444  19.312   4.580  1.00  0.00    -0.221 N 
HETATM   32  C1  UNL     1      35.028  18.464   5.598  1.00  0.00     0.168 C 
BRANCH  31  33
HETATM   33  C2  UNL     1      34.654  20.742   4.696  1.00  0.00     0.145 C 
BRANCH  33  34
HETATM   34  C3  UNL     1      36.135  21.015   4.636  1.00  0.00     0.004 C 
HETATM   35  C4  UNL     1      36.577  22.178   5.536  1.00  0.00     0.006 C 
HETATM   36  C5  UNL     1      37.511  22.628   4.425  1.00  0.00     0.001 C 
HETATM   37  C6  UNL     1      36.560  21.895   3.464  1.00  0.00     0.006 C 
ENDBRANCH  33  34
ENDBRANCH  31  33
ENDBRANCH   1  31
TORSDOF 10
ENDMDL
MODEL 3
REMARK VINA RESULT: -7.870983425      1.419      2.492
REMARK  10 active torsions:
REMARK  status: ('A' for Active; 'I' for Inactive)
REMARK    1  A    between atoms: N1_2  and  C2_3 
REMARK    2  A    between atoms: N1_2  and  C7_8 
REMARK    3  A    between atoms: C2_3  and  C3_4 
REMARK    4  A    between atoms: C8_11  and  N3_12 
REMARK    5  A    between atoms: N3_12  and  C9_14 
REMARK    6  A    between atoms: C12_19  and  O1_20 
REMARK    7  A    between atoms: O1_20  and  C13_21 
REMARK    8  A    between atoms: C13_21  and  C14_22 
REMARK    9  A    between atoms: C17_28  and  N6_29 
REMARK   10  A    between atoms: N6_29  and  N7_30 
ROOT
HETATM    1  C7  UNL     1      33.759  18.773   3.489  1.00  0.00     0.697 A 
HETATM    2  N2  UNL     1      33.181  17.568   3.681  1.00  0.00    -0.022 N 
ATOM      3  H2  UNL     1      33.335  17.087   4.567  1.00  0.00     0.203 HD
HETATM    4  C8  UNL     1      32.412  16.980   2.754  1.00  0.00     0.696 A 
HETATM    5  N4  UNL     1      32.228  17.636   1.598  1.00  0.00    -0.154 N 
ATOM      6  H4  UNL     1      31.646  17.203   0.880  1.00  0.00     0.188 HD
HETATM    7  C12 UNL     1      32.776  18.838   1.342  1.00  0.00     0.252 A 
HETATM    8  N9  UNL     1      33.551  19.396   2.319  1.00  0.00    -0.154 N 
ATOM      9  H9  UNL     1      33.980  20.307   2.156  1.00  0.00     0.188 HD
ENDROOT
BRANCH   7  10
HETATM   10  O1  UNL     1      32.594  19.527   0.152  1.00  0.00    -0.317 OA
BRANCH  10  11
HETATM   11  C13 UNL     1      31.675  20.583   0.134  1.00  0.00     0.240 C 
BRANCH  11  12
HETATM   12  C14 UNL     1      30.973  20.740  -1.186  1.00  0.00     0.220 C 
HETATM   13  C15 UNL     1      29.955  19.597  -1.288  1.00  0.00     0.073 C 
HETATM   14  N5  UNL     1      31.838  20.629  -2.314  1.00  0.00    -0.324 N 
HETATM   15  C16 UNL     1      31.213  21.292  -3.391  1.00  0.00     0.268 C 
ATOM     16  H5  UNL     1      32.742  20.157  -2.337  1.00  0.00     0.165 HD
HETATM   17  O2  UNL     1      31.419  21.172  -4.610  1.00  0.00    -0.270 OA
HETATM   18  C17 UNL     1      30.211  22.209  -2.779  1.00  0.00     0.391 C 
HETATM   19  N8  UNL     1      30.352  22.017  -1.350  1.00  0.00    -0.018 N 
ATOM     20  H82 UNL     1      29.475  22.113  -0.838  1.00  0.00     0.282 HD
ATOM     21  H81 UNL     1      30.850  22.775  -0.884  1.00  0.00     0.282 HD
BRANCH  18  22
HETATM   22  N6  UNL     1      28.861  21.871  -3.187  1.00  0.00    -0.105 NA
BRANCH  22  23
HETATM   23  N7  UNL     1      28.694  21.887  -4.557  1.00  0.00    -0.346 N 
ATOM     24  H72 UNL     1      27.777  21.820  -5.001  1.00  0.00     0.172 HD
ATOM     25  H71 UNL     1      29.575  21.972  -5.063  1.00  0.00     0.172 HD
ENDBRANCH  22  23
ENDBRANCH  18  22
ENDBRANCH  11  12
ENDBRANCH  10  11
ENDBRANCH   7  10
BRANCH   4  26
HETATM   26  N3  UNL     1      31.895  15.848   2.987  1.00  0.00    -0.221 N 
ATOM     27  H3  UNL     1      30.946  15.861   3.361  1.00  0.00     0.178 HD
BRANCH  26  28
HETATM   28  C9  UNL     1      32.469  14.562   2.794  1.00  0.00     0.099 A 
HETATM   29  C10 UNL     1      33.333  14.210   1.654  1.00  0.00     0.028 A 
HETATM   30  C11 UNL     1      31.912  13.593   1.812  1.00  0.00     0.028 A 
ENDBRANCH  26  28
ENDBRANCH   4  26
BRANCH   1  31
HETATM   31  N1  UNL     1      34.571  19.329   4.538  1.00  0.00    -0.221 N 
HETATM   32  C1  UNL     1      35.033  20.700   4.488  1.00  0.00     0.168 C 
BRANCH  31  33
HETATM   33  C2  UNL     1      34.959  18.531   5.685  1.00  0.00     0.145 C 
BRANCH  33  34
HETATM   34  C3  UNL     1      36.385  18.084   5.498  1.00  0.00     0.004 C 
HETATM   35  C4  UNL     1      36.522  16.578   5.235  1.00  0.00     0.006 C 
HETATM   36  C5  UNL     1      37.742  16.571   6.140  1.00  0.00     0.001 C 
HETATM   37  C6  UNL     1      37.133  17.819   6.802  1.00  0.00     0.006 C 
ENDBRANCH  33  34
ENDBRANCH  31  33
ENDBRANCH   1  31
TORSDOF 10
ENDMDL
MODEL 4
REMARK VINA RESULT: -7.504614675      1.279      1.708
REMARK  10 active torsions:
REMARK  status: ('A' for Active; 'I' for Inactive)
REMARK    1  A    between atoms: N1_2  and  C2_3 
REMARK    2  A    between atoms: N1_2  and  C7_8 
REMARK    3  A    between atoms: C2_3  and  C3_4 
REMARK    4  A    between atoms: C8_11  and  N3_12 
REMARK    5  A    between atoms: N3_12  and  C9_14 
REMARK    6  A    between atoms: C12_19  and  O1_20 
REMARK    7  A    between atoms: O1_20  and  C13_21 
REMARK    8  A    between atoms: C13_21  and  C14_22 
REMARK    9  A    between atoms: C17_28  and  N6_29 
REMARK   10  A    between atoms: N6_29  and  N7_30 
ROOT
HETATM    1  C7  UNL     1      34.034  20.086   2.281  1.00  0.00     0.697 A 
HETATM    2  N2  UNL     1      33.875  18.819   2.721  1.00  0.00    -0.022 N 
ATOM      3  H2  UNL     1      34.422  18.507   3.523  1.00  0.00     0.203 HD
HETATM    4  C8  UNL     1      33.028  17.956   2.145  1.00  0.00     0.696 A 
HETATM    5  N4  UNL     1      32.323  18.393   1.090  1.00  0.00    -0.154 N 
ATOM      6  H4  UNL     1      31.672  17.750   0.638  1.00  0.00     0.188 HD
HETATM    7  C12 UNL     1      32.433  19.642   0.602  1.00  0.00     0.252 A 
HETATM    8  N9  UNL     1      33.311  20.485   1.225  1.00  0.00    -0.154 N 
ATOM      9  H9  UNL     1      33.418  21.438   0.878  1.00  0.00     0.188 HD
ENDROOT
BRANCH   7  10
HETATM   10  O1  UNL     1      31.711  20.108  -0.487  1.00  0.00    -0.317 OA
BRANCH  10  11
HETATM   11  C13 UNL     1      31.460  21.482  -0.574  1.00  0.00     0.240 C 
BRANCH  11  12
HETATM   12  C14 UNL     1      30.782  21.885  -1.853  1.00  0.00     0.220 C 
HETATM   13  C15 UNL     1      31.837  22.589  -2.715  1.00  0.00     0.073 C 
HETATM   14  N5  UNL     1      29.712  22.810  -1.668  1.00  0.00    -0.324 N 
HETATM   15  C16 UNL     1      28.861  22.698  -2.788  1.00  0.00     0.268 C 
ATOM     16  H5  UNL     1      29.585  23.436  -0.873  1.00  0.00     0.165 HD
HETATM   17  O2  UNL     1      28.021  23.506  -3.216  1.00  0.00    -0.270 OA
HETATM   18  C17 UNL     1      29.160  21.372  -3.397  1.00  0.00     0.391 C 
HETATM   19  N8  UNL     1      30.177  20.790  -2.545  1.00  0.00    -0.018 N 
ATOM     20  H82 UNL     1      30.846  20.208  -3.050  1.00  0.00     0.282 HD
ATOM     21  H81 UNL     1      29.823  20.062  -1.925  1.00  0.00     0.282 HD
BRANCH  18  22
HETATM   22  N6  UNL     1      29.673  21.509  -4.747  1.00  0.00    -0.105 NA
BRANCH  22  23
HETATM   23  N7  UNL     1      28.812  22.192  -5.582  1.00  0.00    -0.346 N 
ATOM     24  H72 UNL     1      28.984  22.301  -6.582  1.00  0.00     0.172 HD
ATOM     25  H71 UNL     1      27.998  22.566  -5.093  1.00  0.00     0.172 HD
ENDBRANCH  22  23
ENDBRANCH  18  22
ENDBRANCH  11  12
ENDBRANCH  10  11
ENDBRANCH   7  10
BRANCH   4  26
HETATM   26  N3  UNL     1      32.919  16.779   2.598  1.00  0.00    -0.221 N 
ATOM     27  H3  UNL     1      33.045  16.676   3.605  1.00  0.00     0.178 HD
BRANCH  26  28
HETATM   28  C9  UNL     1      32.645  15.582   1.882  1.00  0.00     0.099 A 
HETATM   29  C10 UNL     1      31.952  14.418   2.460  1.00  0.00     0.028 A 
HETATM   30  C11 UNL     1      33.458  14.350   2.070  1.00  0.00     0.028 A 
ENDBRANCH  26  28
ENDBRANCH   4  26
BRANCH   1  31
HETATM   31  N1  UNL     1      34.968  20.944   2.959  1.00  0.00    -0.221 N 
HETATM   32  C1  UNL     1      35.670  21.999   2.258  1.00  0.00     0.168 C 
BRANCH  31  33
HETATM   33  C2  UNL     1      35.244  20.780   4.373  1.00  0.00     0.145 C 
BRANCH  33  34
HETATM   34  C3  UNL     1      36.569  21.427   4.681  1.00  0.00     0.004 C 
HETATM   35  C4  UNL     1      37.425  20.624   5.671  1.00  0.00     0.006 C 
HETATM   36  C5  UNL     1      37.819  21.934   6.332  1.00  0.00     0.001 C 
HETATM   37  C6  UNL     1      36.504  22.498   5.767  1.00  0.00     0.006 C 
ENDBRANCH  33  34
ENDBRANCH  31  33
ENDBRANCH   1  31
TORSDOF 10
ENDMDL
MODEL 5
REMARK VINA RESULT: -7.455672063      3.372      7.751
REMARK  10 active torsions:
REMARK  status: ('A' for Active; 'I' for Inactive)
REMARK    1  A    between atoms: N1_2  and  C2_3 
REMARK    2  A    between atoms: N1_2  and  C7_8 
REMARK    3  A    between atoms: C2_3  and  C3_4 
REMARK    4  A    between atoms: C8_11  and  N3_12 
REMARK    5  A    between atoms: N3_12  and  C9_14 
REMARK    6  A    between atoms: C12_19  and  O1_20 
REMARK    7  A    between atoms: O1_20  and  C13_21 
REMARK    8  A    between atoms: C13_21  and  C14_22 
REMARK    9  A    between atoms: C17_28  and  N6_29 
REMARK   10  A    between atoms: N6_29  and  N7_30 
ROOT
HETATM    1  C7  UNL     1      33.451  20.048   2.358  1.00  0.00     0.697 A 
HETATM    2  N2  UNL     1      32.784  18.874   2.366  1.00  0.00    -0.022 N 
ATOM      3  H2  UNL     1      32.211  18.631   1.557  1.00  0.00     0.203 HD
HETATM    4  C8  UNL     1      32.843  18.017   3.394  1.00  0.00     0.696 A 
HETATM    5  N4  UNL     1      33.603  18.364   4.444  1.00  0.00    -0.154 N 
ATOM      6  H4  UNL     1      33.660  17.724   5.237  1.00  0.00     0.188 HD
HETATM    7  C12 UNL     1      34.292  19.518   4.501  1.00  0.00     0.252 A 
HETATM    8  N9  UNL     1      34.199  20.359   3.427  1.00  0.00    -0.154 N 
ATOM      9  H9  UNL     1      34.710  21.242   3.439  1.00  0.00     0.188 HD
ENDROOT
BRANCH   7  10
HETATM   10  O1  UNL     1      35.081  19.890   5.579  1.00  0.00    -0.317 OA
BRANCH  10  11
HETATM   11  C13 UNL     1      36.453  19.625   5.516  1.00  0.00     0.240 C 
BRANCH  11  12
HETATM   12  C14 UNL     1      37.302  20.865   5.522  1.00  0.00     0.220 C 
HETATM   13  C15 UNL     1      38.274  20.745   4.342  1.00  0.00     0.073 C 
HETATM   14  N5  UNL     1      38.093  21.014   6.699  1.00  0.00    -0.324 N 
HETATM   15  C16 UNL     1      38.404  22.385   6.826  1.00  0.00     0.268 C 
ATOM     16  H5  UNL     1      38.380  20.268   7.332  1.00  0.00     0.165 HD
HETATM   17  O2  UNL     1      39.314  22.923   7.478  1.00  0.00    -0.270 OA
HETATM   18  C17 UNL     1      37.397  23.110   6.001  1.00  0.00     0.391 C 
HETATM   19  N8  UNL     1      36.542  22.074   5.460  1.00  0.00    -0.018 N 
ATOM     20  H82 UNL     1      36.187  22.285   4.527  1.00  0.00     0.282 HD
ATOM     21  H81 UNL     1      35.636  22.009   5.924  1.00  0.00     0.282 HD
BRANCH  18  22
HETATM   22  N6  UNL     1      38.025  23.841   4.917  1.00  0.00    -0.105 NA
BRANCH  22  23
HETATM   23  N7  UNL     1      38.905  24.808   5.360  1.00  0.00    -0.346 N 
ATOM     24  H72 UNL     1      39.866  24.874   5.023  1.00  0.00     0.172 HD
ATOM     25  H71 UNL     1      38.491  25.435   6.049  1.00  0.00     0.172 HD
ENDBRANCH  22  23
ENDBRANCH  18  22
ENDBRANCH  11  12
ENDBRANCH  10  11
ENDBRANCH   7  10
BRANCH   4  26
HETATM   26  N3  UNL     1      32.196  16.930   3.348  1.00  0.00    -0.221 N 
ATOM     27  H3  UNL     1      31.686  16.680   4.195  1.00  0.00     0.178 HD
BRANCH  26  28
HETATM   28  C9  UNL     1      32.090  16.013   2.267  1.00  0.00     0.099 A 
HETATM   29  C10 UNL     1      32.103  14.548   2.427  1.00  0.00     0.028 A 
HETATM   30  C11 UNL     1      33.277  15.295   1.728  1.00  0.00     0.028 A 
ENDBRANCH  26  28
ENDBRANCH   4  26
BRANCH   1  31
HETATM   31  N1  UNL     1      33.327  20.909   1.212  1.00  0.00    -0.221 N 
HETATM   32  C1  UNL     1      34.174  22.072   1.048  1.00  0.00     0.168 C 
BRANCH  31  33
HETATM   33  C2  UNL     1      32.343  20.645   0.180  1.00  0.00     0.145 C 
BRANCH  33  34
HETATM   34  C3  UNL     1      32.427  21.737  -0.854  1.00  0.00     0.004 C 
HETATM   35  C4  UNL     1      31.057  22.175  -1.390  1.00  0.00     0.006 C 
HETATM   36  C5  UNL     1      31.671  22.254  -2.778  1.00  0.00     0.001 C 
HETATM   37  C6  UNL     1      32.706  21.237  -2.269  1.00  0.00     0.006 C 
ENDBRANCH  33  34
ENDBRANCH  31  33
ENDBRANCH   1  31
TORSDOF 10
ENDMDL
