MODEL 1
REMARK VINA RESULT: -8.063610915      0.000      0.000
REMARK  11 active torsions:
REMARK  status: ('A' for Active; 'I' for Inactive)
REMARK    1  A    between atoms: N2_4  and  C3_5 
REMARK    2  A    between atoms: C3_5  and  O1_6 
REMARK    3  A    between atoms: C3_5  and  C4_8 
REMARK    4  A    between atoms: C4_8  and  N3_9 
REMARK    5  A    between atoms: N3_9  and  N4_11 
REMARK       I    between atoms: N4_11  and  C5_13 
REMARK    6  A    between atoms: C5_13  and  C6_15 
REMARK    7  A    between atoms: C11_25  and  O3_26 
REMARK    8  A    between atoms: C11_25  and  C12_28 
REMARK    9  A    between atoms: C12_28  and  O4_29 
REMARK   10  A    between atoms: C12_28  and  O5_31 
REMARK   11  A    between atoms: C14_34  and  N7_35 
ROOT
HETATM    1  C4  UNL     1      27.466  26.054  -4.797  1.00  0.00     0.134 C 
HETATM    2  C11 UNL     1      26.069  26.346  -4.668  1.00  0.00     0.130 C 
ENDROOT
BRANCH   1   3
HETATM    3  C3  UNL     1      28.605  26.813  -4.973  1.00  0.00     0.179 C 
BRANCH   3   4
HETATM    4  N2  UNL     1      29.083  28.121  -4.819  1.00  0.00    -0.293 N 
HETATM    5  C2  UNL     1      30.235  28.499  -4.161  1.00  0.00     0.194 A 
HETATM    6  N1  UNL     1      30.341  29.821  -4.075  1.00  0.00    -0.327 N 
HETATM    7  C1  UNL     1      31.402  30.606  -3.460  1.00  0.00     0.159 C 
HETATM    8  C14 UNL     1      29.286  30.368  -4.660  1.00  0.00     0.192 A 
HETATM    9  C13 UNL     1      28.523  29.283  -5.112  1.00  0.00     0.155 A 
BRANCH   8  10
HETATM   10  N7  UNL     1      28.984  31.758  -4.805  1.00  0.00    -0.096 N 
HETATM   11  O6  UNL     1      29.359  32.409  -5.804  1.00  0.00    -0.530 OA
HETATM   12  O7  UNL     1      28.267  32.398  -3.825  1.00  0.00    -0.530 OA
ENDBRANCH   8  10
ENDBRANCH   3   4
BRANCH   3  13
HETATM   13  O1  UNL     1      29.634  26.061  -5.449  1.00  0.00    -0.344 OA
ATOM     14  H1  UNL     1      29.460  25.159  -5.206  1.00  0.00     0.219 HD
ENDBRANCH   3  13
ENDBRANCH   1   3
BRANCH   1  15
HETATM   15  N3  UNL     1      27.621  24.722  -4.769  1.00  0.00    -0.291 N 
ATOM     16  H3  UNL     1      27.275  24.220  -5.587  1.00  0.00     0.187 HD
BRANCH  15  17
HETATM   17  N4  UNL     1      28.158  23.974  -3.827  1.00  0.00    -0.264 N 
HETATM   18  C5  UNL     1      29.226  23.013  -4.015  1.00  0.00     0.286 C 
HETATM   19  O2  UNL     1      29.675  22.888  -5.200  1.00  0.00    -0.264 OA
ATOM     20  H4  UNL     1      27.791  24.081  -2.882  1.00  0.00     0.190 HD
BRANCH  18  21
HETATM   21  C6  UNL     1      29.793  22.213  -2.975  1.00  0.00     0.103 A 
HETATM   22  C7  UNL     1      30.798  22.713  -2.175  1.00  0.00     0.035 A 
HETATM   23  C8  UNL     1      31.363  21.950  -1.160  1.00  0.00     0.006 A 
HETATM   24  C9  UNL     1      30.903  20.669  -0.954  1.00  0.00     0.048 A 
HETATM   25  C10 UNL     1      29.912  20.181  -1.744  1.00  0.00     0.099 A 
HETATM   26  N5  UNL     1      29.458  18.989  -1.580  1.00  0.00    -0.385 N 
HETATM   27  N6  UNL     1      29.391  20.972  -2.730  1.00  0.00    -0.338 N 
ATOM     28  H52 UNL     1      29.847  18.399  -0.845  1.00  0.00     0.157 HD
ATOM     29  H51 UNL     1      28.714  18.623  -2.174  1.00  0.00     0.157 HD
ATOM     30  H6  UNL     1      28.648  20.585  -3.312  1.00  0.00     0.167 HD
ENDBRANCH  18  21
ENDBRANCH  15  17
ENDBRANCH   1  15
BRANCH   2  31
HETATM   31  O3  UNL     1      25.296  25.248  -4.398  1.00  0.00    -0.358 OA
ATOM     32  H3  UNL     1      24.362  25.409  -4.468  1.00  0.00     0.217 HD
ENDBRANCH   2  31
BRANCH   2  33
HETATM   33  C12 UNL     1      25.229  27.495  -4.757  1.00  0.00     0.314 C 
BRANCH  33  34
HETATM   34  O4  UNL     1      25.408  28.556  -3.914  1.00  0.00    -0.365 OA
ATOM     35  H4  UNL     1      24.666  29.066  -3.613  1.00  0.00     0.213 HD
ENDBRANCH  33  34
BRANCH  33  36
HETATM   36  O5  UNL     1      23.867  27.084  -4.749  1.00  0.00    -0.365 OA
ATOM     37  H5  UNL     1      23.419  27.495  -4.019  1.00  0.00     0.213 HD
ENDBRANCH  33  36
ENDBRANCH   2  33
TORSDOF 11
ENDMDL
MODEL 2
REMARK VINA RESULT: -7.907749217      3.967      6.815
REMARK  11 active torsions:
REMARK  status: ('A' for Active; 'I' for Inactive)
REMARK    1  A    between atoms: N2_4  and  C3_5 
REMARK    2  A    between atoms: C3_5  and  O1_6 
REMARK    3  A    between atoms: C3_5  and  C4_8 
REMARK    4  A    between atoms: C4_8  and  N3_9 
REMARK    5  A    between atoms: N3_9  and  N4_11 
REMARK       I    between atoms: N4_11  and  C5_13 
REMARK    6  A    between atoms: C5_13  and  C6_15 
REMARK    7  A    between atoms: C11_25  and  O3_26 
REMARK    8  A    between atoms: C11_25  and  C12_28 
REMARK    9  A    between atoms: C12_28  and  O4_29 
REMARK   10  A    between atoms: C12_28  and  O5_31 
REMARK   11  A    between atoms: C14_34  and  N7_35 
ROOT
HETATM    1  C4  UNL     1      30.910  20.902  -1.962  1.00  0.00     0.134 C 
HETATM    2  C11 UNL     1      29.868  19.955  -1.694  1.00  0.00     0.130 C 
ENDROOT
BRANCH   1   3
HETATM    3  C3  UNL     1      30.972  22.123  -2.602  1.00  0.00     0.179 C 
BRANCH   3   4
HETATM    4  N2  UNL     1      30.238  22.942  -3.469  1.00  0.00    -0.293 N 
HETATM    5  C2  UNL     1      30.390  23.028  -4.838  1.00  0.00     0.194 A 
HETATM    6  N1  UNL     1      29.638  23.992  -5.358  1.00  0.00    -0.327 N 
HETATM    7  C1  UNL     1      29.516  24.395  -6.751  1.00  0.00     0.159 C 
HETATM    8  C14 UNL     1      28.967  24.578  -4.376  1.00  0.00     0.192 A 
HETATM    9  C13 UNL     1      29.364  23.903  -3.215  1.00  0.00     0.155 A 
BRANCH   8  10
HETATM   10  N7  UNL     1      28.039  25.662  -4.473  1.00  0.00    -0.096 N 
HETATM   11  O6  UNL     1      28.327  26.809  -4.066  1.00  0.00    -0.530 OA
HETATM   12  O7  UNL     1      26.801  25.444  -5.023  1.00  0.00    -0.530 OA
ENDBRANCH   8  10
ENDBRANCH   3   4
BRANCH   3  13
HETATM   13  O1  UNL     1      32.123  22.782  -2.301  1.00  0.00    -0.344 OA
ATOM     14  H1  UNL     1      32.799  22.447  -2.879  1.00  0.00     0.219 HD
ENDBRANCH   3  13
ENDBRANCH   1   3
BRANCH   1  15
HETATM   15  N3  UNL     1      32.061  20.404  -1.487  1.00  0.00    -0.291 N 
ATOM     16  H3  UNL     1      32.749  20.137  -2.191  1.00  0.00     0.187 HD
BRANCH  15  17
HETATM   17  N4  UNL     1      32.423  20.214  -0.235  1.00  0.00    -0.264 N 
HETATM   18  C5  UNL     1      33.310  21.066   0.529  1.00  0.00     0.286 C 
HETATM   19  O2  UNL     1      33.777  22.085  -0.074  1.00  0.00    -0.264 OA
ATOM     20  H4  UNL     1      32.045  19.393   0.238  1.00  0.00     0.190 HD
BRANCH  18  21
HETATM   21  C6  UNL     1      33.688  20.837   1.889  1.00  0.00     0.103 A 
HETATM   22  C7  UNL     1      34.852  21.375   2.393  1.00  0.00     0.035 A 
HETATM   23  C8  UNL     1      35.236  21.163   3.712  1.00  0.00     0.006 A 
HETATM   24  C9  UNL     1      34.431  20.398   4.527  1.00  0.00     0.048 A 
HETATM   25  C10 UNL     1      33.285  19.870   4.025  1.00  0.00     0.099 A 
HETATM   26  N5  UNL     1      32.509  19.151   4.756  1.00  0.00    -0.385 N 
HETATM   27  N6  UNL     1      32.952  20.108   2.720  1.00  0.00    -0.338 N 
ATOM     28  H52 UNL     1      32.757  18.974   5.729  1.00  0.00     0.157 HD
ATOM     29  H51 UNL     1      31.648  18.754   4.379  1.00  0.00     0.157 HD
ATOM     30  H6  UNL     1      32.088  19.701   2.364  1.00  0.00     0.167 HD
ENDBRANCH  18  21
ENDBRANCH  15  17
ENDBRANCH   1  15
BRANCH   2  31
HETATM   31  O3  UNL     1      30.263  18.902  -0.913  1.00  0.00    -0.358 OA
ATOM     32  H3  UNL     1      29.557  18.311  -0.679  1.00  0.00     0.217 HD
ENDBRANCH   2  31
BRANCH   2  33
HETATM   33  C12 UNL     1      28.492  19.791  -2.034  1.00  0.00     0.314 C 
BRANCH  33  34
HETATM   34  O4  UNL     1      27.872  20.674  -2.873  1.00  0.00    -0.365 OA
ATOM     35  H4  UNL     1      26.938  20.612  -3.035  1.00  0.00     0.213 HD
ENDBRANCH  33  34
BRANCH  33  36
HETATM   36  O5  UNL     1      27.731  19.623  -0.844  1.00  0.00    -0.365 OA
ATOM     37  H5  UNL     1      27.837  18.735  -0.526  1.00  0.00     0.213 HD
ENDBRANCH  33  36
ENDBRANCH   2  33
TORSDOF 11
ENDMDL
MODEL 3
REMARK VINA RESULT: -7.870798498      4.110      7.313
REMARK  11 active torsions:
REMARK  status: ('A' for Active; 'I' for Inactive)
REMARK    1  A    between atoms: N2_4  and  C3_5 
REMARK    2  A    between atoms: C3_5  and  O1_6 
REMARK    3  A    between atoms: C3_5  and  C4_8 
REMARK    4  A    between atoms: C4_8  and  N3_9 
REMARK    5  A    between atoms: N3_9  and  N4_11 
REMARK       I    between atoms: N4_11  and  C5_13 
REMARK    6  A    between atoms: C5_13  and  C6_15 
REMARK    7  A    between atoms: C11_25  and  O3_26 
REMARK    8  A    between atoms: C11_25  and  C12_28 
REMARK    9  A    between atoms: C12_28  and  O4_29 
REMARK   10  A    between atoms: C12_28  and  O5_31 
REMARK   11  A    between atoms: C14_34  and  N7_35 
ROOT
HETATM    1  C4  UNL     1      30.039  20.100  -1.582  1.00  0.00     0.134 C 
HETATM    2  C11 UNL     1      29.200  18.943  -1.684  1.00  0.00     0.130 C 
ENDROOT
BRANCH   1   3
HETATM    3  C3  UNL     1      29.895  21.436  -1.899  1.00  0.00     0.179 C 
BRANCH   3   4
HETATM    4  N2  UNL     1      29.427  22.274  -2.919  1.00  0.00    -0.293 N 
HETATM    5  C2  UNL     1      29.683  22.141  -4.269  1.00  0.00     0.194 A 
HETATM    6  N1  UNL     1      29.208  23.169  -4.964  1.00  0.00    -0.327 N 
HETATM    7  C1  UNL     1      29.274  23.400  -6.399  1.00  0.00     0.159 C 
HETATM    8  C14 UNL     1      28.627  24.013  -4.124  1.00  0.00     0.192 A 
HETATM    9  C13 UNL     1      28.782  23.428  -2.861  1.00  0.00     0.155 A 
BRANCH   8  10
HETATM   10  N7  UNL     1      27.981  25.252  -4.430  1.00  0.00    -0.096 N 
HETATM   11  O6  UNL     1      28.533  26.351  -4.207  1.00  0.00    -0.530 OA
HETATM   12  O7  UNL     1      26.724  25.239  -4.982  1.00  0.00    -0.530 OA
ENDBRANCH   8  10
ENDBRANCH   3   4
BRANCH   3  13
HETATM   13  O1  UNL     1      30.345  22.236  -0.896  1.00  0.00    -0.344 OA
ATOM     14  H1  UNL     1      30.997  21.741  -0.411  1.00  0.00     0.219 HD
ENDBRANCH   3  13
ENDBRANCH   1   3
BRANCH   1  15
HETATM   15  N3  UNL     1      31.227  19.715  -1.095  1.00  0.00    -0.291 N 
ATOM     16  H3  UNL     1      31.877  19.325  -1.776  1.00  0.00     0.187 HD
BRANCH  15  17
HETATM   17  N4  UNL     1      31.668  19.774   0.145  1.00  0.00    -0.264 N 
HETATM   18  C5  UNL     1      33.008  20.145   0.551  1.00  0.00     0.286 C 
HETATM   19  O2  UNL     1      33.823  20.437  -0.382  1.00  0.00    -0.264 OA
ATOM     20  H4  UNL     1      31.008  19.537   0.885  1.00  0.00     0.190 HD
BRANCH  18  21
HETATM   21  C6  UNL     1      33.462  20.201   1.906  1.00  0.00     0.103 A 
HETATM   22  C7  UNL     1      34.571  20.946   2.243  1.00  0.00     0.035 A 
HETATM   23  C8  UNL     1      35.028  21.013   3.554  1.00  0.00     0.006 A 
HETATM   24  C9  UNL     1      34.353  20.317   4.532  1.00  0.00     0.048 A 
HETATM   25  C10 UNL     1      33.260  19.584   4.195  1.00  0.00     0.099 A 
HETATM   26  N5  UNL     1      32.605  18.922   5.081  1.00  0.00    -0.385 N 
HETATM   27  N6  UNL     1      32.852  19.552   2.890  1.00  0.00    -0.338 N 
ATOM     28  H52 UNL     1      32.909  18.947   6.054  1.00  0.00     0.157 HD
ATOM     29  H51 UNL     1      31.784  18.371   4.828  1.00  0.00     0.157 HD
ATOM     30  H6  UNL     1      32.030  18.994   2.659  1.00  0.00     0.167 HD
ENDBRANCH  18  21
ENDBRANCH  15  17
ENDBRANCH   1  15
BRANCH   2  31
HETATM   31  O3  UNL     1      29.743  17.815  -1.132  1.00  0.00    -0.358 OA
ATOM     32  H3  UNL     1      29.583  17.728  -0.199  1.00  0.00     0.217 HD
ENDBRANCH   2  31
BRANCH   2  33
HETATM   33  C12 UNL     1      27.920  18.625  -2.229  1.00  0.00     0.314 C 
BRANCH  33  34
HETATM   34  O4  UNL     1      26.778  18.903  -1.533  1.00  0.00    -0.365 OA
ATOM     35  H4  UNL     1      26.814  19.118  -0.608  1.00  0.00     0.213 HD
ENDBRANCH  33  34
BRANCH  33  36
HETATM   36  O5  UNL     1      27.917  17.269  -2.660  1.00  0.00    -0.365 OA
ATOM     37  H5  UNL     1      28.787  17.033  -2.960  1.00  0.00     0.213 HD
ENDBRANCH  33  36
ENDBRANCH   2  33
TORSDOF 11
ENDMDL
MODEL 4
REMARK VINA RESULT: -7.778716550      4.706      9.083
REMARK  11 active torsions:
REMARK  status: ('A' for Active; 'I' for Inactive)
REMARK    1  A    between atoms: N2_4  and  C3_5 
REMARK    2  A    between atoms: C3_5  and  O1_6 
REMARK    3  A    between atoms: C3_5  and  C4_8 
REMARK    4  A    between atoms: C4_8  and  N3_9 
REMARK    5  A    between atoms: N3_9  and  N4_11 
REMARK       I    between atoms: N4_11  and  C5_13 
REMARK    6  A    between atoms: C5_13  and  C6_15 
REMARK    7  A    between atoms: C11_25  and  O3_26 
REMARK    8  A    between atoms: C11_25  and  C12_28 
REMARK    9  A    between atoms: C12_28  and  O4_29 
REMARK   10  A    between atoms: C12_28  and  O5_31 
REMARK   11  A    between atoms: C14_34  and  N7_35 
ROOT
HETATM    1  C4  UNL     1      29.327  20.033  -1.789  1.00  0.00     0.134 C 
HETATM    2  C11 UNL     1      28.596  18.825  -2.031  1.00  0.00     0.130 C 
ENDROOT
BRANCH   1   3
HETATM    3  C3  UNL     1      30.661  20.346  -1.621  1.00  0.00     0.179 C 
BRANCH   3   4
HETATM    4  N2  UNL     1      31.615  20.569  -0.620  1.00  0.00    -0.293 N 
HETATM    5  C2  UNL     1      32.485  21.637  -0.542  1.00  0.00     0.194 A 
HETATM    6  N1  UNL     1      33.355  21.492   0.452  1.00  0.00    -0.327 N 
HETATM    7  C1  UNL     1      34.424  22.392   0.859  1.00  0.00     0.159 C 
HETATM    8  C14 UNL     1      33.106  20.344   1.066  1.00  0.00     0.192 A 
HETATM    9  C13 UNL     1      32.019  19.795   0.375  1.00  0.00     0.155 A 
BRANCH   8  10
HETATM   10  N7  UNL     1      33.790  19.783   2.189  1.00  0.00    -0.096 N 
HETATM   11  O6  UNL     1      33.452  20.049   3.363  1.00  0.00    -0.530 OA
HETATM   12  O7  UNL     1      34.846  18.931   1.979  1.00  0.00    -0.530 OA
ENDBRANCH   8  10
ENDBRANCH   3   4
BRANCH   3  13
HETATM   13  O1  UNL     1      31.293  20.482  -2.818  1.00  0.00    -0.344 OA
ATOM     14  H1  UNL     1      32.227  20.489  -2.644  1.00  0.00     0.219 HD
ENDBRANCH   3  13
ENDBRANCH   1   3
BRANCH   1  15
HETATM   15  N3  UNL     1      28.448  21.040  -1.674  1.00  0.00    -0.291 N 
ATOM     16  H3  UNL     1      27.650  20.861  -1.064  1.00  0.00     0.187 HD
BRANCH  15  17
HETATM   17  N4  UNL     1      28.476  22.228  -2.242  1.00  0.00    -0.264 N 
HETATM   18  C5  UNL     1      28.683  22.488  -3.651  1.00  0.00     0.286 C 
HETATM   19  O2  UNL     1      28.854  21.471  -4.397  1.00  0.00    -0.264 OA
ATOM     20  H4  UNL     1      28.339  23.036  -1.636  1.00  0.00     0.190 HD
BRANCH  18  21
HETATM   21  C6  UNL     1      28.709  23.789  -4.244  1.00  0.00     0.103 A 
HETATM   22  C7  UNL     1      28.916  24.909  -3.468  1.00  0.00     0.035 A 
HETATM   23  C8  UNL     1      28.943  26.182  -4.025  1.00  0.00     0.006 A 
HETATM   24  C9  UNL     1      28.759  26.320  -5.383  1.00  0.00     0.048 A 
HETATM   25  C10 UNL     1      28.555  25.213  -6.143  1.00  0.00     0.099 A 
HETATM   26  N5  UNL     1      28.379  25.304  -7.414  1.00  0.00    -0.385 N 
HETATM   27  N6  UNL     1      28.536  23.983  -5.546  1.00  0.00    -0.338 N 
ATOM     28  H52 UNL     1      28.393  26.221  -7.859  1.00  0.00     0.157 HD
ATOM     29  H51 UNL     1      28.225  24.472  -7.985  1.00  0.00     0.157 HD
ATOM     30  H6  UNL     1      28.381  23.166  -6.135  1.00  0.00     0.167 HD
ENDBRANCH  18  21
ENDBRANCH  15  17
ENDBRANCH   1  15
BRANCH   2  31
HETATM   31  O3  UNL     1      27.256  19.020  -2.236  1.00  0.00    -0.358 OA
ATOM     32  H3  UNL     1      26.819  18.283  -2.647  1.00  0.00     0.217 HD
ENDBRANCH   2  31
BRANCH   2  33
HETATM   33  C12 UNL     1      28.881  17.430  -2.109  1.00  0.00     0.314 C 
BRANCH  33  34
HETATM   34  O4  UNL     1      27.940  16.551  -2.569  1.00  0.00    -0.365 OA
ATOM     35  H4  UNL     1      27.165  16.358  -2.055  1.00  0.00     0.213 HD
ENDBRANCH  33  34
BRANCH  33  36
HETATM   36  O5  UNL     1      29.401  16.985  -0.861  1.00  0.00    -0.365 OA
ATOM     37  H5  UNL     1      29.114  16.095  -0.700  1.00  0.00     0.213 HD
ENDBRANCH  33  36
ENDBRANCH   2  33
TORSDOF 11
ENDMDL
MODEL 5
REMARK VINA RESULT: -7.689366475      7.956     12.780
REMARK  11 active torsions:
REMARK  status: ('A' for Active; 'I' for Inactive)
REMARK    1  A    between atoms: N2_4  and  C3_5 
REMARK    2  A    between atoms: C3_5  and  O1_6 
REMARK    3  A    between atoms: C3_5  and  C4_8 
REMARK    4  A    between atoms: C4_8  and  N3_9 
REMARK    5  A    between atoms: N3_9  and  N4_11 
REMARK       I    between atoms: N4_11  and  C5_13 
REMARK    6  A    between atoms: C5_13  and  C6_15 
REMARK    7  A    between atoms: C11_25  and  O3_26 
REMARK    8  A    between atoms: C11_25  and  C12_28 
REMARK    9  A    between atoms: C12_28  and  O4_29 
REMARK   10  A    between atoms: C12_28  and  O5_31 
REMARK   11  A    between atoms: C14_34  and  N7_35 
ROOT
HETATM    1  C4  UNL     1      32.946  18.106   2.751  1.00  0.00     0.134 C 
HETATM    2  C11 UNL     1      32.332  16.918   2.236  1.00  0.00     0.130 C 
ENDROOT
BRANCH   1   3
HETATM    3  C3  UNL     1      33.383  18.513   3.996  1.00  0.00     0.179 C 
BRANCH   3   4
HETATM    4  N2  UNL     1      34.559  18.728   4.726  1.00  0.00    -0.293 N 
HETATM    5  C2  UNL     1      35.235  19.924   4.855  1.00  0.00     0.194 A 
HETATM    6  N1  UNL     1      36.386  19.772   5.501  1.00  0.00    -0.327 N 
HETATM    7  C1  UNL     1      37.378  20.784   5.835  1.00  0.00     0.159 C 
HETATM    8  C14 UNL     1      36.523  18.494   5.824  1.00  0.00     0.192 A 
HETATM    9  C13 UNL     1      35.370  17.872   5.327  1.00  0.00     0.155 A 
BRANCH   8  10
HETATM   10  N7  UNL     1      37.605  17.877   6.525  1.00  0.00    -0.096 N 
HETATM   11  O6  UNL     1      37.567  17.698   7.762  1.00  0.00    -0.530 OA
HETATM   12  O7  UNL     1      38.715  17.469   5.828  1.00  0.00    -0.530 OA
ENDBRANCH   8  10
ENDBRANCH   3   4
BRANCH   3  13
HETATM   13  O1  UNL     1      32.340  18.826   4.810  1.00  0.00    -0.344 OA
ATOM     14  H1  UNL     1      31.976  19.647   4.500  1.00  0.00     0.219 HD
ENDBRANCH   3  13
ENDBRANCH   1   3
BRANCH   1  15
HETATM   15  N3  UNL     1      33.057  18.990   1.749  1.00  0.00    -0.291 N 
ATOM     16  H3  UNL     1      34.005  19.294   1.531  1.00  0.00     0.187 HD
BRANCH  15  17
HETATM   17  N4  UNL     1      32.105  19.519   1.008  1.00  0.00    -0.264 N 
HETATM   18  C5  UNL     1      32.305  20.321  -0.181  1.00  0.00     0.286 C 
HETATM   19  O2  UNL     1      33.512  20.526  -0.531  1.00  0.00    -0.264 OA
ATOM     20  H4  UNL     1      31.142  19.350   1.297  1.00  0.00     0.190 HD
BRANCH  18  21
HETATM   21  C6  UNL     1      31.253  20.884  -0.970  1.00  0.00     0.103 A 
HETATM   22  C7  UNL     1      31.310  22.200  -1.376  1.00  0.00     0.035 A 
HETATM   23  C8  UNL     1      30.297  22.766  -2.141  1.00  0.00     0.006 A 
HETATM   24  C9  UNL     1      29.218  21.989  -2.499  1.00  0.00     0.048 A 
HETATM   25  C10 UNL     1      29.167  20.693  -2.096  1.00  0.00     0.099 A 
HETATM   26  N5  UNL     1      28.174  19.938  -2.411  1.00  0.00    -0.385 N 
HETATM   27  N6  UNL     1      30.189  20.185  -1.343  1.00  0.00    -0.338 N 
ATOM     28  H52 UNL     1      27.413  20.317  -2.972  1.00  0.00     0.157 HD
ATOM     29  H51 UNL     1      28.137  18.965  -2.108  1.00  0.00     0.157 HD
ATOM     30  H6  UNL     1      30.130  19.210  -1.051  1.00  0.00     0.167 HD
ENDBRANCH  18  21
ENDBRANCH  15  17
ENDBRANCH   1  15
BRANCH   2  31
HETATM   31  O3  UNL     1      32.168  16.925   0.877  1.00  0.00    -0.358 OA
ATOM     32  H3  UNL     1      31.574  16.255   0.558  1.00  0.00     0.217 HD
ENDBRANCH   2  31
BRANCH   2  33
HETATM   33  C12 UNL     1      31.816  15.697   2.761  1.00  0.00     0.314 C 
BRANCH  33  34
HETATM   34  O4  UNL     1      30.975  15.701   3.838  1.00  0.00    -0.365 OA
ATOM     35  H4  UNL     1      30.035  15.758   3.718  1.00  0.00     0.213 HD
ENDBRANCH  33  34
BRANCH  33  36
HETATM   36  O5  UNL     1      32.889  14.788   2.978  1.00  0.00    -0.365 OA
ATOM     37  H5  UNL     1      33.394  15.071   3.730  1.00  0.00     0.213 HD
ENDBRANCH  33  36
ENDBRANCH   2  33
TORSDOF 11
ENDMDL
