MODEL 1
REMARK VINA RESULT: -6.767097320      0.000      0.000
REMARK  9 active torsions:
REMARK  status: ('A' for Active; 'I' for Inactive)
REMARK    1  A    between atoms: C2_3  and  O2_5 
REMARK    2  A    between atoms: O2_5  and  C3_6 
REMARK    3  A    between atoms: C3_6  and  C4_7 
REMARK    4  A    between atoms: C4_7  and  O3_8 
REMARK    5  A    between atoms: O3_8  and  C5_9 
REMARK    6  A    between atoms: C5_9  and  N2_10 
REMARK    7  A    between atoms: C9_20  and  C10_21 
REMARK    8  A    between atoms: C10_21  and  C11_22 
REMARK    9  A    between atoms: C13_29  and  O7_30 
ROOT
HETATM    1  N1  UNL     1      29.362  21.748  -6.736  1.00  0.00    -0.186 NA
HETATM    2  C1  UNL     1      30.380  21.831  -6.172  1.00  0.00     0.170 C 
HETATM    3  C2  UNL     1      31.606  21.949  -5.475  1.00  0.00     0.365 C 
HETATM    4  O1  UNL     1      32.478  21.022  -5.584  1.00  0.00    -0.247 OA
ENDROOT
BRANCH   3   5
HETATM    5  O2  UNL     1      31.960  23.009  -4.659  1.00  0.00    -0.307 OA
BRANCH   5   6
HETATM    6  C3  UNL     1      33.282  23.337  -4.300  1.00  0.00     0.206 C 
BRANCH   6   7
HETATM    7  C4  UNL     1      33.463  23.169  -2.839  1.00  0.00     0.196 C 
BRANCH   7   8
HETATM    8  O3  UNL     1      32.977  22.102  -2.209  1.00  0.00    -0.369 OA
BRANCH   8   9
HETATM    9  C5  UNL     1      32.219  22.171  -1.099  1.00  0.00     0.305 C 
BRANCH   9  10
HETATM   10  N2  UNL     1      31.079  21.269  -1.317  1.00  0.00    -0.261 N 
HETATM   11  C6  UNL     1      31.053  20.034  -0.842  1.00  0.00     0.332 A 
HETATM   12  O4  UNL     1      32.057  19.642  -0.190  1.00  0.00    -0.246 OA
HETATM   13  N3  UNL     1      29.979  19.265  -1.067  1.00  0.00    -0.273 N 
HETATM   14  C7  UNL     1      28.907  19.687  -1.762  1.00  0.00     0.280 A 
ATOM     15  H3  UNL     1      29.974  18.315  -0.693  1.00  0.00     0.173 HD
HETATM   16  O5  UNL     1      27.895  19.003  -1.992  1.00  0.00    -0.265 OA
HETATM   17  C8  UNL     1      28.924  20.989  -2.271  1.00  0.00     0.147 A 
HETATM   18  N4  UNL     1      28.089  21.737  -2.977  1.00  0.00    -0.338 N 
HETATM   19  C14 UNL     1      30.043  21.757  -2.022  1.00  0.00     0.147 A 
HETATM   20  C9  UNL     1      28.604  22.961  -3.208  1.00  0.00     0.089 A 
ATOM     21  H4  UNL     1      27.174  21.426  -3.303  1.00  0.00     0.167 HD
HETATM   22  N7  UNL     1      29.809  22.967  -2.616  1.00  0.00    -0.329 N 
ATOM     23  H7  UNL     1      30.454  23.756  -2.610  1.00  0.00     0.168 HD
BRANCH  20  24
HETATM   24  C10 UNL     1      27.933  24.068  -3.971  1.00  0.00     0.138 C 
BRANCH  24  25
HETATM   25  C11 UNL     1      28.977  24.899  -4.641  1.00  0.00     0.071 A 
HETATM   26  N5  UNL     1      30.031  25.504  -4.069  1.00  0.00    -0.308 N 
HETATM   27  C12 UNL     1      30.699  26.138  -5.039  1.00  0.00     0.326 A 
ATOM     28  H5  UNL     1      30.276  25.484  -3.079  1.00  0.00     0.170 HD
HETATM   29  O6  UNL     1      31.763  26.823  -4.855  1.00  0.00    -0.247 OA
HETATM   30  N6  UNL     1      30.105  25.958  -6.222  1.00  0.00    -0.287 N 
HETATM   31  C13 UNL     1      29.033  25.187  -5.980  1.00  0.00     0.167 A 
ATOM     32  H6  UNL     1      30.404  26.330  -7.123  1.00  0.00     0.172 HD
BRANCH  31  33
HETATM   33  O7  UNL     1      28.139  24.773  -6.990  1.00  0.00    -0.345 OA
ATOM     34  H7  UNL     1      28.244  24.860  -7.930  1.00  0.00     0.219 HD
ENDBRANCH  31  33
ENDBRANCH  24  25
ENDBRANCH  20  24
ENDBRANCH   9  10
ENDBRANCH   8   9
ENDBRANCH   7   8
ENDBRANCH   6   7
ENDBRANCH   5   6
ENDBRANCH   3   5
TORSDOF 9
ENDMDL
MODEL 2
REMARK VINA RESULT: -6.720019268      7.123     11.217
REMARK  9 active torsions:
REMARK  status: ('A' for Active; 'I' for Inactive)
REMARK    1  A    between atoms: C2_3  and  O2_5 
REMARK    2  A    between atoms: O2_5  and  C3_6 
REMARK    3  A    between atoms: C3_6  and  C4_7 
REMARK    4  A    between atoms: C4_7  and  O3_8 
REMARK    5  A    between atoms: O3_8  and  C5_9 
REMARK    6  A    between atoms: C5_9  and  N2_10 
REMARK    7  A    between atoms: C9_20  and  C10_21 
REMARK    8  A    between atoms: C10_21  and  C11_22 
REMARK    9  A    between atoms: C13_29  and  O7_30 
ROOT
HETATM    1  N1  UNL     1      36.180  21.866   5.819  1.00  0.00    -0.186 NA
HETATM    2  C1  UNL     1      36.889  22.380   5.047  1.00  0.00     0.170 C 
HETATM    3  C2  UNL     1      37.737  22.994   4.096  1.00  0.00     0.365 C 
HETATM    4  O1  UNL     1      38.507  23.944   4.465  1.00  0.00    -0.247 OA
ENDROOT
BRANCH   3   5
HETATM    5  O2  UNL     1      37.812  22.651   2.757  1.00  0.00    -0.307 OA
BRANCH   5   6
HETATM    6  C3  UNL     1      37.010  23.207   1.742  1.00  0.00     0.206 C 
BRANCH   6   7
HETATM    7  C4  UNL     1      36.222  22.141   1.081  1.00  0.00     0.196 C 
BRANCH   7   8
HETATM    8  O3  UNL     1      35.404  21.361   1.785  1.00  0.00    -0.369 OA
BRANCH   8   9
HETATM    9  C5  UNL     1      34.063  21.474   1.766  1.00  0.00     0.305 C 
BRANCH   9  10
HETATM   10  N2  UNL     1      33.530  20.105   1.826  1.00  0.00    -0.261 N 
HETATM   11  C6  UNL     1      32.731  19.616   0.892  1.00  0.00     0.332 A 
HETATM   12  O4  UNL     1      32.426  20.374  -0.066  1.00  0.00    -0.246 OA
HETATM   13  N3  UNL     1      32.287  18.356   0.999  1.00  0.00    -0.273 N 
HETATM   14  C7  UNL     1      32.615  17.547   2.024  1.00  0.00     0.280 A 
ATOM     15  H3  UNL     1      31.672  17.993   0.271  1.00  0.00     0.173 HD
HETATM   16  O5  UNL     1      32.224  16.375   2.159  1.00  0.00    -0.265 OA
HETATM   17  C8  UNL     1      33.458  18.054   3.018  1.00  0.00     0.147 A 
HETATM   18  N4  UNL     1      33.986  17.582   4.138  1.00  0.00    -0.338 N 
HETATM   19  C14 UNL     1      33.898  19.354   2.879  1.00  0.00     0.147 A 
HETATM   20  C9  UNL     1      34.753  18.509   4.746  1.00  0.00     0.089 A 
ATOM     21  H4  UNL     1      33.832  16.639   4.494  1.00  0.00     0.167 HD
HETATM   22  N7  UNL     1      34.695  19.599   3.964  1.00  0.00    -0.329 N 
ATOM     23  H7  UNL     1      35.174  20.479   4.151  1.00  0.00     0.168 HD
BRANCH  20  24
HETATM   24  C10 UNL     1      35.507  18.321   6.031  1.00  0.00     0.138 C 
BRANCH  24  25
HETATM   25  C11 UNL     1      36.443  17.168   5.882  1.00  0.00     0.071 A 
HETATM   26  N5  UNL     1      36.480  16.269   4.884  1.00  0.00    -0.308 N 
HETATM   27  C12 UNL     1      37.473  15.414   5.156  1.00  0.00     0.326 A 
ATOM     28  H5  UNL     1      35.865  16.243   4.071  1.00  0.00     0.170 HD
HETATM   29  O6  UNL     1      37.795  14.423   4.416  1.00  0.00    -0.247 OA
HETATM   30  N6  UNL     1      38.078  15.738   6.302  1.00  0.00    -0.287 N 
HETATM   31  C13 UNL     1      37.442  16.828   6.758  1.00  0.00     0.167 A 
ATOM     32  H6  UNL     1      38.861  15.255   6.741  1.00  0.00     0.172 HD
BRANCH  31  33
HETATM   33  O7  UNL     1      37.792  17.478   7.960  1.00  0.00    -0.345 OA
ATOM     34  H7  UNL     1      37.333  17.448   8.792  1.00  0.00     0.219 HD
ENDBRANCH  31  33
ENDBRANCH  24  25
ENDBRANCH  20  24
ENDBRANCH   9  10
ENDBRANCH   8   9
ENDBRANCH   7   8
ENDBRANCH   6   7
ENDBRANCH   5   6
ENDBRANCH   3   5
TORSDOF 9
ENDMDL
MODEL 3
REMARK VINA RESULT: -6.699095114      1.613      2.088
REMARK  9 active torsions:
REMARK  status: ('A' for Active; 'I' for Inactive)
REMARK    1  A    between atoms: C2_3  and  O2_5 
REMARK    2  A    between atoms: O2_5  and  C3_6 
REMARK    3  A    between atoms: C3_6  and  C4_7 
REMARK    4  A    between atoms: C4_7  and  O3_8 
REMARK    5  A    between atoms: O3_8  and  C5_9 
REMARK    6  A    between atoms: C5_9  and  N2_10 
REMARK    7  A    between atoms: C9_20  and  C10_21 
REMARK    8  A    between atoms: C10_21  and  C11_22 
REMARK    9  A    between atoms: C13_29  and  O7_30 
ROOT
HETATM    1  N1  UNL     1      31.747  20.300  -7.832  1.00  0.00    -0.186 NA
HETATM    2  C1  UNL     1      31.137  21.098  -7.238  1.00  0.00     0.170 C 
HETATM    3  C2  UNL     1      30.411  22.080  -6.522  1.00  0.00     0.365 C 
HETATM    4  O1  UNL     1      29.206  21.838  -6.176  1.00  0.00    -0.247 OA
ENDROOT
BRANCH   3   5
HETATM    5  O2  UNL     1      30.902  23.320  -6.152  1.00  0.00    -0.307 OA
BRANCH   5   6
HETATM    6  C3  UNL     1      32.248  23.716  -6.269  1.00  0.00     0.206 C 
BRANCH   6   7
HETATM    7  C4  UNL     1      32.858  23.835  -4.925  1.00  0.00     0.196 C 
BRANCH   7   8
HETATM    8  O3  UNL     1      32.837  22.812  -4.073  1.00  0.00    -0.369 OA
BRANCH   8   9
HETATM    9  C5  UNL     1      32.490  22.925  -2.778  1.00  0.00     0.305 C 
BRANCH   9  10
HETATM   10  N2  UNL     1      31.379  21.986  -2.562  1.00  0.00    -0.261 N 
HETATM   11  C6  UNL     1      31.565  20.771  -2.071  1.00  0.00     0.332 A 
HETATM   12  O4  UNL     1      32.746  20.431  -1.796  1.00  0.00    -0.246 OA
HETATM   13  N3  UNL     1      30.509  19.967  -1.888  1.00  0.00    -0.273 N 
HETATM   14  C7  UNL     1      29.248  20.334  -2.182  1.00  0.00     0.280 A 
ATOM     15  H3  UNL     1      30.668  19.033  -1.509  1.00  0.00     0.173 HD
HETATM   16  O5  UNL     1      28.245  19.616  -2.027  1.00  0.00    -0.265 OA
HETATM   17  C8  UNL     1      29.040  21.615  -2.702  1.00  0.00     0.147 A 
HETATM   18  N4  UNL     1      27.985  22.312  -3.097  1.00  0.00    -0.338 N 
HETATM   19  C14 UNL     1      30.146  22.419  -2.879  1.00  0.00     0.147 A 
HETATM   20  C9  UNL     1      28.342  23.538  -3.527  1.00  0.00     0.089 A 
ATOM     21  H4  UNL     1      27.026  21.966  -3.078  1.00  0.00     0.167 HD
HETATM   22  N7  UNL     1      29.677  23.598  -3.390  1.00  0.00    -0.329 N 
ATOM     23  H7  UNL     1      30.254  24.403  -3.630  1.00  0.00     0.168 HD
BRANCH  20  24
HETATM   24  C10 UNL     1      27.409  24.597  -4.043  1.00  0.00     0.138 C 
BRANCH  24  25
HETATM   25  C11 UNL     1      28.050  25.290  -5.199  1.00  0.00     0.071 A 
HETATM   26  N5  UNL     1      28.165  24.842  -6.460  1.00  0.00    -0.308 N 
HETATM   27  C12 UNL     1      28.806  25.784  -7.160  1.00  0.00     0.326 A 
ATOM     28  H5  UNL     1      27.826  23.948  -6.816  1.00  0.00     0.170 HD
HETATM   29  O6  UNL     1      29.090  25.692  -8.403  1.00  0.00    -0.247 OA
HETATM   30  N6  UNL     1      29.108  26.829  -6.385  1.00  0.00    -0.287 N 
HETATM   31  C13 UNL     1      28.640  26.528  -5.164  1.00  0.00     0.167 A 
ATOM     32  H6  UNL     1      29.595  27.680  -6.664  1.00  0.00     0.172 HD
BRANCH  31  33
HETATM   33  O7  UNL     1      28.767  27.392  -4.056  1.00  0.00    -0.345 OA
ATOM     34  H7  UNL     1      29.492  27.449  -3.444  1.00  0.00     0.219 HD
ENDBRANCH  31  33
ENDBRANCH  24  25
ENDBRANCH  20  24
ENDBRANCH   9  10
ENDBRANCH   8   9
ENDBRANCH   7   8
ENDBRANCH   6   7
ENDBRANCH   5   6
ENDBRANCH   3   5
TORSDOF 9
ENDMDL
MODEL 4
REMARK VINA RESULT: -6.665238923      7.513     10.593
REMARK  9 active torsions:
REMARK  status: ('A' for Active; 'I' for Inactive)
REMARK    1  A    between atoms: C2_3  and  O2_5 
REMARK    2  A    between atoms: O2_5  and  C3_6 
REMARK    3  A    between atoms: C3_6  and  C4_7 
REMARK    4  A    between atoms: C4_7  and  O3_8 
REMARK    5  A    between atoms: O3_8  and  C5_9 
REMARK    6  A    between atoms: C5_9  and  N2_10 
REMARK    7  A    between atoms: C9_20  and  C10_21 
REMARK    8  A    between atoms: C10_21  and  C11_22 
REMARK    9  A    between atoms: C13_29  and  O7_30 
ROOT
HETATM    1  N1  UNL     1      32.803  17.767   1.734  1.00  0.00    -0.186 NA
HETATM    2  C1  UNL     1      32.514  16.676   2.030  1.00  0.00     0.170 C 
HETATM    3  C2  UNL     1      32.179  15.346   2.378  1.00  0.00     0.365 C 
HETATM    4  O1  UNL     1      31.303  15.138   3.284  1.00  0.00    -0.247 OA
ENDROOT
BRANCH   3   5
HETATM    5  O2  UNL     1      32.733  14.211   1.811  1.00  0.00    -0.307 OA
BRANCH   5   6
HETATM    6  C3  UNL     1      33.955  14.181   1.111  1.00  0.00     0.206 C 
BRANCH   6   7
HETATM    7  C4  UNL     1      35.069  13.917   2.051  1.00  0.00     0.196 C 
BRANCH   7   8
HETATM    8  O3  UNL     1      35.502  14.865   2.879  1.00  0.00    -0.369 OA
BRANCH   8   9
HETATM    9  C5  UNL     1      36.726  15.421   2.804  1.00  0.00     0.305 C 
BRANCH   9  10
HETATM   10  N2  UNL     1      37.026  15.947   4.143  1.00  0.00    -0.261 N 
HETATM   11  C6  UNL     1      37.955  15.415   4.920  1.00  0.00     0.332 A 
HETATM   12  O4  UNL     1      38.583  14.419   4.475  1.00  0.00    -0.246 OA
HETATM   13  N3  UNL     1      38.188  15.949   6.128  1.00  0.00    -0.273 N 
HETATM   14  C7  UNL     1      37.515  17.015   6.600  1.00  0.00     0.280 A 
ATOM     15  H3  UNL     1      38.908  15.528   6.715  1.00  0.00     0.173 HD
HETATM   16  O5  UNL     1      37.703  17.536   7.713  1.00  0.00    -0.265 OA
HETATM   17  C8  UNL     1      36.530  17.584   5.788  1.00  0.00     0.147 A 
HETATM   18  N4  UNL     1      35.690  18.602   5.899  1.00  0.00    -0.338 N 
HETATM   19  C14 UNL     1      36.314  17.013   4.552  1.00  0.00     0.147 A 
HETATM   20  C9  UNL     1      34.928  18.730   4.794  1.00  0.00     0.089 A 
ATOM     21  H4  UNL     1      35.628  19.212   6.714  1.00  0.00     0.167 HD
HETATM   22  N7  UNL     1      35.318  17.747   3.967  1.00  0.00    -0.329 N 
ATOM     23  H7  UNL     1      34.930  17.573   3.040  1.00  0.00     0.168 HD
BRANCH  20  24
HETATM   24  C10 UNL     1      33.873  19.775   4.569  1.00  0.00     0.138 C 
BRANCH  24  25
HETATM   25  C11 UNL     1      34.342  20.721   3.514  1.00  0.00     0.071 A 
HETATM   26  N5  UNL     1      35.545  21.310   3.421  1.00  0.00    -0.308 N 
HETATM   27  C12 UNL     1      35.530  22.075   2.324  1.00  0.00     0.326 A 
ATOM     28  H5  UNL     1      36.326  21.195   4.067  1.00  0.00     0.170 HD
HETATM   29  O6  UNL     1      36.515  22.786   1.925  1.00  0.00    -0.247 OA
HETATM   30  N6  UNL     1      34.348  21.996   1.706  1.00  0.00    -0.287 N 
HETATM   31  C13 UNL     1      33.606  21.154   2.441  1.00  0.00     0.167 A 
ATOM     32  H6  UNL     1      34.068  22.477   0.851  1.00  0.00     0.172 HD
BRANCH  31  33
HETATM   33  O7  UNL     1      32.278  20.810   2.111  1.00  0.00    -0.345 OA
ATOM     34  H7  UNL     1      31.964  20.413   1.306  1.00  0.00     0.219 HD
ENDBRANCH  31  33
ENDBRANCH  24  25
ENDBRANCH  20  24
ENDBRANCH   9  10
ENDBRANCH   8   9
ENDBRANCH   7   8
ENDBRANCH   6   7
ENDBRANCH   5   6
ENDBRANCH   3   5
TORSDOF 9
ENDMDL
MODEL 5
REMARK VINA RESULT: -6.574956532      6.702     10.802
REMARK  9 active torsions:
REMARK  status: ('A' for Active; 'I' for Inactive)
REMARK    1  A    between atoms: C2_3  and  O2_5 
REMARK    2  A    between atoms: O2_5  and  C3_6 
REMARK    3  A    between atoms: C3_6  and  C4_7 
REMARK    4  A    between atoms: C4_7  and  O3_8 
REMARK    5  A    between atoms: O3_8  and  C5_9 
REMARK    6  A    between atoms: C5_9  and  N2_10 
REMARK    7  A    between atoms: C9_20  and  C10_21 
REMARK    8  A    between atoms: C10_21  and  C11_22 
REMARK    9  A    between atoms: C13_29  and  O7_30 
ROOT
HETATM    1  N1  UNL     1      28.063  18.520  -1.982  1.00  0.00    -0.186 NA
HETATM    2  C1  UNL     1      28.918  19.309  -1.885  1.00  0.00     0.170 C 
HETATM    3  C2  UNL     1      29.967  20.250  -1.764  1.00  0.00     0.365 C 
HETATM    4  O1  UNL     1      29.802  21.433  -2.217  1.00  0.00    -0.247 OA
ENDROOT
BRANCH   3   5
HETATM    5  O2  UNL     1      31.198  20.000  -1.181  1.00  0.00    -0.307 OA
BRANCH   5   6
HETATM    6  C3  UNL     1      31.625  20.535   0.050  1.00  0.00     0.206 C 
BRANCH   6   7
HETATM    7  C4  UNL     1      32.837  19.823   0.516  1.00  0.00     0.196 C 
BRANCH   7   8
HETATM    8  O3  UNL     1      33.227  19.899   1.786  1.00  0.00    -0.369 OA
BRANCH   8   9
HETATM    9  C5  UNL     1      33.236  21.041   2.498  1.00  0.00     0.305 C 
BRANCH   9  10
HETATM   10  N2  UNL     1      34.649  21.360   2.754  1.00  0.00    -0.261 N 
HETATM   11  C6  UNL     1      35.285  22.323   2.105  1.00  0.00     0.332 A 
HETATM   12  O4  UNL     1      34.635  22.966   1.239  1.00  0.00    -0.246 OA
HETATM   13  N3  UNL     1      36.570  22.571   2.392  1.00  0.00    -0.273 N 
HETATM   14  C7  UNL     1      37.261  21.883   3.320  1.00  0.00     0.280 A 
ATOM     15  H3  UNL     1      37.047  23.316   1.883  1.00  0.00     0.173 HD
HETATM   16  O5  UNL     1      38.452  22.084   3.612  1.00  0.00    -0.265 OA
HETATM   17  C8  UNL     1      36.599  20.863   4.010  1.00  0.00     0.147 A 
HETATM   18  N4  UNL     1      36.929  19.999   4.959  1.00  0.00    -0.338 N 
HETATM   19  C14 UNL     1      35.277  20.631   3.693  1.00  0.00     0.147 A 
HETATM   20  C9  UNL     1      35.888  19.207   5.282  1.00  0.00     0.089 A 
ATOM     21  H4  UNL     1      37.852  19.941   5.389  1.00  0.00     0.167 HD
HETATM   22  N7  UNL     1      34.872  19.602   4.498  1.00  0.00    -0.329 N 
ATOM     23  H7  UNL     1      33.937  19.196   4.503  1.00  0.00     0.168 HD
BRANCH  20  24
HETATM   24  C10 UNL     1      35.898  18.119   6.318  1.00  0.00     0.138 C 
BRANCH  24  25
HETATM   25  C11 UNL     1      36.510  16.891   5.729  1.00  0.00     0.071 A 
HETATM   26  N5  UNL     1      36.113  16.225   4.632  1.00  0.00    -0.308 N 
HETATM   27  C12 UNL     1      36.945  15.191   4.472  1.00  0.00     0.326 A 
ATOM     28  H5  UNL     1      35.322  16.465   4.033  1.00  0.00     0.170 HD
HETATM   29  O6  UNL     1      36.862  14.338   3.524  1.00  0.00    -0.247 OA
HETATM   30  N6  UNL     1      37.869  15.170   5.436  1.00  0.00    -0.287 N 
HETATM   31  C13 UNL     1      37.604  16.227   6.220  1.00  0.00     0.167 A 
ATOM     32  H6  UNL     1      38.621  14.492   5.552  1.00  0.00     0.172 HD
BRANCH  31  33
HETATM   33  O7  UNL     1      38.368  16.549   7.362  1.00  0.00    -0.345 OA
ATOM     34  H7  UNL     1      39.065  17.192   7.432  1.00  0.00     0.219 HD
ENDBRANCH  31  33
ENDBRANCH  24  25
ENDBRANCH  20  24
ENDBRANCH   9  10
ENDBRANCH   8   9
ENDBRANCH   7   8
ENDBRANCH   6   7
ENDBRANCH   5   6
ENDBRANCH   3   5
TORSDOF 9
ENDMDL
