MODEL 1
REMARK VINA RESULT: -7.156356832      0.000      0.000
REMARK  8 active torsions:
REMARK  status: ('A' for Active; 'I' for Inactive)
REMARK    1  A    between atoms: C3_3  and  C4_4 
REMARK    2  A    between atoms: C4_4  and  O2_6 
REMARK    3  A    between atoms: O2_6  and  C5_7 
REMARK    4  A    between atoms: C9_15  and  N3_16 
REMARK       I    between atoms: N3_16  and  C10_18 
REMARK       I    between atoms: C10_18  and  N6_23 
REMARK    5  A    between atoms: N6_23  and  O3_25 
REMARK    6  A    between atoms: O3_25  and  C12_26 
REMARK    7  A    between atoms: C12_26  and  C13_27 
REMARK    8  A    between atoms: C13_27  and  N7_28 
ROOT
HETATM    1  C5  UNL     1      27.929  30.382  -4.529  1.00  0.00     0.302 C 
HETATM    2  C6  UNL     1      26.649  29.684  -4.391  1.00  0.00     0.085 C 
HETATM    3  N1  UNL     1      25.635  29.133  -4.302  1.00  0.00    -0.195 NA
ENDROOT
BRANCH   1   4
HETATM    4  O2  UNL     1      29.010  29.518  -4.714  1.00  0.00    -0.304 OA
BRANCH   4   5
HETATM    5  C4  UNL     1      29.121  28.241  -4.297  1.00  0.00     0.290 C 
HETATM    6  O1  UNL     1      29.015  28.097  -3.012  1.00  0.00    -0.260 OA
BRANCH   5   7
HETATM    7  C3  UNL     1      29.331  27.068  -5.054  1.00  0.00     0.024 C 
HETATM    8  C2  UNL     1      30.563  26.629  -5.206  1.00  0.00    -0.062 C 
HETATM    9  C1  UNL     1      31.576  27.450  -4.543  1.00  0.00     0.045 C 
HETATM   10  C15 UNL     1      31.164  25.452  -5.927  1.00  0.00     0.110 C 
HETATM   11  S1  UNL     1      30.971  23.916  -5.025  1.00  0.00    -0.128 SA
HETATM   12  C14 UNL     1      29.299  23.252  -5.191  1.00  0.00     0.300 C 
HETATM   13  C9  UNL     1      28.633  23.380  -3.834  1.00  0.00     0.342 C 
HETATM   14  N8  UNL     1      28.569  24.141  -6.084  1.00  0.00    -0.029 N 
HETATM   15  N2  UNL     1      28.177  24.735  -3.867  1.00  0.00    -0.022 N 
HETATM   16  C8  UNL     1      27.870  25.045  -5.234  1.00  0.00     0.391 C 
ATOM     17  H22 UNL     1      28.838  25.389  -3.447  1.00  0.00     0.282 HD
ATOM     18  H21 UNL     1      27.398  24.910  -3.233  1.00  0.00     0.282 HD
HETATM   19  C7  UNL     1      28.035  26.502  -5.579  1.00  0.00     0.107 C 
ATOM     20  H82 UNL     1      27.967  23.652  -6.746  1.00  0.00     0.281 HD
ATOM     21  H81 UNL     1      29.159  24.602  -6.776  1.00  0.00     0.281 HD
BRANCH  13  22
HETATM   22  N3  UNL     1      29.608  23.189  -2.782  1.00  0.00    -0.191 N 
HETATM   23  C10 UNL     1      29.821  21.926  -2.193  1.00  0.00     0.708 C 
HETATM   24  N4  UNL     1      29.048  20.951  -2.474  1.00  0.00    -0.124 N 
HETATM   25  N6  UNL     1      30.889  21.737  -1.293  1.00  0.00    -0.096 N 
HETATM   26  C11 UNL     1      29.193  19.668  -1.933  1.00  0.00     0.196 C 
ATOM     27  H4  UNL     1      28.284  21.115  -3.128  1.00  0.00     0.197 HD
HETATM   28  N5  UNL     1      29.301  18.597  -1.470  1.00  0.00    -0.171 NA
ATOM     29  H6  UNL     1      31.185  22.544  -0.743  1.00  0.00     0.213 HD
ATOM     30  H3  UNL     1      30.155  23.987  -2.460  1.00  0.00     0.180 HD
BRANCH  25  31
HETATM   31  O3  UNL     1      31.543  20.592  -1.101  1.00  0.00    -0.265 OA
BRANCH  31  32
HETATM   32  C12 UNL     1      32.732  20.761  -0.398  1.00  0.00     0.229 C 
BRANCH  32  33
HETATM   33  C13 UNL     1      32.893  19.751   0.703  1.00  0.00     0.258 C 
BRANCH  33  34
HETATM   34  N7  UNL     1      31.907  18.709   0.616  1.00  0.00    -0.077 N 
ATOM     35  H73 UNL     1      31.292  18.711   1.429  1.00  0.00     0.274 HD
ATOM     36  H72 UNL     1      31.216  18.911  -0.107  1.00  0.00     0.274 HD
ATOM     37  H71 UNL     1      32.336  17.795   0.477  1.00  0.00     0.274 HD
ENDBRANCH  33  34
ENDBRANCH  32  33
ENDBRANCH  31  32
ENDBRANCH  25  31
ENDBRANCH  13  22
ENDBRANCH   5   7
ENDBRANCH   4   5
ENDBRANCH   1   4
TORSDOF 8
ENDMDL
MODEL 2
REMARK VINA RESULT: -7.127619503      1.134      1.243
REMARK  8 active torsions:
REMARK  status: ('A' for Active; 'I' for Inactive)
REMARK    1  A    between atoms: C3_3  and  C4_4 
REMARK    2  A    between atoms: C4_4  and  O2_6 
REMARK    3  A    between atoms: O2_6  and  C5_7 
REMARK    4  A    between atoms: C9_15  and  N3_16 
REMARK       I    between atoms: N3_16  and  C10_18 
REMARK       I    between atoms: C10_18  and  N6_23 
REMARK    5  A    between atoms: N6_23  and  O3_25 
REMARK    6  A    between atoms: O3_25  and  C12_26 
REMARK    7  A    between atoms: C12_26  and  C13_27 
REMARK    8  A    between atoms: C13_27  and  N7_28 
ROOT
HETATM    1  C5  UNL     1      28.460  30.681  -4.929  1.00  0.00     0.302 C 
HETATM    2  C6  UNL     1      28.950  32.004  -4.536  1.00  0.00     0.085 C 
HETATM    3  N1  UNL     1      29.331  33.046  -4.206  1.00  0.00    -0.195 NA
ENDROOT
BRANCH   1   4
HETATM    4  O2  UNL     1      29.418  29.675  -4.788  1.00  0.00    -0.304 OA
BRANCH   4   5
HETATM    5  C4  UNL     1      29.222  28.410  -4.366  1.00  0.00     0.290 C 
HETATM    6  O1  UNL     1      28.812  28.322  -3.138  1.00  0.00    -0.260 OA
BRANCH   5   7
HETATM    7  C3  UNL     1      29.401  27.196  -5.066  1.00  0.00     0.024 C 
HETATM    8  C2  UNL     1      30.619  26.709  -5.182  1.00  0.00    -0.062 C 
HETATM    9  C1  UNL     1      31.652  27.525  -4.543  1.00  0.00     0.045 C 
HETATM   10  C15 UNL     1      31.187  25.481  -5.841  1.00  0.00     0.110 C 
HETATM   11  S1  UNL     1      30.931  23.995  -4.873  1.00  0.00    -0.128 SA
HETATM   12  C14 UNL     1      29.238  23.382  -5.030  1.00  0.00     0.300 C 
HETATM   13  C9  UNL     1      28.562  23.594  -3.689  1.00  0.00     0.342 C 
HETATM   14  N8  UNL     1      28.549  24.252  -5.971  1.00  0.00    -0.029 N 
HETATM   15  N2  UNL     1      28.153  24.961  -3.789  1.00  0.00    -0.022 N 
HETATM   16  C8  UNL     1      27.873  25.218  -5.173  1.00  0.00     0.391 C 
ATOM     17  H22 UNL     1      28.831  25.611  -3.391  1.00  0.00     0.282 HD
ATOM     18  H21 UNL     1      27.373  25.191  -3.174  1.00  0.00     0.282 HD
HETATM   19  C7  UNL     1      28.092  26.652  -5.582  1.00  0.00     0.107 C 
ATOM     20  H82 UNL     1      27.939  23.755  -6.618  1.00  0.00     0.281 HD
ATOM     21  H81 UNL     1      29.164  24.661  -6.676  1.00  0.00     0.281 HD
BRANCH  13  22
HETATM   22  N3  UNL     1      29.517  23.418  -2.617  1.00  0.00    -0.191 N 
HETATM   23  C10 UNL     1      29.801  22.145  -2.081  1.00  0.00     0.708 C 
HETATM   24  N4  UNL     1      29.106  21.135  -2.432  1.00  0.00    -0.124 N 
HETATM   25  N6  UNL     1      30.853  21.986  -1.157  1.00  0.00    -0.096 N 
HETATM   26  C11 UNL     1      29.324  19.841  -1.947  1.00  0.00     0.196 C 
ATOM     27  H4  UNL     1      28.350  21.278  -3.101  1.00  0.00     0.197 HD
HETATM   28  N5  UNL     1      29.493  18.758  -1.531  1.00  0.00    -0.171 NA
ATOM     29  H6  UNL     1      31.077  22.783  -0.561  1.00  0.00     0.213 HD
ATOM     30  H3  UNL     1      29.998  24.235  -2.240  1.00  0.00     0.180 HD
BRANCH  25  31
HETATM   31  O3  UNL     1      31.579  20.880  -0.998  1.00  0.00    -0.265 OA
BRANCH  31  32
HETATM   32  C12 UNL     1      32.700  21.080  -0.198  1.00  0.00     0.229 C 
BRANCH  32  33
HETATM   33  C13 UNL     1      32.800  20.067   0.907  1.00  0.00     0.258 C 
BRANCH  33  34
HETATM   34  N7  UNL     1      32.031  18.889   0.619  1.00  0.00    -0.077 N 
ATOM     35  H73 UNL     1      31.583  18.951  -0.296  1.00  0.00     0.274 HD
ATOM     36  H72 UNL     1      32.634  18.084   0.447  1.00  0.00     0.274 HD
ATOM     37  H71 UNL     1      31.350  18.694   1.353  1.00  0.00     0.274 HD
ENDBRANCH  33  34
ENDBRANCH  32  33
ENDBRANCH  31  32
ENDBRANCH  25  31
ENDBRANCH  13  22
ENDBRANCH   5   7
ENDBRANCH   4   5
ENDBRANCH   1   4
TORSDOF 8
ENDMDL
MODEL 3
REMARK VINA RESULT: -6.896158977      1.336      1.607
REMARK  8 active torsions:
REMARK  status: ('A' for Active; 'I' for Inactive)
REMARK    1  A    between atoms: C3_3  and  C4_4 
REMARK    2  A    between atoms: C4_4  and  O2_6 
REMARK    3  A    between atoms: O2_6  and  C5_7 
REMARK    4  A    between atoms: C9_15  and  N3_16 
REMARK       I    between atoms: N3_16  and  C10_18 
REMARK       I    between atoms: C10_18  and  N6_23 
REMARK    5  A    between atoms: N6_23  and  O3_25 
REMARK    6  A    between atoms: O3_25  and  C12_26 
REMARK    7  A    between atoms: C12_26  and  C13_27 
REMARK    8  A    between atoms: C13_27  and  N7_28 
ROOT
HETATM    1  C5  UNL     1      26.896  28.203  -4.506  1.00  0.00     0.302 C 
HETATM    2  C6  UNL     1      26.319  26.865  -4.656  1.00  0.00     0.085 C 
HETATM    3  N1  UNL     1      25.863  25.810  -4.794  1.00  0.00    -0.195 NA
ENDROOT
BRANCH   1   4
HETATM    4  O2  UNL     1      28.288  28.218  -4.613  1.00  0.00    -0.304 OA
BRANCH   4   5
HETATM    5  C4  UNL     1      29.026  28.058  -5.730  1.00  0.00     0.290 C 
HETATM    6  O1  UNL     1      28.980  29.071  -6.539  1.00  0.00    -0.260 OA
BRANCH   5   7
HETATM    7  C3  UNL     1      29.824  26.962  -6.125  1.00  0.00     0.024 C 
HETATM    8  C2  UNL     1      31.040  26.857  -5.630  1.00  0.00    -0.062 C 
HETATM    9  C1  UNL     1      31.404  27.931  -4.706  1.00  0.00     0.045 C 
HETATM   10  C15 UNL     1      32.153  25.861  -5.815  1.00  0.00     0.110 C 
HETATM   11  S1  UNL     1      31.891  24.351  -4.886  1.00  0.00    -0.128 SA
HETATM   12  C14 UNL     1      30.694  23.269  -5.698  1.00  0.00     0.300 C 
HETATM   13  C9  UNL     1      29.450  23.252  -4.831  1.00  0.00     0.342 C 
HETATM   14  N8  UNL     1      30.308  23.912  -6.946  1.00  0.00    -0.029 N 
HETATM   15  N2  UNL     1      28.782  24.440  -5.268  1.00  0.00    -0.022 N 
HETATM   16  C8  UNL     1      29.109  24.624  -6.653  1.00  0.00     0.391 C 
ATOM     17  H22 UNL     1      29.000  25.254  -4.693  1.00  0.00     0.282 HD
ATOM     18  H21 UNL     1      27.778  24.420  -5.093  1.00  0.00     0.282 HD
HETATM   19  C7  UNL     1      29.097  26.064  -7.095  1.00  0.00     0.107 C 
ATOM     20  H82 UNL     1      30.220  23.266  -7.730  1.00  0.00     0.281 HD
ATOM     21  H81 UNL     1      31.041  24.494  -7.350  1.00  0.00     0.281 HD
BRANCH  13  22
HETATM   22  N3  UNL     1      29.815  23.350  -3.435  1.00  0.00    -0.191 N 
HETATM   23  C10 UNL     1      29.829  22.218  -2.594  1.00  0.00     0.708 C 
HETATM   24  N4  UNL     1      29.372  21.104  -3.014  1.00  0.00    -0.124 N 
HETATM   25  N6  UNL     1      30.348  22.315  -1.287  1.00  0.00    -0.096 N 
HETATM   26  C11 UNL     1      29.351  19.937  -2.243  1.00  0.00     0.196 C 
ATOM     27  H4  UNL     1      29.002  21.062  -3.963  1.00  0.00     0.197 HD
HETATM   28  N5  UNL     1      29.317  18.961  -1.595  1.00  0.00    -0.171 NA
ATOM     29  H6  UNL     1      30.275  23.219  -0.821  1.00  0.00     0.213 HD
ATOM     30  H3  UNL     1      30.070  24.259  -3.049  1.00  0.00     0.180 HD
BRANCH  25  31
HETATM   31  O3  UNL     1      30.927  21.323  -0.612  1.00  0.00    -0.265 OA
BRANCH  31  32
HETATM   32  C12 UNL     1      32.306  21.475  -0.504  1.00  0.00     0.229 C 
BRANCH  32  33
HETATM   33  C13 UNL     1      32.959  20.301   0.167  1.00  0.00     0.258 C 
BRANCH  33  34
HETATM   34  N7  UNL     1      32.017  19.249   0.433  1.00  0.00    -0.077 N 
ATOM     35  H73 UNL     1      31.940  18.610  -0.359  1.00  0.00     0.274 HD
ATOM     36  H72 UNL     1      32.375  18.596   1.129  1.00  0.00     0.274 HD
ATOM     37  H71 UNL     1      31.105  19.617   0.702  1.00  0.00     0.274 HD
ENDBRANCH  33  34
ENDBRANCH  32  33
ENDBRANCH  31  32
ENDBRANCH  25  31
ENDBRANCH  13  22
ENDBRANCH   5   7
ENDBRANCH   4   5
ENDBRANCH   1   4
TORSDOF 8
ENDMDL
MODEL 4
REMARK VINA RESULT: -6.721969018      1.488      1.907
REMARK  8 active torsions:
REMARK  status: ('A' for Active; 'I' for Inactive)
REMARK    1  A    between atoms: C3_3  and  C4_4 
REMARK    2  A    between atoms: C4_4  and  O2_6 
REMARK    3  A    between atoms: O2_6  and  C5_7 
REMARK    4  A    between atoms: C9_15  and  N3_16 
REMARK       I    between atoms: N3_16  and  C10_18 
REMARK       I    between atoms: C10_18  and  N6_23 
REMARK    5  A    between atoms: N6_23  and  O3_25 
REMARK    6  A    between atoms: O3_25  and  C12_26 
REMARK    7  A    between atoms: C12_26  and  C13_27 
REMARK    8  A    between atoms: C13_27  and  N7_28 
ROOT
HETATM    1  C5  UNL     1      26.686  29.739  -3.934  1.00  0.00     0.302 C 
HETATM    2  C6  UNL     1      26.037  28.483  -4.316  1.00  0.00     0.085 C 
HETATM    3  N1  UNL     1      25.528  27.494  -4.637  1.00  0.00    -0.195 NA
ENDROOT
BRANCH   1   4
HETATM    4  O2  UNL     1      28.063  29.613  -3.745  1.00  0.00    -0.304 OA
BRANCH   4   5
HETATM    5  C4  UNL     1      29.032  29.721  -4.676  1.00  0.00     0.290 C 
HETATM    6  O1  UNL     1      29.312  30.945  -5.003  1.00  0.00    -0.260 OA
BRANCH   5   7
HETATM    7  C3  UNL     1      29.764  28.704  -5.328  1.00  0.00     0.024 C 
HETATM    8  C2  UNL     1      30.965  28.407  -4.877  1.00  0.00    -0.062 C 
HETATM    9  C1  UNL     1      31.385  29.201  -3.723  1.00  0.00     0.045 C 
HETATM   10  C15 UNL     1      32.017  27.416  -5.301  1.00  0.00     0.110 C 
HETATM   11  S1  UNL     1      31.650  25.746  -4.762  1.00  0.00    -0.128 SA
HETATM   12  C14 UNL     1      30.397  24.969  -5.807  1.00  0.00     0.300 C 
HETATM   13  C9  UNL     1      29.145  24.823  -4.964  1.00  0.00     0.342 C 
HETATM   14  N8  UNL     1      30.066  25.917  -6.861  1.00  0.00    -0.029 N 
HETATM   15  N2  UNL     1      28.557  26.121  -5.099  1.00  0.00    -0.022 N 
HETATM   16  C8  UNL     1      28.911  26.612  -6.401  1.00  0.00     0.391 C 
ATOM     17  H22 UNL     1      28.819  26.758  -4.347  1.00  0.00     0.282 HD
ATOM     18  H21 UNL     1      27.552  26.123  -4.931  1.00  0.00     0.282 HD
HETATM   19  C7  UNL     1      28.994  28.114  -6.482  1.00  0.00     0.107 C 
ATOM     20  H82 UNL     1      29.948  25.486  -7.777  1.00  0.00     0.281 HD
ATOM     21  H81 UNL     1      30.839  26.532  -7.117  1.00  0.00     0.281 HD
BRANCH  13  22
HETATM   22  N3  UNL     1      29.500  24.558  -3.587  1.00  0.00    -0.191 N 
HETATM   23  C10 UNL     1      29.393  23.267  -3.032  1.00  0.00     0.708 C 
HETATM   24  N4  UNL     1      28.836  22.330  -3.695  1.00  0.00    -0.124 N 
HETATM   25  N6  UNL     1      29.902  23.007  -1.744  1.00  0.00    -0.096 N 
HETATM   26  C11 UNL     1      28.692  21.024  -3.216  1.00  0.00     0.196 C 
ATOM     27  H4  UNL     1      28.476  22.545  -4.624  1.00  0.00     0.197 HD
HETATM   28  N5  UNL     1      28.554  19.932  -2.811  1.00  0.00    -0.171 NA
ATOM     29  H6  UNL     1      29.910  23.781  -1.080  1.00  0.00     0.213 HD
ATOM     30  H3  UNL     1      29.836  25.324  -3.004  1.00  0.00     0.180 HD
BRANCH  25  31
HETATM   31  O3  UNL     1      30.373  21.834  -1.322  1.00  0.00    -0.265 OA
BRANCH  31  32
HETATM   32  C12 UNL     1      31.726  21.880  -1.000  1.00  0.00     0.229 C 
BRANCH  32  33
HETATM   33  C13 UNL     1      32.085  20.915   0.094  1.00  0.00     0.258 C 
BRANCH  33  34
HETATM   34  N7  UNL     1      31.361  19.680  -0.028  1.00  0.00    -0.077 N 
ATOM     35  H73 UNL     1      30.578  19.642   0.625  1.00  0.00     0.274 HD
ATOM     36  H72 UNL     1      30.840  19.639  -0.904  1.00  0.00     0.274 HD
ATOM     37  H71 UNL     1      31.973  18.871   0.079  1.00  0.00     0.274 HD
ENDBRANCH  33  34
ENDBRANCH  32  33
ENDBRANCH  31  32
ENDBRANCH  25  31
ENDBRANCH  13  22
ENDBRANCH   5   7
ENDBRANCH   4   5
ENDBRANCH   1   4
TORSDOF 8
ENDMDL
MODEL 5
REMARK VINA RESULT: -6.660593942      1.480      1.762
REMARK  8 active torsions:
REMARK  status: ('A' for Active; 'I' for Inactive)
REMARK    1  A    between atoms: C3_3  and  C4_4 
REMARK    2  A    between atoms: C4_4  and  O2_6 
REMARK    3  A    between atoms: O2_6  and  C5_7 
REMARK    4  A    between atoms: C9_15  and  N3_16 
REMARK       I    between atoms: N3_16  and  C10_18 
REMARK       I    between atoms: C10_18  and  N6_23 
REMARK    5  A    between atoms: N6_23  and  O3_25 
REMARK    6  A    between atoms: O3_25  and  C12_26 
REMARK    7  A    between atoms: C12_26  and  C13_27 
REMARK    8  A    between atoms: C13_27  and  N7_28 
ROOT
HETATM    1  C5  UNL     1      27.338  29.728  -4.630  1.00  0.00     0.302 C 
HETATM    2  C6  UNL     1      26.119  28.936  -4.450  1.00  0.00     0.085 C 
HETATM    3  N1  UNL     1      25.152  28.312  -4.327  1.00  0.00    -0.195 NA
ENDROOT
BRANCH   1   4
HETATM    4  O2  UNL     1      28.452  28.955  -4.963  1.00  0.00    -0.304 OA
BRANCH   4   5
HETATM    5  C4  UNL     1      28.821  27.774  -4.428  1.00  0.00     0.290 C 
HETATM    6  O1  UNL     1      29.090  27.833  -3.160  1.00  0.00    -0.260 OA
BRANCH   5   7
HETATM    7  C3  UNL     1      28.950  26.512  -5.049  1.00  0.00     0.024 C 
HETATM    8  C2  UNL     1      30.067  26.239  -5.692  1.00  0.00    -0.062 C 
HETATM    9  C1  UNL     1      31.050  27.321  -5.670  1.00  0.00     0.045 C 
HETATM   10  C15 UNL     1      30.555  25.039  -6.460  1.00  0.00     0.110 C 
HETATM   11  S1  UNL     1      31.115  23.715  -5.390  1.00  0.00    -0.128 SA
HETATM   12  C14 UNL     1      29.728  22.791  -4.692  1.00  0.00     0.300 C 
HETATM   13  C9  UNL     1      29.690  23.100  -3.208  1.00  0.00     0.342 C 
HETATM   14  N8  UNL     1      28.508  23.354  -5.253  1.00  0.00    -0.029 N 
HETATM   15  N2  UNL     1      28.969  24.336  -3.192  1.00  0.00    -0.022 N 
HETATM   16  C8  UNL     1      28.050  24.303  -4.295  1.00  0.00     0.391 C 
ATOM     17  H22 UNL     1      29.579  25.154  -3.204  1.00  0.00     0.282 HD
ATOM     18  H21 UNL     1      28.515  24.522  -2.299  1.00  0.00     0.282 HD
HETATM   19  C7  UNL     1      27.719  25.663  -4.851  1.00  0.00     0.107 C 
ATOM     20  H82 UNL     1      27.811  22.654  -5.502  1.00  0.00     0.281 HD
ATOM     21  H81 UNL     1      28.629  23.742  -6.188  1.00  0.00     0.281 HD
BRANCH  13  22
HETATM   22  N3  UNL     1      31.034  23.281  -2.703  1.00  0.00    -0.191 N 
HETATM   23  C10 UNL     1      31.634  22.336  -1.846  1.00  0.00     0.708 C 
HETATM   24  N4  UNL     1      30.945  21.371  -1.375  1.00  0.00    -0.124 N 
HETATM   25  N6  UNL     1      32.996  22.455  -1.506  1.00  0.00    -0.096 N 
HETATM   26  C11 UNL     1      31.466  20.393  -0.521  1.00  0.00     0.196 C 
ATOM     27  H4  UNL     1      29.961  21.309  -1.637  1.00  0.00     0.197 HD
HETATM   28  N5  UNL     1      31.894  19.582   0.208  1.00  0.00    -0.171 NA
ATOM     29  H6  UNL     1      33.393  23.395  -1.485  1.00  0.00     0.213 HD
ATOM     30  H3  UNL     1      31.560  24.112  -2.974  1.00  0.00     0.180 HD
BRANCH  25  31
HETATM   31  O3  UNL     1      33.809  21.441  -1.211  1.00  0.00    -0.265 OA
BRANCH  31  32
HETATM   32  C12 UNL     1      34.851  21.813  -0.365  1.00  0.00     0.229 C 
BRANCH  32  33
HETATM   33  C13 UNL     1      34.364  22.555   0.847  1.00  0.00     0.258 C 
BRANCH  33  34
HETATM   34  N7  UNL     1      33.762  21.671   1.806  1.00  0.00    -0.077 N 
ATOM     35  H73 UNL     1      34.398  21.474   2.579  1.00  0.00     0.274 HD
ATOM     36  H72 UNL     1      33.019  22.137   2.326  1.00  0.00     0.274 HD
ATOM     37  H71 UNL     1      33.430  20.811   1.370  1.00  0.00     0.274 HD
ENDBRANCH  33  34
ENDBRANCH  32  33
ENDBRANCH  31  32
ENDBRANCH  25  31
ENDBRANCH  13  22
ENDBRANCH   5   7
ENDBRANCH   4   5
ENDBRANCH   1   4
TORSDOF 8
ENDMDL
