MODEL 1
REMARK VINA RESULT: -6.605573666      0.000      0.000
REMARK  13 active torsions:
REMARK  status: ('A' for Active; 'I' for Inactive)
REMARK    1  A    between atoms: C2_2  and  C3_3 
REMARK    2  A    between atoms: C6_6  and  S1_7 
REMARK    3  A    between atoms: S1_7  and  N1_8 
REMARK    4  A    between atoms: S1_7  and  C7_12 
REMARK    5  A    between atoms: C10_20  and  N4_21 
REMARK    6  A    between atoms: N6_27  and  C12_28 
REMARK    7  A    between atoms: C12_28  and  C13_29 
REMARK    8  A    between atoms: C13_29  and  O3_30 
REMARK    9  A    between atoms: O3_30  and  C14_31 
REMARK   10  A    between atoms: C14_31  and  C15_32 
REMARK   11  A    between atoms: C15_32  and  N7_33 
REMARK   12  A    between atoms: N7_33  and  C16_34 
REMARK   13  A    between atoms: N7_33  and  C18_36 
ROOT
HETATM    1  C7  UNL     1      45.841  34.406  37.183  1.00  0.00     0.191 A 
HETATM    2  N2  UNL     1      45.297  35.315  38.059  1.00  0.00    -0.326 N 
ATOM      3  H2  UNL     1      45.184  35.160  39.061  1.00  0.00     0.168 HD
HETATM    4  C8  UNL     1      44.941  36.422  37.420  1.00  0.00     0.149 A 
HETATM    5  C9  UNL     1      44.371  37.621  37.790  1.00  0.00     0.290 A 
HETATM    6  O2  UNL     1      44.071  37.808  38.986  1.00  0.00    -0.265 OA
HETATM    7  N3  UNL     1      44.144  38.576  36.848  1.00  0.00    -0.154 N 
ATOM      8  H3  UNL     1      43.722  39.461  37.130  1.00  0.00     0.187 HD
HETATM    9  C10 UNL     1      44.463  38.385  35.554  1.00  0.00     0.680 A 
HETATM   10  N5  UNL     1      45.013  37.219  35.199  1.00  0.00    -0.174 N 
ATOM     11  H5  UNL     1      45.255  37.066  34.220  1.00  0.00     0.186 HD
HETATM   12  C11 UNL     1      45.259  36.230  36.098  1.00  0.00     0.158 A 
HETATM   13  N6  UNL     1      45.808  34.970  36.006  1.00  0.00    -0.306 N 
ENDROOT
BRANCH   1  14
HETATM   14  S1  UNL     1      46.460  32.859  37.693  1.00  0.00     0.114 S 
HETATM   15  O1  UNL     1      45.654  32.316  38.857  1.00  0.00    -0.237 OA
BRANCH  14  16
HETATM   16  C6  UNL     1      48.076  33.134  38.304  1.00  0.00     0.046 A 
HETATM   17  C5  UNL     1      48.829  34.248  37.995  1.00  0.00     0.023 A 
HETATM   18  C4  UNL     1      50.096  34.480  38.471  1.00  0.00     0.008 A 
HETATM   19  C3  UNL     1      50.666  33.559  39.309  1.00  0.00    -0.058 A 
HETATM   20  C21 UNL     1      49.940  32.421  39.647  1.00  0.00     0.008 A 
HETATM   21  C20 UNL     1      48.656  32.209  39.152  1.00  0.00     0.023 A 
BRANCH  19  22
HETATM   22  C2  UNL     1      52.023  33.736  39.864  1.00  0.00     0.034 C 
HETATM   23  C1  UNL     1      52.464  32.511  40.633  1.00  0.00     0.010 C 
ENDBRANCH  19  22
ENDBRANCH  14  16
BRANCH  14  24
HETATM   24  N1  UNL     1      46.543  31.794  36.622  1.00  0.00    -0.350 N 
ATOM     25  H12 UNL     1      47.356  31.612  36.033  1.00  0.00     0.166 HD
ATOM     26  H11 UNL     1      45.650  31.302  36.599  1.00  0.00     0.166 HD
ENDBRANCH  14  24
ENDBRANCH   1  14
BRANCH  13  27
HETATM   27  C12 UNL     1      46.197  34.448  34.707  1.00  0.00     0.159 C 
BRANCH  27  28
HETATM   28  C13 UNL     1      47.739  34.502  34.583  1.00  0.00     0.188 C 
BRANCH  28  29
HETATM   29  O3  UNL     1      48.254  33.247  34.492  1.00  0.00    -0.388 OA
BRANCH  29  30
HETATM   30  C14 UNL     1      49.602  33.075  34.578  1.00  0.00     0.198 C 
BRANCH  30  31
HETATM   31  C15 UNL     1      50.020  31.671  34.904  1.00  0.00     0.298 C 
BRANCH  31  32
HETATM   32  N7  UNL     1      50.672  31.524  36.186  1.00  0.00     0.089 N 
BRANCH  32  33
HETATM   33  C16 UNL     1      50.757  30.116  36.565  1.00  0.00     0.268 C 
HETATM   34  C17 UNL     1      49.439  29.469  36.799  1.00  0.00     0.037 C 
ENDBRANCH  32  33
BRANCH  32  35
HETATM   35  C18 UNL     1      52.015  32.104  36.172  1.00  0.00     0.268 C 
HETATM   36  C19 UNL     1      52.972  31.389  37.090  1.00  0.00     0.037 C 
ENDBRANCH  32  35
ENDBRANCH  31  32
ENDBRANCH  30  31
ENDBRANCH  29  30
ENDBRANCH  28  29
ENDBRANCH  27  28
ENDBRANCH  13  27
BRANCH   9  37
HETATM   37  N4  UNL     1      44.235  39.335  34.697  1.00  0.00    -0.234 N 
ATOM     38  H42 UNL     1      44.988  39.835  34.223  1.00  0.00     0.174 HD
ATOM     39  H41 UNL     1      43.272  39.600  34.492  1.00  0.00     0.174 HD
ENDBRANCH   9  37
TORSDOF 13
ENDMDL
MODEL 2
REMARK VINA RESULT: -6.587784626      2.421      4.434
REMARK  13 active torsions:
REMARK  status: ('A' for Active; 'I' for Inactive)
REMARK    1  A    between atoms: C2_2  and  C3_3 
REMARK    2  A    between atoms: C6_6  and  S1_7 
REMARK    3  A    between atoms: S1_7  and  N1_8 
REMARK    4  A    between atoms: S1_7  and  C7_12 
REMARK    5  A    between atoms: C10_20  and  N4_21 
REMARK    6  A    between atoms: N6_27  and  C12_28 
REMARK    7  A    between atoms: C12_28  and  C13_29 
REMARK    8  A    between atoms: C13_29  and  O3_30 
REMARK    9  A    between atoms: O3_30  and  C14_31 
REMARK   10  A    between atoms: C14_31  and  C15_32 
REMARK   11  A    between atoms: C15_32  and  N7_33 
REMARK   12  A    between atoms: N7_33  and  C16_34 
REMARK   13  A    between atoms: N7_33  and  C18_36 
ROOT
HETATM    1  C7  UNL     1      48.943  32.455  38.679  1.00  0.00     0.191 A 
HETATM    2  N2  UNL     1      48.249  33.623  38.888  1.00  0.00    -0.326 N 
ATOM      3  H2  UNL     1      48.400  34.255  39.675  1.00  0.00     0.168 HD
HETATM    4  C8  UNL     1      47.357  33.814  37.925  1.00  0.00     0.149 A 
HETATM    5  C9  UNL     1      46.426  34.789  37.638  1.00  0.00     0.290 A 
HETATM    6  O2  UNL     1      46.306  35.760  38.409  1.00  0.00    -0.265 OA
HETATM    7  N3  UNL     1      45.655  34.673  36.523  1.00  0.00    -0.154 N 
ATOM      8  H3  UNL     1      44.968  35.398  36.317  1.00  0.00     0.187 HD
HETATM    9  C10 UNL     1      45.775  33.627  35.684  1.00  0.00     0.680 A 
HETATM   10  N5  UNL     1      46.677  32.682  35.968  1.00  0.00    -0.174 N 
ATOM     11  H5  UNL     1      46.772  31.886  35.337  1.00  0.00     0.186 HD
HETATM   12  C11 UNL     1      47.471  32.747  37.069  1.00  0.00     0.158 A 
HETATM   13  N6  UNL     1      48.461  31.938  37.581  1.00  0.00    -0.306 N 
ENDROOT
BRANCH   1  14
HETATM   14  S1  UNL     1      50.226  31.919  39.729  1.00  0.00     0.114 S 
HETATM   15  O1  UNL     1      50.174  32.651  41.056  1.00  0.00    -0.237 OA
BRANCH  14  16
HETATM   16  C6  UNL     1      51.732  32.388  38.972  1.00  0.00     0.046 A 
HETATM   17  C5  UNL     1      52.420  31.588  38.083  1.00  0.00     0.023 A 
HETATM   18  C4  UNL     1      53.600  31.944  37.478  1.00  0.00     0.008 A 
HETATM   19  C3  UNL     1      54.145  33.169  37.761  1.00  0.00    -0.058 A 
HETATM   20  C21 UNL     1      53.482  34.007  38.651  1.00  0.00     0.008 A 
HETATM   21  C20 UNL     1      52.285  33.623  39.252  1.00  0.00     0.023 A 
BRANCH  19  22
HETATM   22  C2  UNL     1      55.409  33.626  37.150  1.00  0.00     0.034 C 
HETATM   23  C1  UNL     1      55.494  33.216  35.696  1.00  0.00     0.010 C 
ENDBRANCH  19  22
ENDBRANCH  14  16
BRANCH  14  24
HETATM   24  N1  UNL     1      50.283  30.432  39.997  1.00  0.00    -0.350 N 
ATOM     25  H12 UNL     1      50.765  29.746  39.416  1.00  0.00     0.166 HD
ATOM     26  H11 UNL     1      49.760  30.246  40.853  1.00  0.00     0.166 HD
ENDBRANCH  14  24
ENDBRANCH   1  14
BRANCH  13  27
HETATM   27  C12 UNL     1      48.779  30.683  36.920  1.00  0.00     0.159 C 
BRANCH  27  28
HETATM   28  C13 UNL     1      49.874  30.937  35.857  1.00  0.00     0.188 C 
BRANCH  28  29
HETATM   29  O3  UNL     1      49.347  31.559  34.768  1.00  0.00    -0.388 OA
BRANCH  29  30
HETATM   30  C14 UNL     1      49.957  32.674  34.281  1.00  0.00     0.198 C 
BRANCH  30  31
HETATM   31  C15 UNL     1      50.831  33.378  35.277  1.00  0.00     0.298 C 
BRANCH  31  32
HETATM   32  N7  UNL     1      50.255  34.582  35.831  1.00  0.00     0.089 N 
BRANCH  32  33
HETATM   33  C16 UNL     1      51.292  35.577  36.096  1.00  0.00     0.268 C 
HETATM   34  C17 UNL     1      52.513  35.420  35.262  1.00  0.00     0.037 C 
ENDBRANCH  32  33
BRANCH  32  35
HETATM   35  C18 UNL     1      49.251  35.157  34.934  1.00  0.00     0.268 C 
HETATM   36  C19 UNL     1      48.765  36.508  35.388  1.00  0.00     0.037 C 
ENDBRANCH  32  35
ENDBRANCH  31  32
ENDBRANCH  30  31
ENDBRANCH  29  30
ENDBRANCH  28  29
ENDBRANCH  27  28
ENDBRANCH  13  27
BRANCH   9  37
HETATM   37  N4  UNL     1      45.020  33.572  34.627  1.00  0.00    -0.234 N 
ATOM     38  H42 UNL     1      44.300  34.268  34.434  1.00  0.00     0.174 HD
ATOM     39  H41 UNL     1      45.144  32.805  33.966  1.00  0.00     0.174 HD
ENDBRANCH   9  37
TORSDOF 13
ENDMDL
MODEL 3
REMARK VINA RESULT: -6.562062448      0.538      1.309
REMARK  13 active torsions:
REMARK  status: ('A' for Active; 'I' for Inactive)
REMARK    1  A    between atoms: C2_2  and  C3_3 
REMARK    2  A    between atoms: C6_6  and  S1_7 
REMARK    3  A    between atoms: S1_7  and  N1_8 
REMARK    4  A    between atoms: S1_7  and  C7_12 
REMARK    5  A    between atoms: C10_20  and  N4_21 
REMARK    6  A    between atoms: N6_27  and  C12_28 
REMARK    7  A    between atoms: C12_28  and  C13_29 
REMARK    8  A    between atoms: C13_29  and  O3_30 
REMARK    9  A    between atoms: O3_30  and  C14_31 
REMARK   10  A    between atoms: C14_31  and  C15_32 
REMARK   11  A    between atoms: C15_32  and  N7_33 
REMARK   12  A    between atoms: N7_33  and  C16_34 
REMARK   13  A    between atoms: N7_33  and  C18_36 
ROOT
HETATM    1  C7  UNL     1      45.852  34.379  37.362  1.00  0.00     0.191 A 
HETATM    2  N2  UNL     1      45.296  35.307  38.211  1.00  0.00    -0.326 N 
ATOM      3  H2  UNL     1      45.166  35.173  39.214  1.00  0.00     0.168 HD
HETATM    4  C8  UNL     1      44.952  36.401  37.544  1.00  0.00     0.149 A 
HETATM    5  C9  UNL     1      44.379  37.609  37.881  1.00  0.00     0.290 A 
HETATM    6  O2  UNL     1      44.060  37.820  39.067  1.00  0.00    -0.265 OA
HETATM    7  N3  UNL     1      44.169  38.545  36.916  1.00  0.00    -0.154 N 
ATOM      8  H3  UNL     1      43.744  39.436  37.173  1.00  0.00     0.187 HD
HETATM    9  C10 UNL     1      44.508  38.327  35.631  1.00  0.00     0.680 A 
HETATM   10  N5  UNL     1      45.061  37.154  35.309  1.00  0.00    -0.174 N 
ATOM     11  H5  UNL     1      45.319  36.981  34.337  1.00  0.00     0.186 HD
HETATM   12  C11 UNL     1      45.291  36.183  36.232  1.00  0.00     0.158 A 
HETATM   13  N6  UNL     1      45.840  34.920  36.174  1.00  0.00    -0.306 N 
ENDROOT
BRANCH   1  14
HETATM   14  S1  UNL     1      46.460  32.843  37.913  1.00  0.00     0.114 S 
HETATM   15  O1  UNL     1      45.685  32.363  39.125  1.00  0.00    -0.237 OA
BRANCH  14  16
HETATM   16  C6  UNL     1      48.100  33.110  38.458  1.00  0.00     0.046 A 
HETATM   17  C5  UNL     1      48.779  34.298  38.282  1.00  0.00     0.023 A 
HETATM   18  C4  UNL     1      50.064  34.524  38.707  1.00  0.00     0.008 A 
HETATM   19  C3  UNL     1      50.733  33.518  39.353  1.00  0.00    -0.058 A 
HETATM   20  C21 UNL     1      50.086  32.304  39.553  1.00  0.00     0.008 A 
HETATM   21  C20 UNL     1      48.780  32.099  39.111  1.00  0.00     0.023 A 
BRANCH  19  22
HETATM   22  C2  UNL     1      52.117  33.683  39.843  1.00  0.00     0.034 C 
HETATM   23  C1  UNL     1      53.042  34.127  38.731  1.00  0.00     0.010 C 
ENDBRANCH  19  22
ENDBRANCH  14  16
BRANCH  14  24
HETATM   24  N1  UNL     1      46.486  31.734  36.884  1.00  0.00    -0.350 N 
ATOM     25  H12 UNL     1      47.315  31.210  36.604  1.00  0.00     0.166 HD
ATOM     26  H11 UNL     1      45.538  31.612  36.530  1.00  0.00     0.166 HD
ENDBRANCH  14  24
ENDBRANCH   1  14
BRANCH  13  27
HETATM   27  C12 UNL     1      46.248  34.371  34.892  1.00  0.00     0.159 C 
BRANCH  27  28
HETATM   28  C13 UNL     1      47.794  34.374  34.813  1.00  0.00     0.188 C 
BRANCH  28  29
HETATM   29  O3  UNL     1      48.271  33.101  34.762  1.00  0.00    -0.388 OA
BRANCH  29  30
HETATM   30  C14 UNL     1      49.610  32.900  34.616  1.00  0.00     0.198 C 
BRANCH  30  31
HETATM   31  C15 UNL     1      50.218  32.041  35.686  1.00  0.00     0.298 C 
BRANCH  31  32
HETATM   32  N7  UNL     1      50.476  30.677  35.282  1.00  0.00     0.089 N 
BRANCH  32  33
HETATM   33  C16 UNL     1      51.584  30.111  36.047  1.00  0.00     0.268 C 
HETATM   34  C17 UNL     1      52.475  31.126  36.669  1.00  0.00     0.037 C 
ENDBRANCH  32  33
BRANCH  32  35
HETATM   35  C18 UNL     1      49.290  29.836  35.451  1.00  0.00     0.268 C 
HETATM   36  C19 UNL     1      49.192  29.233  36.828  1.00  0.00     0.037 C 
ENDBRANCH  32  35
ENDBRANCH  31  32
ENDBRANCH  30  31
ENDBRANCH  29  30
ENDBRANCH  28  29
ENDBRANCH  27  28
ENDBRANCH  13  27
BRANCH   9  37
HETATM   37  N4  UNL     1      44.296  39.260  34.752  1.00  0.00    -0.234 N 
ATOM     38  H42 UNL     1      45.057  39.744  34.275  1.00  0.00     0.174 HD
ATOM     39  H41 UNL     1      43.337  39.527  34.531  1.00  0.00     0.174 HD
ENDBRANCH   9  37
TORSDOF 13
ENDMDL
MODEL 4
REMARK VINA RESULT: -6.512080846      2.493      4.256
REMARK  13 active torsions:
REMARK  status: ('A' for Active; 'I' for Inactive)
REMARK    1  A    between atoms: C2_2  and  C3_3 
REMARK    2  A    between atoms: C6_6  and  S1_7 
REMARK    3  A    between atoms: S1_7  and  N1_8 
REMARK    4  A    between atoms: S1_7  and  C7_12 
REMARK    5  A    between atoms: C10_20  and  N4_21 
REMARK    6  A    between atoms: N6_27  and  C12_28 
REMARK    7  A    between atoms: C12_28  and  C13_29 
REMARK    8  A    between atoms: C13_29  and  O3_30 
REMARK    9  A    between atoms: O3_30  and  C14_31 
REMARK   10  A    between atoms: C14_31  and  C15_32 
REMARK   11  A    between atoms: C15_32  and  N7_33 
REMARK   12  A    between atoms: N7_33  and  C16_34 
REMARK   13  A    between atoms: N7_33  and  C18_36 
ROOT
HETATM    1  C7  UNL     1      48.999  32.473  38.672  1.00  0.00     0.191 A 
HETATM    2  N2  UNL     1      48.334  33.662  38.851  1.00  0.00    -0.326 N 
ATOM      3  H2  UNL     1      48.508  34.317  39.614  1.00  0.00     0.168 HD
HETATM    4  C8  UNL     1      47.433  33.841  37.893  1.00  0.00     0.149 A 
HETATM    5  C9  UNL     1      46.520  34.827  37.585  1.00  0.00     0.290 A 
HETATM    6  O2  UNL     1      46.432  35.826  38.324  1.00  0.00    -0.265 OA
HETATM    7  N3  UNL     1      45.732  34.691  36.484  1.00  0.00    -0.154 N 
ATOM      8  H3  UNL     1      45.059  35.424  36.262  1.00  0.00     0.187 HD
HETATM    9  C10 UNL     1      45.818  33.615  35.679  1.00  0.00     0.680 A 
HETATM   10  N5  UNL     1      46.703  32.661  35.983  1.00  0.00    -0.174 N 
ATOM     11  H5  UNL     1      46.772  31.842  35.379  1.00  0.00     0.186 HD
HETATM   12  C11 UNL     1      47.513  32.744  37.071  1.00  0.00     0.158 A 
HETATM   13  N6  UNL     1      48.491  31.930  37.599  1.00  0.00    -0.306 N 
ENDROOT
BRANCH   1  14
HETATM   14  S1  UNL     1      50.284  31.943  39.723  1.00  0.00     0.114 S 
HETATM   15  O1  UNL     1      50.228  32.677  41.049  1.00  0.00    -0.237 OA
BRANCH  14  16
HETATM   16  C6  UNL     1      51.787  32.417  38.967  1.00  0.00     0.046 A 
HETATM   17  C5  UNL     1      52.439  31.654  38.019  1.00  0.00     0.023 A 
HETATM   18  C4  UNL     1      53.617  32.014  37.414  1.00  0.00     0.008 A 
HETATM   19  C3  UNL     1      54.199  33.205  37.757  1.00  0.00    -0.058 A 
HETATM   20  C21 UNL     1      53.575  34.006  38.708  1.00  0.00     0.008 A 
HETATM   21  C20 UNL     1      52.379  33.619  39.308  1.00  0.00     0.023 A 
BRANCH  19  22
HETATM   22  C2  UNL     1      55.464  33.665  37.150  1.00  0.00     0.034 C 
HETATM   23  C1  UNL     1      55.570  35.174  37.180  1.00  0.00     0.010 C 
ENDBRANCH  19  22
ENDBRANCH  14  16
BRANCH  14  24
HETATM   24  N1  UNL     1      50.346  30.457  39.994  1.00  0.00    -0.350 N 
ATOM     25  H12 UNL     1      49.964  29.731  39.388  1.00  0.00     0.166 HD
ATOM     26  H11 UNL     1      50.832  30.319  40.880  1.00  0.00     0.166 HD
ENDBRANCH  14  24
ENDBRANCH   1  14
BRANCH  13  27
HETATM   27  C12 UNL     1      48.772  30.648  36.976  1.00  0.00     0.159 C 
BRANCH  27  28
HETATM   28  C13 UNL     1      49.840  30.845  35.875  1.00  0.00     0.188 C 
BRANCH  28  29
HETATM   29  O3  UNL     1      49.271  31.336  34.741  1.00  0.00    -0.388 OA
BRANCH  29  30
HETATM   30  C14 UNL     1      49.877  32.365  34.086  1.00  0.00     0.198 C 
BRANCH  30  31
HETATM   31  C15 UNL     1      51.146  32.838  34.731  1.00  0.00     0.298 C 
BRANCH  31  32
HETATM   32  N7  UNL     1      51.240  34.272  34.885  1.00  0.00     0.089 N 
BRANCH  32  33
HETATM   33  C16 UNL     1      50.704  34.689  36.178  1.00  0.00     0.268 C 
HETATM   34  C17 UNL     1      51.222  35.998  36.657  1.00  0.00     0.037 C 
ENDBRANCH  32  33
BRANCH  32  35
HETATM   35  C18 UNL     1      52.622  34.735  34.760  1.00  0.00     0.268 C 
HETATM   36  C19 UNL     1      53.501  33.762  34.018  1.00  0.00     0.037 C 
ENDBRANCH  32  35
ENDBRANCH  31  32
ENDBRANCH  30  31
ENDBRANCH  29  30
ENDBRANCH  28  29
ENDBRANCH  27  28
ENDBRANCH  13  27
BRANCH   9  37
HETATM   37  N4  UNL     1      45.048  33.542  34.634  1.00  0.00    -0.234 N 
ATOM     38  H42 UNL     1      44.060  33.792  34.665  1.00  0.00     0.174 HD
ATOM     39  H41 UNL     1      45.440  33.218  33.749  1.00  0.00     0.174 HD
ENDBRANCH   9  37
TORSDOF 13
ENDMDL
MODEL 5
REMARK VINA RESULT: -6.472672679      2.467      4.276
REMARK  13 active torsions:
REMARK  status: ('A' for Active; 'I' for Inactive)
REMARK    1  A    between atoms: C2_2  and  C3_3 
REMARK    2  A    between atoms: C6_6  and  S1_7 
REMARK    3  A    between atoms: S1_7  and  N1_8 
REMARK    4  A    between atoms: S1_7  and  C7_12 
REMARK    5  A    between atoms: C10_20  and  N4_21 
REMARK    6  A    between atoms: N6_27  and  C12_28 
REMARK    7  A    between atoms: C12_28  and  C13_29 
REMARK    8  A    between atoms: C13_29  and  O3_30 
REMARK    9  A    between atoms: O3_30  and  C14_31 
REMARK   10  A    between atoms: C14_31  and  C15_32 
REMARK   11  A    between atoms: C15_32  and  N7_33 
REMARK   12  A    between atoms: N7_33  and  C16_34 
REMARK   13  A    between atoms: N7_33  and  C18_36 
ROOT
HETATM    1  C7  UNL     1      48.993  32.498  38.645  1.00  0.00     0.191 A 
HETATM    2  N2  UNL     1      48.326  33.685  38.832  1.00  0.00    -0.326 N 
ATOM      3  H2  UNL     1      48.505  34.337  39.596  1.00  0.00     0.168 HD
HETATM    4  C8  UNL     1      47.419  33.865  37.881  1.00  0.00     0.149 A 
HETATM    5  C9  UNL     1      46.501  34.850  37.584  1.00  0.00     0.290 A 
HETATM    6  O2  UNL     1      46.415  35.846  38.328  1.00  0.00    -0.265 OA
HETATM    7  N3  UNL     1      45.706  34.717  36.488  1.00  0.00    -0.154 N 
ATOM      8  H3  UNL     1      45.029  35.449  36.274  1.00  0.00     0.187 HD
HETATM    9  C10 UNL     1      45.788  33.644  35.678  1.00  0.00     0.680 A 
HETATM   10  N5  UNL     1      46.678  32.691  35.972  1.00  0.00    -0.174 N 
ATOM     11  H5  UNL     1      46.745  31.874  35.364  1.00  0.00     0.186 HD
HETATM   12  C11 UNL     1      47.495  32.772  37.055  1.00  0.00     0.158 A 
HETATM   13  N6  UNL     1      48.480  31.959  37.573  1.00  0.00    -0.306 N 
ENDROOT
BRANCH   1  14
HETATM   14  S1  UNL     1      50.287  31.968  39.684  1.00  0.00     0.114 S 
HETATM   15  O1  UNL     1      50.242  32.701  41.011  1.00  0.00    -0.237 OA
BRANCH  14  16
HETATM   16  C6  UNL     1      51.784  32.442  38.916  1.00  0.00     0.046 A 
HETATM   17  C5  UNL     1      52.365  33.683  39.075  1.00  0.00     0.023 A 
HETATM   18  C4  UNL     1      53.541  34.068  38.482  1.00  0.00     0.008 A 
HETATM   19  C3  UNL     1      54.199  33.175  37.678  1.00  0.00    -0.058 A 
HETATM   20  C21 UNL     1      53.649  31.911  37.491  1.00  0.00     0.008 A 
HETATM   21  C20 UNL     1      52.453  31.545  38.104  1.00  0.00     0.023 A 
BRANCH  19  22
HETATM   22  C2  UNL     1      55.470  33.512  37.006  1.00  0.00     0.034 C 
HETATM   23  C1  UNL     1      55.706  35.006  36.997  1.00  0.00     0.010 C 
ENDBRANCH  19  22
ENDBRANCH  14  16
BRANCH  14  24
HETATM   24  N1  UNL     1      50.351  30.481  39.954  1.00  0.00    -0.350 N 
ATOM     25  H12 UNL     1      51.176  29.894  39.826  1.00  0.00     0.166 HD
ATOM     26  H11 UNL     1      49.434  30.181  40.282  1.00  0.00     0.166 HD
ENDBRANCH  14  24
ENDBRANCH   1  14
BRANCH  13  27
HETATM   27  C12 UNL     1      48.760  30.679  36.943  1.00  0.00     0.159 C 
BRANCH  27  28
HETATM   28  C13 UNL     1      49.850  30.876  35.863  1.00  0.00     0.188 C 
BRANCH  28  29
HETATM   29  O3  UNL     1      49.326  31.475  34.760  1.00  0.00    -0.388 OA
BRANCH  29  30
HETATM   30  C14 UNL     1      49.894  32.621  34.293  1.00  0.00     0.198 C 
BRANCH  30  31
HETATM   31  C15 UNL     1      51.309  32.830  34.745  1.00  0.00     0.298 C 
BRANCH  31  32
HETATM   32  N7  UNL     1      51.526  34.056  35.479  1.00  0.00     0.089 N 
BRANCH  32  33
HETATM   33  C16 UNL     1      52.516  34.894  34.805  1.00  0.00     0.268 C 
HETATM   34  C17 UNL     1      53.446  34.143  33.920  1.00  0.00     0.037 C 
ENDBRANCH  32  33
BRANCH  32  35
HETATM   35  C18 UNL     1      50.283  34.810  35.640  1.00  0.00     0.268 C 
HETATM   36  C19 UNL     1      50.356  35.831  36.746  1.00  0.00     0.037 C 
ENDBRANCH  32  35
ENDBRANCH  31  32
ENDBRANCH  30  31
ENDBRANCH  29  30
ENDBRANCH  28  29
ENDBRANCH  27  28
ENDBRANCH  13  27
BRANCH   9  37
HETATM   37  N4  UNL     1      45.012  33.573  34.638  1.00  0.00    -0.234 N 
ATOM     38  H42 UNL     1      44.903  32.715  34.096  1.00  0.00     0.174 HD
ATOM     39  H41 UNL     1      44.496  34.402  34.345  1.00  0.00     0.174 HD
ENDBRANCH   9  37
TORSDOF 13
ENDMDL
