MODEL 1
REMARK VINA RESULT: -6.394639183      0.000      0.000
REMARK  14 active torsions:
REMARK  status: ('A' for Active; 'I' for Inactive)
REMARK    1  A    between atoms: O1_2  and  C2_3 
REMARK    2  A    between atoms: C2_3  and  C3_5 
REMARK    3  A    between atoms: C6_10  and  N2_11 
REMARK    4  A    between atoms: N2_11  and  C7_13 
REMARK    5  A    between atoms: C7_13  and  C8_14 
REMARK    6  A    between atoms: C8_14  and  C9_15 
REMARK    7  A    between atoms: C9_15  and  O3_16 
REMARK    8  A    between atoms: O3_16  and  C10_17 
REMARK    9  A    between atoms: C12_19  and  O4_20 
REMARK   10  A    between atoms: C17_26  and  N4_27 
REMARK   11  A    between atoms: N4_27  and  C18_29 
REMARK   12  A    between atoms: C18_29  and  C19_30 
REMARK   13  A    between atoms: C19_30  and  C20_31 
REMARK   14  A    between atoms: C20_31  and  N5_32 
ROOT
HETATM    1  C3  UNL     1      54.601  35.114  37.058  1.00  0.00     0.112 A 
HETATM    2  C4  UNL     1      54.305  34.277  38.112  1.00  0.00     0.069 A 
HETATM    3  C5  UNL     1      52.931  34.287  38.247  1.00  0.00     0.080 A 
HETATM    4  N1  UNL     1      52.076  33.661  39.102  1.00  0.00    -0.337 N 
ATOM      5  H1  UNL     1      52.446  33.039  39.820  1.00  0.00     0.168 HD
HETATM    6  C6  UNL     1      50.749  33.855  39.009  1.00  0.00     0.146 A 
HETATM    7  C17 UNL     1      50.205  34.703  38.032  1.00  0.00     0.147 A 
HETATM    8  N6  UNL     1      51.061  35.310  37.201  1.00  0.00    -0.324 N 
ATOM      9  H6  UNL     1      50.694  35.933  36.481  1.00  0.00     0.169 HD
HETATM   10  C23 UNL     1      52.411  35.122  37.285  1.00  0.00     0.135 A 
HETATM   11  N7  UNL     1      53.445  35.605  36.585  1.00  0.00    -0.336 N 
ATOM     12  H7  UNL     1      53.365  36.254  35.802  1.00  0.00     0.168 HD
ENDROOT
BRANCH   6  13
HETATM   13  N2  UNL     1      49.913  33.302  39.773  1.00  0.00    -0.373 N 
ATOM     14  H2  UNL     1      48.955  33.644  39.687  1.00  0.00     0.161 HD
BRANCH  13  15
HETATM   15  C7  UNL     1      50.102  32.282  40.731  1.00  0.00     0.123 C 
BRANCH  15  16
HETATM   16  C8  UNL     1      50.763  31.037  40.161  1.00  0.00     0.046 C 
BRANCH  16  17
HETATM   17  C9  UNL     1      49.752  29.935  39.971  1.00  0.00     0.177 C 
BRANCH  17  18
HETATM   18  O3  UNL     1      49.332  29.843  38.686  1.00  0.00    -0.349 OA
BRANCH  18  19
HETATM   19  C10 UNL     1      49.719  30.363  37.491  1.00  0.00     0.095 A 
HETATM   20  C11 UNL     1      50.817  29.997  36.751  1.00  0.00     0.075 A 
HETATM   21  C12 UNL     1      51.098  30.618  35.530  1.00  0.00     0.070 A 
HETATM   22  C14 UNL     1      50.306  31.610  35.011  1.00  0.00     0.039 A 
HETATM   23  C15 UNL     1      49.204  31.984  35.740  1.00  0.00     0.032 A 
HETATM   24  C16 UNL     1      48.918  31.384  36.940  1.00  0.00     0.079 A 
HETATM   25  N3  UNL     1      47.767  31.778  37.698  1.00  0.00    -0.100 NA
BRANCH  21  26
HETATM   26  O4  UNL     1      52.221  30.194  34.848  1.00  0.00    -0.356 OA
HETATM   27  C13 UNL     1      52.946  31.003  33.971  1.00  0.00     0.210 C 
ENDBRANCH  21  26
ENDBRANCH  18  19
ENDBRANCH  17  18
ENDBRANCH  16  17
ENDBRANCH  15  16
ENDBRANCH  13  15
ENDBRANCH   6  13
BRANCH   7  28
HETATM   28  N4  UNL     1      48.936  34.858  37.975  1.00  0.00    -0.373 N 
ATOM     29  H4  UNL     1      48.387  34.278  38.609  1.00  0.00     0.161 HD
BRANCH  28  30
HETATM   30  C18 UNL     1      48.196  35.737  37.140  1.00  0.00     0.123 C 
BRANCH  30  31
HETATM   31  C19 UNL     1      47.140  35.047  36.316  1.00  0.00     0.050 C 
BRANCH  31  32
HETATM   32  C20 UNL     1      45.824  35.159  37.048  1.00  0.00     0.273 C 
BRANCH  32  33
HETATM   33  N5  UNL     1      45.552  36.478  37.533  1.00  0.00     0.080 N 
HETATM   34  C21 UNL     1      44.792  37.297  36.607  1.00  0.00     0.309 C 
HETATM   35  C22 UNL     1      44.910  36.438  38.824  1.00  0.00     0.309 C 
ENDBRANCH  32  33
ENDBRANCH  31  32
ENDBRANCH  30  31
ENDBRANCH  28  30
ENDBRANCH   7  28
BRANCH   1  36
HETATM   36  C2  UNL     1      55.959  35.408  36.552  1.00  0.00     0.309 C 
HETATM   37  O2  UNL     1      56.566  36.435  36.890  1.00  0.00    -0.258 OA
BRANCH  36  38
HETATM   38  O1  UNL     1      56.555  34.520  35.688  1.00  0.00    -0.321 OA
HETATM   39  C1  UNL     1      55.834  33.714  34.767  1.00  0.00     0.213 C 
ENDBRANCH  36  38
ENDBRANCH   1  36
TORSDOF 14
ENDMDL
MODEL 2
REMARK VINA RESULT: -6.248338063      2.300      6.752
REMARK  14 active torsions:
REMARK  status: ('A' for Active; 'I' for Inactive)
REMARK    1  A    between atoms: O1_2  and  C2_3 
REMARK    2  A    between atoms: C2_3  and  C3_5 
REMARK    3  A    between atoms: C6_10  and  N2_11 
REMARK    4  A    between atoms: N2_11  and  C7_13 
REMARK    5  A    between atoms: C7_13  and  C8_14 
REMARK    6  A    between atoms: C8_14  and  C9_15 
REMARK    7  A    between atoms: C9_15  and  O3_16 
REMARK    8  A    between atoms: O3_16  and  C10_17 
REMARK    9  A    between atoms: C12_19  and  O4_20 
REMARK   10  A    between atoms: C17_26  and  N4_27 
REMARK   11  A    between atoms: N4_27  and  C18_29 
REMARK   12  A    between atoms: C18_29  and  C19_30 
REMARK   13  A    between atoms: C19_30  and  C20_31 
REMARK   14  A    between atoms: C20_31  and  N5_32 
ROOT
HETATM    1  C3  UNL     1      47.560  33.927  38.091  1.00  0.00     0.112 A 
HETATM    2  C4  UNL     1      48.646  34.393  38.798  1.00  0.00     0.069 A 
HETATM    3  C5  UNL     1      49.689  34.485  37.898  1.00  0.00     0.080 A 
HETATM    4  N1  UNL     1      50.988  34.879  38.017  1.00  0.00    -0.337 N 
ATOM      5  H1  UNL     1      51.342  35.184  38.923  1.00  0.00     0.168 HD
HETATM    6  C6  UNL     1      51.807  34.870  36.951  1.00  0.00     0.146 A 
HETATM    7  C17 UNL     1      51.353  34.458  35.689  1.00  0.00     0.147 A 
HETATM    8  N6  UNL     1      50.074  34.074  35.592  1.00  0.00    -0.324 N 
ATOM      9  H6  UNL     1      49.717  33.769  34.686  1.00  0.00     0.169 HD
HETATM   10  C23 UNL     1      49.232  34.078  36.667  1.00  0.00     0.135 A 
HETATM   11  N7  UNL     1      47.943  33.748  36.817  1.00  0.00    -0.336 N 
ATOM     12  H7  UNL     1      47.339  33.408  36.069  1.00  0.00     0.168 HD
ENDROOT
BRANCH   6  13
HETATM   13  N2  UNL     1      53.016  35.223  37.004  1.00  0.00    -0.373 N 
ATOM     14  H2  UNL     1      53.279  35.965  36.355  1.00  0.00     0.161 HD
BRANCH  13  15
HETATM   15  C7  UNL     1      54.060  34.747  37.826  1.00  0.00     0.123 C 
BRANCH  15  16
HETATM   16  C8  UNL     1      54.894  33.659  37.167  1.00  0.00     0.046 C 
BRANCH  16  17
HETATM   17  C9  UNL     1      54.138  32.356  37.125  1.00  0.00     0.177 C 
BRANCH  17  18
HETATM   18  O3  UNL     1      53.425  32.142  38.258  1.00  0.00    -0.349 OA
BRANCH  18  19
HETATM   19  C10 UNL     1      52.171  31.712  38.559  1.00  0.00     0.095 A 
HETATM   20  C11 UNL     1      51.261  31.159  37.691  1.00  0.00     0.075 A 
HETATM   21  C12 UNL     1      49.998  30.756  38.138  1.00  0.00     0.070 A 
HETATM   22  C14 UNL     1      49.606  30.887  39.445  1.00  0.00     0.039 A 
HETATM   23  C15 UNL     1      50.507  31.438  40.323  1.00  0.00     0.032 A 
HETATM   24  C16 UNL     1      51.747  31.838  39.897  1.00  0.00     0.079 A 
HETATM   25  N3  UNL     1      52.686  32.413  40.817  1.00  0.00    -0.100 NA
BRANCH  21  26
HETATM   26  O4  UNL     1      49.141  30.210  37.203  1.00  0.00    -0.356 OA
HETATM   27  C13 UNL     1      49.285  30.386  35.826  1.00  0.00     0.210 C 
ENDBRANCH  21  26
ENDBRANCH  18  19
ENDBRANCH  17  18
ENDBRANCH  16  17
ENDBRANCH  15  16
ENDBRANCH  13  15
ENDBRANCH   6  13
BRANCH   7  28
HETATM   28  N4  UNL     1      52.164  34.468  34.699  1.00  0.00    -0.373 N 
ATOM     29  H4  UNL     1      52.561  35.375  34.457  1.00  0.00     0.161 HD
BRANCH  28  30
HETATM   30  C18 UNL     1      52.581  33.373  33.895  1.00  0.00     0.123 C 
BRANCH  30  31
HETATM   31  C19 UNL     1      54.033  33.428  33.500  1.00  0.00     0.050 C 
BRANCH  31  32
HETATM   32  C20 UNL     1      54.330  34.817  32.987  1.00  0.00     0.273 C 
BRANCH  32  33
HETATM   33  N5  UNL     1      55.564  35.353  33.474  1.00  0.00     0.080 N 
HETATM   34  C21 UNL     1      55.401  36.328  34.535  1.00  0.00     0.309 C 
HETATM   35  C22 UNL     1      56.467  34.303  33.879  1.00  0.00     0.309 C 
ENDBRANCH  32  33
ENDBRANCH  31  32
ENDBRANCH  30  31
ENDBRANCH  28  30
ENDBRANCH   7  28
BRANCH   1  36
HETATM   36  C2  UNL     1      46.215  33.675  38.653  1.00  0.00     0.309 C 
HETATM   37  O2  UNL     1      45.790  32.521  38.817  1.00  0.00    -0.258 OA
BRANCH  36  38
HETATM   38  O1  UNL     1      45.425  34.745  38.997  1.00  0.00    -0.321 OA
HETATM   39  C1  UNL     1      45.351  35.945  38.239  1.00  0.00     0.213 C 
ENDBRANCH  36  38
ENDBRANCH   1  36
TORSDOF 14
ENDMDL
MODEL 3
REMARK VINA RESULT: -6.169240857      2.254      4.263
REMARK  14 active torsions:
REMARK  status: ('A' for Active; 'I' for Inactive)
REMARK    1  A    between atoms: O1_2  and  C2_3 
REMARK    2  A    between atoms: C2_3  and  C3_5 
REMARK    3  A    between atoms: C6_10  and  N2_11 
REMARK    4  A    between atoms: N2_11  and  C7_13 
REMARK    5  A    between atoms: C7_13  and  C8_14 
REMARK    6  A    between atoms: C8_14  and  C9_15 
REMARK    7  A    between atoms: C9_15  and  O3_16 
REMARK    8  A    between atoms: O3_16  and  C10_17 
REMARK    9  A    between atoms: C12_19  and  O4_20 
REMARK   10  A    between atoms: C17_26  and  N4_27 
REMARK   11  A    between atoms: N4_27  and  C18_29 
REMARK   12  A    between atoms: C18_29  and  C19_30 
REMARK   13  A    between atoms: C19_30  and  C20_31 
REMARK   14  A    between atoms: C20_31  and  N5_32 
ROOT
HETATM    1  C3  UNL     1      54.833  32.966  35.897  1.00  0.00     0.112 A 
HETATM    2  C4  UNL     1      53.801  32.271  35.305  1.00  0.00     0.069 A 
HETATM    3  C5  UNL     1      52.934  31.918  36.320  1.00  0.00     0.080 A 
HETATM    4  N1  UNL     1      51.757  31.232  36.342  1.00  0.00    -0.337 N 
ATOM      5  H1  UNL     1      51.367  30.871  35.472  1.00  0.00     0.168 HD
HETATM    6  C6  UNL     1      51.105  31.027  37.499  1.00  0.00     0.146 A 
HETATM    7  C17 UNL     1      51.611  31.509  38.715  1.00  0.00     0.147 A 
HETATM    8  N6  UNL     1      52.769  32.181  38.674  1.00  0.00    -0.324 N 
ATOM      9  H6  UNL     1      53.162  32.543  39.543  1.00  0.00     0.169 HD
HETATM   10  C23 UNL     1      53.442  32.396  37.505  1.00  0.00     0.135 A 
HETATM   11  N7  UNL     1      54.589  33.024  37.215  1.00  0.00    -0.336 N 
ATOM     12  H7  UNL     1      55.191  33.480  37.900  1.00  0.00     0.168 HD
ENDROOT
BRANCH   6  13
HETATM   13  N2  UNL     1      50.014  30.399  37.577  1.00  0.00    -0.373 N 
ATOM     14  H2  UNL     1      49.346  30.774  38.252  1.00  0.00     0.161 HD
BRANCH  13  15
HETATM   15  C7  UNL     1      49.578  29.257  36.872  1.00  0.00     0.123 C 
BRANCH  15  16
HETATM   16  C8  UNL     1      48.548  29.570  35.798  1.00  0.00     0.046 C 
BRANCH  16  17
HETATM   17  C9  UNL     1      47.232  29.967  36.419  1.00  0.00     0.177 C 
BRANCH  17  18
HETATM   18  O3  UNL     1      47.296  31.182  37.017  1.00  0.00    -0.349 OA
BRANCH  18  19
HETATM   19  C10 UNL     1      46.914  32.448  36.703  1.00  0.00     0.095 A 
HETATM   20  C11 UNL     1      47.338  33.194  35.630  1.00  0.00     0.075 A 
HETATM   21  C12 UNL     1      46.859  34.492  35.425  1.00  0.00     0.070 A 
HETATM   22  C14 UNL     1      45.953  35.082  36.269  1.00  0.00     0.039 A 
HETATM   23  C15 UNL     1      45.521  34.346  37.345  1.00  0.00     0.032 A 
HETATM   24  C16 UNL     1      45.984  33.073  37.557  1.00  0.00     0.079 A 
HETATM   25  N3  UNL     1      45.529  32.308  38.682  1.00  0.00    -0.100 NA
BRANCH  21  26
HETATM   26  O4  UNL     1      47.336  35.175  34.324  1.00  0.00    -0.356 OA
HETATM   27  C13 UNL     1      48.329  36.154  34.391  1.00  0.00     0.210 C 
ENDBRANCH  21  26
ENDBRANCH  18  19
ENDBRANCH  17  18
ENDBRANCH  16  17
ENDBRANCH  15  16
ENDBRANCH  13  15
ENDBRANCH   6  13
BRANCH   7  28
HETATM   28  N4  UNL     1      50.958  31.295  39.794  1.00  0.00    -0.373 N 
ATOM     29  H4  UNL     1      50.851  30.317  40.065  1.00  0.00     0.161 HD
BRANCH  28  30
HETATM   30  C18 UNL     1      50.362  32.248  40.663  1.00  0.00     0.123 C 
BRANCH  30  31
HETATM   31  C19 UNL     1      49.275  33.065  40.015  1.00  0.00     0.050 C 
BRANCH  31  32
HETATM   32  C20 UNL     1      49.886  34.354  39.521  1.00  0.00     0.273 C 
BRANCH  32  33
HETATM   33  N5  UNL     1      49.426  34.742  38.222  1.00  0.00     0.080 N 
HETATM   34  C21 UNL     1      48.748  36.024  38.200  1.00  0.00     0.309 C 
HETATM   35  C22 UNL     1      50.499  34.715  37.258  1.00  0.00     0.309 C 
ENDBRANCH  32  33
ENDBRANCH  31  32
ENDBRANCH  30  31
ENDBRANCH  28  30
ENDBRANCH   7  28
BRANCH   1  36
HETATM   36  C2  UNL     1      55.996  33.540  35.187  1.00  0.00     0.309 C 
HETATM   37  O2  UNL     1      56.933  34.070  35.806  1.00  0.00    -0.258 OA
BRANCH  36  38
HETATM   38  O1  UNL     1      56.035  33.483  33.815  1.00  0.00    -0.321 OA
HETATM   39  C1  UNL     1      57.199  33.758  33.048  1.00  0.00     0.213 C 
ENDBRANCH  36  38
ENDBRANCH   1  36
TORSDOF 14
ENDMDL
MODEL 4
REMARK VINA RESULT: -6.166526004      2.756      7.084
REMARK  14 active torsions:
REMARK  status: ('A' for Active; 'I' for Inactive)
REMARK    1  A    between atoms: O1_2  and  C2_3 
REMARK    2  A    between atoms: C2_3  and  C3_5 
REMARK    3  A    between atoms: C6_10  and  N2_11 
REMARK    4  A    between atoms: N2_11  and  C7_13 
REMARK    5  A    between atoms: C7_13  and  C8_14 
REMARK    6  A    between atoms: C8_14  and  C9_15 
REMARK    7  A    between atoms: C9_15  and  O3_16 
REMARK    8  A    between atoms: O3_16  and  C10_17 
REMARK    9  A    between atoms: C12_19  and  O4_20 
REMARK   10  A    between atoms: C17_26  and  N4_27 
REMARK   11  A    between atoms: N4_27  and  C18_29 
REMARK   12  A    between atoms: C18_29  and  C19_30 
REMARK   13  A    between atoms: C19_30  and  C20_31 
REMARK   14  A    between atoms: C20_31  and  N5_32 
ROOT
HETATM    1  C3  UNL     1      50.474  31.331  38.725  1.00  0.00     0.112 A 
HETATM    2  C4  UNL     1      49.971  32.392  38.002  1.00  0.00     0.069 A 
HETATM    3  C5  UNL     1      51.022  33.265  37.805  1.00  0.00     0.080 A 
HETATM    4  N1  UNL     1      51.128  34.465  37.169  1.00  0.00    -0.337 N 
ATOM      5  H1  UNL     1      50.307  34.873  36.721  1.00  0.00     0.168 HD
HETATM    6  C6  UNL     1      52.302  35.117  37.127  1.00  0.00     0.146 A 
HETATM    7  C17 UNL     1      53.451  34.586  37.732  1.00  0.00     0.147 A 
HETATM    8  N6  UNL     1      53.328  33.405  38.352  1.00  0.00    -0.324 N 
ATOM      9  H6  UNL     1      54.147  32.995  38.801  1.00  0.00     0.169 HD
HETATM   10  C23 UNL     1      52.141  32.733  38.402  1.00  0.00     0.135 A 
HETATM   11  N7  UNL     1      51.776  31.566  38.948  1.00  0.00    -0.336 N 
ATOM     12  H7  UNL     1      52.400  30.944  39.462  1.00  0.00     0.168 HD
ENDROOT
BRANCH   6  13
HETATM   13  N2  UNL     1      52.456  36.230  36.554  1.00  0.00    -0.373 N 
ATOM     14  H2  UNL     1      53.181  36.826  36.954  1.00  0.00     0.161 HD
BRANCH  13  15
HETATM   15  C7  UNL     1      51.777  36.774  35.443  1.00  0.00     0.123 C 
BRANCH  15  16
HETATM   16  C8  UNL     1      50.529  37.554  35.825  1.00  0.00     0.046 C 
BRANCH  16  17
HETATM   17  C9  UNL     1      49.323  37.030  35.086  1.00  0.00     0.177 C 
BRANCH  17  18
HETATM   18  O3  UNL     1      49.024  35.755  35.437  1.00  0.00    -0.349 OA
BRANCH  18  19
HETATM   19  C10 UNL     1      48.001  35.132  36.079  1.00  0.00     0.095 A 
HETATM   20  C11 UNL     1      47.322  35.588  37.182  1.00  0.00     0.075 A 
HETATM   21  C12 UNL     1      46.281  34.840  37.744  1.00  0.00     0.070 A 
HETATM   22  C14 UNL     1      45.887  33.630  37.232  1.00  0.00     0.039 A 
HETATM   23  C15 UNL     1      46.558  33.163  36.128  1.00  0.00     0.032 A 
HETATM   24  C16 UNL     1      47.580  33.887  35.569  1.00  0.00     0.079 A 
HETATM   25  N3  UNL     1      48.278  33.395  34.417  1.00  0.00    -0.100 NA
BRANCH  21  26
HETATM   26  O4  UNL     1      45.650  35.368  38.852  1.00  0.00    -0.356 OA
HETATM   27  C13 UNL     1      44.865  36.522  38.820  1.00  0.00     0.210 C 
ENDBRANCH  21  26
ENDBRANCH  18  19
ENDBRANCH  17  18
ENDBRANCH  16  17
ENDBRANCH  15  16
ENDBRANCH  13  15
ENDBRANCH   6  13
BRANCH   7  28
HETATM   28  N4  UNL     1      54.551  35.237  37.666  1.00  0.00    -0.373 N 
ATOM     29  H4  UNL     1      54.539  36.175  38.067  1.00  0.00     0.161 HD
BRANCH  28  30
HETATM   30  C18 UNL     1      55.786  34.818  37.104  1.00  0.00     0.123 C 
BRANCH  30  31
HETATM   31  C19 UNL     1      55.715  33.487  36.403  1.00  0.00     0.050 C 
BRANCH  31  32
HETATM   32  C20 UNL     1      55.841  33.729  34.918  1.00  0.00     0.273 C 
BRANCH  32  33
HETATM   33  N5  UNL     1      54.728  33.240  34.163  1.00  0.00     0.080 N 
HETATM   34  C21 UNL     1      53.886  32.312  34.895  1.00  0.00     0.309 C 
HETATM   35  C22 UNL     1      53.944  34.324  33.625  1.00  0.00     0.309 C 
ENDBRANCH  32  33
ENDBRANCH  31  32
ENDBRANCH  30  31
ENDBRANCH  28  30
ENDBRANCH   7  28
BRANCH   1  36
HETATM   36  C2  UNL     1      49.699  30.152  39.166  1.00  0.00     0.309 C 
HETATM   37  O2  UNL     1      49.764  29.736  40.333  1.00  0.00    -0.258 OA
BRANCH  36  38
HETATM   38  O1  UNL     1      48.893  29.506  38.259  1.00  0.00    -0.321 OA
HETATM   39  C1  UNL     1      49.340  29.062  36.985  1.00  0.00     0.213 C 
ENDBRANCH  36  38
ENDBRANCH   1  36
TORSDOF 14
ENDMDL
MODEL 5
REMARK VINA RESULT: -6.135303892      2.427      6.333
REMARK  14 active torsions:
REMARK  status: ('A' for Active; 'I' for Inactive)
REMARK    1  A    between atoms: O1_2  and  C2_3 
REMARK    2  A    between atoms: C2_3  and  C3_5 
REMARK    3  A    between atoms: C6_10  and  N2_11 
REMARK    4  A    between atoms: N2_11  and  C7_13 
REMARK    5  A    between atoms: C7_13  and  C8_14 
REMARK    6  A    between atoms: C8_14  and  C9_15 
REMARK    7  A    between atoms: C9_15  and  O3_16 
REMARK    8  A    between atoms: O3_16  and  C10_17 
REMARK    9  A    between atoms: C12_19  and  O4_20 
REMARK   10  A    between atoms: C17_26  and  N4_27 
REMARK   11  A    between atoms: N4_27  and  C18_29 
REMARK   12  A    between atoms: C18_29  and  C19_30 
REMARK   13  A    between atoms: C19_30  and  C20_31 
REMARK   14  A    between atoms: C20_31  and  N5_32 
ROOT
HETATM    1  C3  UNL     1      47.820  33.916  37.959  1.00  0.00     0.112 A 
HETATM    2  C4  UNL     1      48.910  34.249  38.733  1.00  0.00     0.069 A 
HETATM    3  C5  UNL     1      49.954  34.479  37.859  1.00  0.00     0.080 A 
HETATM    4  N1  UNL     1      51.256  34.837  38.039  1.00  0.00    -0.337 N 
ATOM      5  H1  UNL     1      51.614  34.984  38.983  1.00  0.00     0.168 HD
HETATM    6  C6  UNL     1      52.075  34.998  36.985  1.00  0.00     0.146 A 
HETATM    7  C17 UNL     1      51.618  34.805  35.673  1.00  0.00     0.147 A 
HETATM    8  N6  UNL     1      50.335  34.453  35.515  1.00  0.00    -0.324 N 
ATOM      9  H6  UNL     1      49.975  34.306  34.572  1.00  0.00     0.169 HD
HETATM   10  C23 UNL     1      49.493  34.287  36.578  1.00  0.00     0.135 A 
HETATM   11  N7  UNL     1      48.201  33.948  36.673  1.00  0.00    -0.336 N 
ATOM     12  H7  UNL     1      47.594  33.742  35.880  1.00  0.00     0.168 HD
ENDROOT
BRANCH   6  13
HETATM   13  N2  UNL     1      53.287  35.326  37.094  1.00  0.00    -0.373 N 
ATOM     14  H2  UNL     1      53.563  36.148  36.556  1.00  0.00     0.161 HD
BRANCH  13  15
HETATM   15  C7  UNL     1      54.320  34.728  37.847  1.00  0.00     0.123 C 
BRANCH  15  16
HETATM   16  C8  UNL     1      55.065  33.641  37.089  1.00  0.00     0.046 C 
BRANCH  16  17
HETATM   17  C9  UNL     1      54.227  32.392  36.981  1.00  0.00     0.177 C 
BRANCH  17  18
HETATM   18  O3  UNL     1      53.398  32.241  38.044  1.00  0.00    -0.349 OA
BRANCH  18  19
HETATM   19  C10 UNL     1      52.189  31.661  38.267  1.00  0.00     0.095 A 
HETATM   20  C11 UNL     1      51.359  31.102  37.326  1.00  0.00     0.075 A 
HETATM   21  C12 UNL     1      50.135  30.534  37.697  1.00  0.00     0.070 A 
HETATM   22  C14 UNL     1      49.704  30.504  38.999  1.00  0.00     0.039 A 
HETATM   23  C15 UNL     1      50.526  31.059  39.949  1.00  0.00     0.032 A 
HETATM   24  C16 UNL     1      51.728  31.619  39.598  1.00  0.00     0.079 A 
HETATM   25  N3  UNL     1      52.583  32.197  40.593  1.00  0.00    -0.100 NA
BRANCH  21  26
HETATM   26  O4  UNL     1      49.358  29.994  36.692  1.00  0.00    -0.356 OA
HETATM   27  C13 UNL     1      48.018  30.327  36.486  1.00  0.00     0.210 C 
ENDBRANCH  21  26
ENDBRANCH  18  19
ENDBRANCH  17  18
ENDBRANCH  16  17
ENDBRANCH  15  16
ENDBRANCH  13  15
ENDBRANCH   6  13
BRANCH   7  28
HETATM   28  N4  UNL     1      52.429  34.971  34.697  1.00  0.00    -0.373 N 
ATOM     29  H4  UNL     1      52.755  35.925  34.546  1.00  0.00     0.161 HD
BRANCH  28  30
HETATM   30  C18 UNL     1      52.932  33.993  33.798  1.00  0.00     0.123 C 
BRANCH  30  31
HETATM   31  C19 UNL     1      52.368  34.101  32.405  1.00  0.00     0.050 C 
BRANCH  31  32
HETATM   32  C20 UNL     1      51.256  33.089  32.267  1.00  0.00     0.273 C 
BRANCH  32  33
HETATM   33  N5  UNL     1      51.549  31.832  32.884  1.00  0.00     0.080 N 
HETATM   34  C21 UNL     1      50.439  31.275  33.635  1.00  0.00     0.309 C 
HETATM   35  C22 UNL     1      52.043  30.879  31.920  1.00  0.00     0.309 C 
ENDBRANCH  32  33
ENDBRANCH  31  32
ENDBRANCH  30  31
ENDBRANCH  28  30
ENDBRANCH   7  28
BRANCH   1  36
HETATM   36  C2  UNL     1      46.473  33.587  38.474  1.00  0.00     0.309 C 
HETATM   37  O2  UNL     1      46.068  32.415  38.519  1.00  0.00    -0.258 OA
BRANCH  36  38
HETATM   38  O1  UNL     1      45.658  34.605  38.908  1.00  0.00    -0.321 OA
HETATM   39  C1  UNL     1      45.449  35.809  38.185  1.00  0.00     0.213 C 
ENDBRANCH  36  38
ENDBRANCH   1  36
TORSDOF 14
ENDMDL
