MODEL 1
REMARK VINA RESULT: -6.780729878      0.000      0.000
REMARK  24 active torsions:
REMARK  status: ('A' for Active; 'I' for Inactive)
REMARK    1  A    between atoms: C2_2  and  C4_4 
REMARK    2  A    between atoms: C4_4  and  C5_5 
REMARK    3  A    between atoms: C5_5  and  N1_6 
REMARK    4  A    between atoms: C5_5  and  C19_30 
REMARK    5  A    between atoms: N1_6  and  C6_8 
REMARK    6  A    between atoms: C6_8  and  O1_9 
REMARK    7  A    between atoms: C6_8  and  C7_11 
REMARK    8  A    between atoms: C7_11  and  N2_12 
REMARK    9  A    between atoms: C7_11  and  C16_27 
REMARK       I    between atoms: N2_12  and  C8_13 
REMARK   10  A    between atoms: C8_13  and  C9_15 
REMARK   11  A    between atoms: C9_15  and  C10_16 
REMARK   12  A    between atoms: C9_15  and  N4_21 
REMARK   13  A    between atoms: C10_16  and  C11_17 
REMARK   14  A    between atoms: C11_17  and  C12_18 
REMARK   15  A    between atoms: N4_21  and  C13_24 
REMARK   16  A    between atoms: C19_30  and  O4_31 
REMARK   17  A    between atoms: N5_33  and  C20_35 
REMARK   18  A    between atoms: C20_35  and  O5_36 
REMARK   19  A    between atoms: C20_35  and  C21_38 
REMARK   20  A    between atoms: C21_38  and  C22_39 
REMARK   21  A    between atoms: C21_38  and  N6_51 
REMARK   22  A    between atoms: C22_39  and  C23_40 
REMARK   23  A    between atoms: C23_40  and  C24_41 
REMARK   24  A    between atoms: N6_51  and  C32_53 
ROOT
HETATM    1  C5  UNL     1      32.036  27.338  19.314  1.00  0.00     0.158 C 
ENDROOT
BRANCH   1   2
HETATM    2  C4  UNL     1      31.557  26.033  19.019  1.00  0.00     0.037 C 
BRANCH   2   3
HETATM    3  C2  UNL     1      30.358  25.825  18.149  1.00  0.00    -0.020 C 
HETATM    4  C1  UNL     1      29.245  25.088  18.837  1.00  0.00     0.009 C 
HETATM    5  C3  UNL     1      30.671  25.070  16.859  1.00  0.00     0.009 C 
ENDBRANCH   2   3
ENDBRANCH   1   2
BRANCH   1   6
HETATM    6  N1  UNL     1      30.997  28.377  19.547  1.00  0.00    -0.360 N 
ATOM      7  H1  UNL     1      30.091  28.258  19.094  1.00  0.00     0.162 HD
BRANCH   6   8
HETATM    8  C6  UNL     1      31.185  29.486  20.334  1.00  0.00     0.149 C 
BRANCH   8   9
HETATM    9  O1  UNL     1      32.015  29.326  21.321  1.00  0.00    -0.347 OA
ATOM     10  H1  UNL     1      31.611  29.127  22.157  1.00  0.00     0.219 HD
ENDBRANCH   8   9
BRANCH   8  11
HETATM   11  C7  UNL     1      30.607  30.822  20.221  1.00  0.00     0.244 C 
BRANCH  11  12
HETATM   12  N2  UNL     1      29.199  30.769  20.299  1.00  0.00    -0.399 NA
HETATM   13  C8  UNL     1      27.864  30.721  20.374  1.00  0.00     0.318 C 
HETATM   14  O2  UNL     1      27.178  31.164  21.368  1.00  0.00    -0.255 OA
BRANCH  13  15
HETATM   15  C9  UNL     1      26.941  30.150  19.322  1.00  0.00     0.292 C 
BRANCH  15  16
HETATM   16  C10 UNL     1      25.606  29.753  19.826  1.00  0.00     0.053 C 
BRANCH  16  17
HETATM   17  C11 UNL     1      25.345  28.261  19.896  1.00  0.00     0.102 C 
BRANCH  17  18
HETATM   18  C12 UNL     1      25.157  27.925  21.345  1.00  0.00     0.231 C 
HETATM   19  N3  UNL     1      25.138  26.584  21.784  1.00  0.00    -0.062 NA
HETATM   20  O3  UNL     1      25.003  28.807  22.223  1.00  0.00    -0.277 OA
ENDBRANCH  17  18
ENDBRANCH  16  17
ENDBRANCH  15  16
BRANCH  15  21
HETATM   21  N4  UNL     1      27.635  29.026  18.713  1.00  0.00    -0.057 N 
ATOM     22  H42 UNL     1      28.599  28.959  19.040  1.00  0.00     0.278 HD
ATOM     23  H41 UNL     1      27.288  28.134  19.069  1.00  0.00     0.278 HD
BRANCH  21  24
HETATM   24  C13 UNL     1      27.566  29.086  17.266  1.00  0.00     0.187 A 
HETATM   25  C14 UNL     1      28.686  28.478  16.515  1.00  0.00     0.035 A 
HETATM   26  C15 UNL     1      27.392  27.770  16.561  1.00  0.00     0.035 A 
ENDBRANCH  21  24
ENDBRANCH  15  21
ENDBRANCH  13  15
ENDBRANCH  11  12
BRANCH  11  27
HETATM   27  C16 UNL     1      31.090  31.704  19.072  1.00  0.00     0.021 C 
HETATM   28  C17 UNL     1      30.581  31.313  17.727  1.00  0.00     0.013 C 
HETATM   29  C18 UNL     1      32.610  31.585  18.958  1.00  0.00     0.013 C 
ENDBRANCH  11  27
ENDBRANCH   8  11
ENDBRANCH   6   8
ENDBRANCH   1   6
BRANCH   1  30
HETATM   30  C19 UNL     1      33.009  27.978  18.407  1.00  0.00     0.140 C 
HETATM   31  N5  UNL     1      34.286  28.387  18.282  1.00  0.00    -0.321 N 
ATOM     32  H5  UNL     1      34.343  28.984  17.456  1.00  0.00     0.169 HD
BRANCH  30  33
HETATM   33  O4  UNL     1      32.322  28.239  17.227  1.00  0.00    -0.348 OA
ATOM     34  H4  UNL     1      32.793  28.944  16.799  1.00  0.00     0.219 HD
ENDBRANCH  30  33
BRANCH  31  35
HETATM   35  C20 UNL     1      35.546  28.313  18.837  1.00  0.00     0.140 C 
BRANCH  35  36
HETATM   36  O5  UNL     1      36.376  29.225  18.384  1.00  0.00    -0.348 OA
ATOM     37  H5  UNL     1      37.255  28.898  18.231  1.00  0.00     0.219 HD
ENDBRANCH  35  36
BRANCH  35  38
HETATM   38  C21 UNL     1      36.209  27.457  19.806  1.00  0.00     0.152 C 
BRANCH  38  39
HETATM   39  C22 UNL     1      36.205  25.973  19.409  1.00  0.00     0.036 C 
BRANCH  39  40
HETATM   40  C23 UNL     1      37.373  25.238  20.006  1.00  0.00     0.037 C 
BRANCH  40  41
HETATM   41  C24 UNL     1      36.989  24.397  21.223  1.00  0.00     0.160 C 
HETATM   42  C25 UNL     1      37.556  23.012  21.053  1.00  0.00     0.038 C 
HETATM   43  C26 UNL     1      36.713  22.186  20.112  1.00  0.00     0.044 C 
HETATM   44  C27 UNL     1      35.263  22.186  20.573  1.00  0.00     0.096 C 
HETATM   45  C28 UNL     1      34.862  20.810  21.093  1.00  0.00     0.041 C 
HETATM   46  C31 UNL     1      34.341  22.395  19.415  1.00  0.00     0.041 C 
HETATM   47  O6  UNL     1      35.110  23.158  21.524  1.00  0.00    -0.229 OA
HETATM   48  C29 UNL     1      34.562  20.045  19.816  1.00  0.00     0.003 C 
HETATM   49  C30 UNL     1      34.077  21.040  18.800  1.00  0.00     0.003 C 
HETATM   50  O7  UNL     1      35.584  24.328  21.332  1.00  0.00    -0.235 OA
ENDBRANCH  40  41
ENDBRANCH  39  40
ENDBRANCH  38  39
BRANCH  38  51
HETATM   51  N6  UNL     1      35.445  27.454  21.061  1.00  0.00    -0.403 N 
ATOM     52  H6  UNL     1      34.514  27.037  21.104  1.00  0.00     0.154 HD
BRANCH  51  53
HETATM   53  C32 UNL     1      36.016  28.027  22.185  1.00  0.00     0.015 C 
HETATM   54  C33 UNL     1      37.517  28.146  22.203  1.00  0.00     0.037 C 
HETATM   55  C34 UNL     1      35.623  27.169  23.397  1.00  0.00     0.037 C 
HETATM   56  C35 UNL     1      35.485  29.423  22.502  1.00  0.00     0.037 C 
ENDBRANCH  51  53
ENDBRANCH  38  51
ENDBRANCH  35  38
ENDBRANCH  31  35
ENDBRANCH   1  30
TORSDOF 24
ENDMDL
MODEL 2
REMARK VINA RESULT: -6.719758099      3.318      8.520
REMARK  24 active torsions:
REMARK  status: ('A' for Active; 'I' for Inactive)
REMARK    1  A    between atoms: C2_2  and  C4_4 
REMARK    2  A    between atoms: C4_4  and  C5_5 
REMARK    3  A    between atoms: C5_5  and  N1_6 
REMARK    4  A    between atoms: C5_5  and  C19_30 
REMARK    5  A    between atoms: N1_6  and  C6_8 
REMARK    6  A    between atoms: C6_8  and  O1_9 
REMARK    7  A    between atoms: C6_8  and  C7_11 
REMARK    8  A    between atoms: C7_11  and  N2_12 
REMARK    9  A    between atoms: C7_11  and  C16_27 
REMARK       I    between atoms: N2_12  and  C8_13 
REMARK   10  A    between atoms: C8_13  and  C9_15 
REMARK   11  A    between atoms: C9_15  and  C10_16 
REMARK   12  A    between atoms: C9_15  and  N4_21 
REMARK   13  A    between atoms: C10_16  and  C11_17 
REMARK   14  A    between atoms: C11_17  and  C12_18 
REMARK   15  A    between atoms: N4_21  and  C13_24 
REMARK   16  A    between atoms: C19_30  and  O4_31 
REMARK   17  A    between atoms: N5_33  and  C20_35 
REMARK   18  A    between atoms: C20_35  and  O5_36 
REMARK   19  A    between atoms: C20_35  and  C21_38 
REMARK   20  A    between atoms: C21_38  and  C22_39 
REMARK   21  A    between atoms: C21_38  and  N6_51 
REMARK   22  A    between atoms: C22_39  and  C23_40 
REMARK   23  A    between atoms: C23_40  and  C24_41 
REMARK   24  A    between atoms: N6_51  and  C32_53 
ROOT
HETATM    1  C5  UNL     1      32.492  26.974  16.966  1.00  0.00     0.158 C 
ENDROOT
BRANCH   1   2
HETATM    2  C4  UNL     1      31.678  26.595  18.068  1.00  0.00     0.037 C 
BRANCH   2   3
HETATM    3  C2  UNL     1      31.765  25.224  18.661  1.00  0.00    -0.020 C 
HETATM    4  C1  UNL     1      32.712  25.137  19.823  1.00  0.00     0.009 C 
HETATM    5  C3  UNL     1      32.185  24.156  17.654  1.00  0.00     0.009 C 
ENDBRANCH   2   3
ENDBRANCH   1   2
BRANCH   1   6
HETATM    6  N1  UNL     1      33.919  27.256  17.276  1.00  0.00    -0.360 N 
ATOM      7  H1  UNL     1      34.133  28.072  17.850  1.00  0.00     0.162 HD
BRANCH   6   8
HETATM    8  C6  UNL     1      34.966  26.484  16.836  1.00  0.00     0.149 C 
BRANCH   8   9
HETATM    9  O1  UNL     1      34.799  25.946  15.664  1.00  0.00    -0.347 OA
ATOM     10  H1  UNL     1      35.598  25.687  15.223  1.00  0.00     0.219 HD
ENDBRANCH   8   9
BRANCH   8  11
HETATM   11  C7  UNL     1      36.244  26.190  17.476  1.00  0.00     0.244 C 
BRANCH  11  12
HETATM   12  N2  UNL     1      36.335  24.823  17.815  1.00  0.00    -0.399 NA
HETATM   13  C8  UNL     1      36.423  23.527  18.136  1.00  0.00     0.318 C 
HETATM   14  O2  UNL     1      37.452  22.791  17.904  1.00  0.00    -0.255 OA
BRANCH  13  15
HETATM   15  C9  UNL     1      35.348  22.712  18.818  1.00  0.00     0.292 C 
BRANCH  15  16
HETATM   16  C10 UNL     1      35.551  22.520  20.273  1.00  0.00     0.053 C 
BRANCH  16  17
HETATM   17  C11 UNL     1      35.869  23.773  21.065  1.00  0.00     0.102 C 
BRANCH  17  18
HETATM   18  C12 UNL     1      37.090  23.468  21.881  1.00  0.00     0.231 C 
HETATM   19  N3  UNL     1      38.355  23.329  21.271  1.00  0.00    -0.062 NA
HETATM   20  O3  UNL     1      37.043  23.318  23.125  1.00  0.00    -0.277 OA
ENDBRANCH  17  18
ENDBRANCH  16  17
ENDBRANCH  15  16
BRANCH  15  21
HETATM   21  N4  UNL     1      35.275  21.437  18.119  1.00  0.00    -0.057 N 
ATOM     22  H42 UNL     1      34.746  21.516  17.251  1.00  0.00     0.278 HD
ATOM     23  H41 UNL     1      36.179  21.173  17.728  1.00  0.00     0.278 HD
BRANCH  21  24
HETATM   24  C13 UNL     1      34.740  20.397  18.977  1.00  0.00     0.187 A 
HETATM   25  C14 UNL     1      33.368  19.928  18.686  1.00  0.00     0.035 A 
HETATM   26  C15 UNL     1      34.508  19.064  18.325  1.00  0.00     0.035 A 
ENDBRANCH  21  24
ENDBRANCH  15  21
ENDBRANCH  13  15
ENDBRANCH  11  12
BRANCH  11  27
HETATM   27  C16 UNL     1      36.686  27.100  18.620  1.00  0.00     0.021 C 
HETATM   28  C17 UNL     1      37.205  28.431  18.195  1.00  0.00     0.013 C 
HETATM   29  C18 UNL     1      37.858  26.445  19.353  1.00  0.00     0.013 C 
ENDBRANCH  11  27
ENDBRANCH   8  11
ENDBRANCH   6   8
ENDBRANCH   1   6
BRANCH   1  30
HETATM   30  C19 UNL     1      32.069  28.092  16.101  1.00  0.00     0.140 C 
HETATM   31  N5  UNL     1      31.472  29.298  16.082  1.00  0.00    -0.321 N 
ATOM     32  H5  UNL     1      31.256  29.525  15.110  1.00  0.00     0.169 HD
BRANCH  30  33
HETATM   33  O4  UNL     1      32.458  27.749  14.811  1.00  0.00    -0.348 OA
ATOM     34  H4  UNL     1      32.259  28.502  14.267  1.00  0.00     0.219 HD
ENDBRANCH  30  33
BRANCH  31  35
HETATM   35  C20 UNL     1      31.038  30.347  16.865  1.00  0.00     0.140 C 
BRANCH  35  36
HETATM   36  O5  UNL     1      29.836  30.170  17.365  1.00  0.00    -0.348 OA
ATOM     37  H5  UNL     1      29.806  29.532  18.068  1.00  0.00     0.219 HD
ENDBRANCH  35  36
BRANCH  35  38
HETATM   38  C21 UNL     1      31.577  31.631  17.279  1.00  0.00     0.152 C 
BRANCH  38  39
HETATM   39  C22 UNL     1      31.414  31.905  18.782  1.00  0.00     0.036 C 
BRANCH  39  40
HETATM   40  C23 UNL     1      32.522  31.278  19.581  1.00  0.00     0.037 C 
BRANCH  40  41
HETATM   41  C24 UNL     1      32.470  29.751  19.578  1.00  0.00     0.160 C 
HETATM   42  C25 UNL     1      32.045  29.279  20.944  1.00  0.00     0.038 C 
HETATM   43  C26 UNL     1      33.195  29.321  21.922  1.00  0.00     0.044 C 
HETATM   44  C27 UNL     1      34.383  28.550  21.364  1.00  0.00     0.096 C 
HETATM   45  C28 UNL     1      34.614  27.268  22.157  1.00  0.00     0.041 C 
HETATM   46  C31 UNL     1      35.652  29.313  21.572  1.00  0.00     0.041 C 
HETATM   47  O6  UNL     1      34.154  28.299  20.038  1.00  0.00    -0.229 OA
HETATM   48  C29 UNL     1      35.376  27.762  23.374  1.00  0.00     0.003 C 
HETATM   49  C30 UNL     1      36.162  28.971  22.953  1.00  0.00     0.003 C 
HETATM   50  O7  UNL     1      33.744  29.230  19.267  1.00  0.00    -0.235 OA
ENDBRANCH  40  41
ENDBRANCH  39  40
ENDBRANCH  38  39
BRANCH  38  51
HETATM   51  N6  UNL     1      30.789  32.713  16.671  1.00  0.00    -0.403 N 
ATOM     52  H6  UNL     1      29.922  33.033  17.103  1.00  0.00     0.154 HD
BRANCH  51  53
HETATM   53  C32 UNL     1      31.250  33.290  15.500  1.00  0.00     0.015 C 
HETATM   54  C33 UNL     1      31.181  34.792  15.406  1.00  0.00     0.037 C 
HETATM   55  C34 UNL     1      30.407  32.732  14.343  1.00  0.00     0.037 C 
HETATM   56  C35 UNL     1      32.690  32.918  15.153  1.00  0.00     0.037 C 
ENDBRANCH  51  53
ENDBRANCH  38  51
ENDBRANCH  35  38
ENDBRANCH  31  35
ENDBRANCH   1  30
TORSDOF 24
ENDMDL
MODEL 3
REMARK VINA RESULT: -6.690245460      2.762     10.743
REMARK  24 active torsions:
REMARK  status: ('A' for Active; 'I' for Inactive)
REMARK    1  A    between atoms: C2_2  and  C4_4 
REMARK    2  A    between atoms: C4_4  and  C5_5 
REMARK    3  A    between atoms: C5_5  and  N1_6 
REMARK    4  A    between atoms: C5_5  and  C19_30 
REMARK    5  A    between atoms: N1_6  and  C6_8 
REMARK    6  A    between atoms: C6_8  and  O1_9 
REMARK    7  A    between atoms: C6_8  and  C7_11 
REMARK    8  A    between atoms: C7_11  and  N2_12 
REMARK    9  A    between atoms: C7_11  and  C16_27 
REMARK       I    between atoms: N2_12  and  C8_13 
REMARK   10  A    between atoms: C8_13  and  C9_15 
REMARK   11  A    between atoms: C9_15  and  C10_16 
REMARK   12  A    between atoms: C9_15  and  N4_21 
REMARK   13  A    between atoms: C10_16  and  C11_17 
REMARK   14  A    between atoms: C11_17  and  C12_18 
REMARK   15  A    between atoms: N4_21  and  C13_24 
REMARK   16  A    between atoms: C19_30  and  O4_31 
REMARK   17  A    between atoms: N5_33  and  C20_35 
REMARK   18  A    between atoms: C20_35  and  O5_36 
REMARK   19  A    between atoms: C20_35  and  C21_38 
REMARK   20  A    between atoms: C21_38  and  C22_39 
REMARK   21  A    between atoms: C21_38  and  N6_51 
REMARK   22  A    between atoms: C22_39  and  C23_40 
REMARK   23  A    between atoms: C23_40  and  C24_41 
REMARK   24  A    between atoms: N6_51  and  C32_53 
ROOT
HETATM    1  C5  UNL     1      32.098  29.079  19.471  1.00  0.00     0.158 C 
ENDROOT
BRANCH   1   2
HETATM    2  C4  UNL     1      32.065  29.329  18.072  1.00  0.00     0.037 C 
BRANCH   2   3
HETATM    3  C2  UNL     1      32.966  30.344  17.444  1.00  0.00    -0.020 C 
HETATM    4  C1  UNL     1      34.225  30.587  18.225  1.00  0.00     0.009 C 
HETATM    5  C3  UNL     1      32.295  31.699  17.233  1.00  0.00     0.009 C 
ENDBRANCH   2   3
ENDBRANCH   1   2
BRANCH   1   6
HETATM    6  N1  UNL     1      31.998  27.653  19.880  1.00  0.00    -0.360 N 
ATOM      7  H1  UNL     1      31.110  27.173  19.732  1.00  0.00     0.162 HD
BRANCH   6   8
HETATM    8  C6  UNL     1      33.028  26.944  20.448  1.00  0.00     0.149 C 
BRANCH   8   9
HETATM    9  O1  UNL     1      33.347  27.308  21.654  1.00  0.00    -0.347 OA
ATOM     10  H1  UNL     1      33.276  26.626  22.312  1.00  0.00     0.219 HD
ENDBRANCH   8   9
BRANCH   8  11
HETATM   11  C7  UNL     1      33.808  25.834  19.908  1.00  0.00     0.244 C 
BRANCH  11  12
HETATM   12  N2  UNL     1      35.044  25.714  20.579  1.00  0.00    -0.399 NA
HETATM   13  C8  UNL     1      36.215  25.599  21.214  1.00  0.00     0.318 C 
HETATM   14  O2  UNL     1      36.450  24.751  22.153  1.00  0.00    -0.255 OA
BRANCH  13  15
HETATM   15  C9  UNL     1      37.450  26.429  20.946  1.00  0.00     0.292 C 
BRANCH  15  16
HETATM   16  C10 UNL     1      37.303  27.870  21.257  1.00  0.00     0.053 C 
BRANCH  16  17
HETATM   17  C11 UNL     1      37.464  28.249  22.716  1.00  0.00     0.102 C 
BRANCH  17  18
HETATM   18  C12 UNL     1      36.101  28.626  23.215  1.00  0.00     0.231 C 
HETATM   19  N3  UNL     1      35.314  27.706  23.942  1.00  0.00    -0.062 NA
HETATM   20  O3  UNL     1      35.601  29.756  23.009  1.00  0.00    -0.277 OA
ENDBRANCH  17  18
ENDBRANCH  16  17
ENDBRANCH  15  16
BRANCH  15  21
HETATM   21  N4  UNL     1      37.807  26.220  19.551  1.00  0.00    -0.057 N 
ATOM     22  H42 UNL     1      38.347  25.364  19.426  1.00  0.00     0.278 HD
ATOM     23  H41 UNL     1      36.992  25.974  18.989  1.00  0.00     0.278 HD
BRANCH  21  24
HETATM   24  C13 UNL     1      38.501  27.372  19.008  1.00  0.00     0.187 A 
HETATM   25  C14 UNL     1      39.711  27.107  18.199  1.00  0.00     0.035 A 
HETATM   26  C15 UNL     1      38.469  27.512  17.512  1.00  0.00     0.035 A 
ENDBRANCH  21  24
ENDBRANCH  15  21
ENDBRANCH  13  15
ENDBRANCH  11  12
BRANCH  11  27
HETATM   27  C16 UNL     1      33.962  25.753  18.391  1.00  0.00     0.021 C 
HETATM   28  C17 UNL     1      34.674  24.540  17.899  1.00  0.00     0.013 C 
HETATM   29  C18 UNL     1      34.823  26.925  17.916  1.00  0.00     0.013 C 
ENDBRANCH  11  27
ENDBRANCH   8  11
ENDBRANCH   6   8
ENDBRANCH   1   6
BRANCH   1  30
HETATM   30  C19 UNL     1      31.160  29.791  20.359  1.00  0.00     0.140 C 
HETATM   31  N5  UNL     1      29.993  30.462  20.411  1.00  0.00    -0.321 N 
ATOM     32  H5  UNL     1      29.943  30.934  21.314  1.00  0.00     0.169 HD
BRANCH  30  33
HETATM   33  O4  UNL     1      31.707  29.719  21.635  1.00  0.00    -0.348 OA
ATOM     34  H4  UNL     1      32.045  30.586  21.826  1.00  0.00     0.219 HD
ENDBRANCH  30  33
BRANCH  31  35
HETATM   35  C20 UNL     1      28.839  30.759  19.716  1.00  0.00     0.140 C 
BRANCH  35  36
HETATM   36  O5  UNL     1      29.056  31.204  18.500  1.00  0.00    -0.348 OA
ATOM     37  H5  UNL     1      28.524  30.778  17.837  1.00  0.00     0.219 HD
ENDBRANCH  35  36
BRANCH  35  38
HETATM   38  C21 UNL     1      27.414  30.716  19.997  1.00  0.00     0.152 C 
BRANCH  38  39
HETATM   39  C22 UNL     1      27.075  31.003  21.467  1.00  0.00     0.036 C 
BRANCH  39  40
HETATM   40  C23 UNL     1      25.595  31.168  21.671  1.00  0.00     0.037 C 
BRANCH  40  41
HETATM   41  C24 UNL     1      25.014  30.162  22.664  1.00  0.00     0.160 C 
HETATM   42  C25 UNL     1      23.798  29.521  22.049  1.00  0.00     0.038 C 
HETATM   43  C26 UNL     1      22.595  30.428  22.136  1.00  0.00     0.044 C 
HETATM   44  C27 UNL     1      22.375  30.867  23.577  1.00  0.00     0.096 C 
HETATM   45  C28 UNL     1      21.115  30.228  24.149  1.00  0.00     0.041 C 
HETATM   46  C31 UNL     1      22.075  32.330  23.642  1.00  0.00     0.041 C 
HETATM   47  O6  UNL     1      23.489  30.545  24.303  1.00  0.00    -0.229 OA
HETATM   48  C29 UNL     1      20.012  31.118  23.603  1.00  0.00     0.003 C 
HETATM   49  C30 UNL     1      20.588  32.496  23.435  1.00  0.00     0.003 C 
HETATM   50  O7  UNL     1      24.653  30.823  23.857  1.00  0.00    -0.235 OA
ENDBRANCH  40  41
ENDBRANCH  39  40
ENDBRANCH  38  39
BRANCH  38  51
HETATM   51  N6  UNL     1      26.920  29.343  19.819  1.00  0.00    -0.403 N 
ATOM     52  H6  UNL     1      27.115  28.624  20.516  1.00  0.00     0.154 HD
BRANCH  51  53
HETATM   53  C32 UNL     1      26.184  29.046  18.685  1.00  0.00     0.015 C 
HETATM   54  C33 UNL     1      25.404  30.174  18.062  1.00  0.00     0.037 C 
HETATM   55  C34 UNL     1      25.168  27.956  19.060  1.00  0.00     0.037 C 
HETATM   56  C35 UNL     1      27.011  28.439  17.553  1.00  0.00     0.037 C 
ENDBRANCH  51  53
ENDBRANCH  38  51
ENDBRANCH  35  38
ENDBRANCH  31  35
ENDBRANCH   1  30
TORSDOF 24
ENDMDL
MODEL 4
REMARK VINA RESULT: -6.656904728      3.314      8.186
REMARK  24 active torsions:
REMARK  status: ('A' for Active; 'I' for Inactive)
REMARK    1  A    between atoms: C2_2  and  C4_4 
REMARK    2  A    between atoms: C4_4  and  C5_5 
REMARK    3  A    between atoms: C5_5  and  N1_6 
REMARK    4  A    between atoms: C5_5  and  C19_30 
REMARK    5  A    between atoms: N1_6  and  C6_8 
REMARK    6  A    between atoms: C6_8  and  O1_9 
REMARK    7  A    between atoms: C6_8  and  C7_11 
REMARK    8  A    between atoms: C7_11  and  N2_12 
REMARK    9  A    between atoms: C7_11  and  C16_27 
REMARK       I    between atoms: N2_12  and  C8_13 
REMARK   10  A    between atoms: C8_13  and  C9_15 
REMARK   11  A    between atoms: C9_15  and  C10_16 
REMARK   12  A    between atoms: C9_15  and  N4_21 
REMARK   13  A    between atoms: C10_16  and  C11_17 
REMARK   14  A    between atoms: C11_17  and  C12_18 
REMARK   15  A    between atoms: N4_21  and  C13_24 
REMARK   16  A    between atoms: C19_30  and  O4_31 
REMARK   17  A    between atoms: N5_33  and  C20_35 
REMARK   18  A    between atoms: C20_35  and  O5_36 
REMARK   19  A    between atoms: C20_35  and  C21_38 
REMARK   20  A    between atoms: C21_38  and  C22_39 
REMARK   21  A    between atoms: C21_38  and  N6_51 
REMARK   22  A    between atoms: C22_39  and  C23_40 
REMARK   23  A    between atoms: C23_40  and  C24_41 
REMARK   24  A    between atoms: N6_51  and  C32_53 
ROOT
HETATM    1  C5  UNL     1      33.697  27.491  20.263  1.00  0.00     0.158 C 
ENDROOT
BRANCH   1   2
HETATM    2  C4  UNL     1      33.073  28.589  19.612  1.00  0.00     0.037 C 
BRANCH   2   3
HETATM    3  C2  UNL     1      32.810  29.873  20.333  1.00  0.00    -0.020 C 
HETATM    4  C1  UNL     1      31.436  29.946  20.935  1.00  0.00     0.009 C 
HETATM    5  C3  UNL     1      32.985  31.107  19.452  1.00  0.00     0.009 C 
ENDBRANCH   2   3
ENDBRANCH   1   2
BRANCH   1   6
HETATM    6  N1  UNL     1      35.105  27.214  19.871  1.00  0.00    -0.360 N 
ATOM      7  H1  UNL     1      35.267  26.640  19.044  1.00  0.00     0.162 HD
BRANCH   6   8
HETATM    8  C6  UNL     1      36.198  27.683  20.556  1.00  0.00     0.149 C 
BRANCH   8   9
HETATM    9  O1  UNL     1      36.767  28.729  20.034  1.00  0.00    -0.347 OA
ATOM     10  H1  UNL     1      37.230  29.285  20.650  1.00  0.00     0.219 HD
ENDBRANCH   8   9
BRANCH   8  11
HETATM   11  C7  UNL     1      36.810  27.196  21.788  1.00  0.00     0.244 C 
BRANCH  11  12
HETATM   12  N2  UNL     1      36.891  25.787  21.788  1.00  0.00    -0.399 NA
HETATM   13  C8  UNL     1      36.967  24.451  21.789  1.00  0.00     0.318 C 
HETATM   14  O2  UNL     1      37.111  23.735  22.848  1.00  0.00    -0.255 OA
BRANCH  13  15
HETATM   15  C9  UNL     1      36.895  23.562  20.569  1.00  0.00     0.292 C 
BRANCH  15  16
HETATM   16  C10 UNL     1      37.145  24.257  19.285  1.00  0.00     0.053 C 
BRANCH  16  17
HETATM   17  C11 UNL     1      38.580  24.678  19.032  1.00  0.00     0.102 C 
BRANCH  17  18
HETATM   18  C12 UNL     1      38.543  26.132  18.667  1.00  0.00     0.231 C 
HETATM   19  N3  UNL     1      37.629  26.617  17.708  1.00  0.00    -0.062 NA
HETATM   20  O3  UNL     1      39.317  26.972  19.185  1.00  0.00    -0.277 OA
ENDBRANCH  17  18
ENDBRANCH  16  17
ENDBRANCH  15  16
BRANCH  15  21
HETATM   21  N4  UNL     1      35.586  22.928  20.583  1.00  0.00    -0.057 N 
ATOM     22  H42 UNL     1      34.996  23.302  21.326  1.00  0.00     0.278 HD
ATOM     23  H41 UNL     1      35.024  23.211  19.780  1.00  0.00     0.278 HD
BRANCH  21  24
HETATM   24  C13 UNL     1      35.701  21.484  20.671  1.00  0.00     0.187 A 
HETATM   25  C14 UNL     1      34.899  20.809  21.713  1.00  0.00     0.035 A 
HETATM   26  C15 UNL     1      34.470  20.704  20.305  1.00  0.00     0.035 A 
ENDBRANCH  21  24
ENDBRANCH  15  21
ENDBRANCH  13  15
ENDBRANCH  11  12
BRANCH  11  27
HETATM   27  C16 UNL     1      36.271  27.744  23.108  1.00  0.00     0.021 C 
HETATM   28  C17 UNL     1      35.036  27.073  23.605  1.00  0.00     0.013 C 
HETATM   29  C18 UNL     1      35.863  29.204  22.910  1.00  0.00     0.013 C 
ENDBRANCH  11  27
ENDBRANCH   8  11
ENDBRANCH   6   8
ENDBRANCH   1   6
BRANCH   1  30
HETATM   30  C19 UNL     1      33.039  26.171  20.255  1.00  0.00     0.140 C 
HETATM   31  N5  UNL     1      31.989  25.472  19.782  1.00  0.00    -0.321 N 
ATOM     32  H5  UNL     1      31.933  24.599  20.307  1.00  0.00     0.169 HD
BRANCH  30  33
HETATM   33  O4  UNL     1      33.834  25.338  21.034  1.00  0.00    -0.348 OA
ATOM     34  H4  UNL     1      34.512  25.006  20.458  1.00  0.00     0.219 HD
ENDBRANCH  30  33
BRANCH  31  35
HETATM   35  C20 UNL     1      30.961  25.478  18.863  1.00  0.00     0.140 C 
BRANCH  35  36
HETATM   36  O5  UNL     1      29.767  25.430  19.408  1.00  0.00    -0.348 OA
ATOM     37  H5  UNL     1      29.437  26.279  19.680  1.00  0.00     0.219 HD
ENDBRANCH  35  36
BRANCH  35  38
HETATM   38  C21 UNL     1      30.859  25.513  17.414  1.00  0.00     0.152 C 
BRANCH  38  39
HETATM   39  C22 UNL     1      30.252  24.234  16.816  1.00  0.00     0.036 C 
BRANCH  39  40
HETATM   40  C23 UNL     1      31.098  23.028  17.115  1.00  0.00     0.037 C 
BRANCH  40  41
HETATM   41  C24 UNL     1      31.486  22.247  15.861  1.00  0.00     0.160 C 
HETATM   42  C25 UNL     1      31.874  20.848  16.263  1.00  0.00     0.038 C 
HETATM   43  C26 UNL     1      33.275  20.807  16.823  1.00  0.00     0.044 C 
HETATM   44  C27 UNL     1      34.250  21.439  15.840  1.00  0.00     0.096 C 
HETATM   45  C28 UNL     1      35.166  20.383  15.233  1.00  0.00     0.041 C 
HETATM   46  C31 UNL     1      35.201  22.347  16.551  1.00  0.00     0.041 C 
HETATM   47  O6  UNL     1      33.531  22.106  14.885  1.00  0.00    -0.229 OA
HETATM   48  C29 UNL     1      36.218  20.194  16.311  1.00  0.00     0.003 C 
HETATM   49  C30 UNL     1      36.351  21.500  17.043  1.00  0.00     0.003 C 
HETATM   50  O7  UNL     1      32.573  22.879  15.221  1.00  0.00    -0.235 OA
ENDBRANCH  40  41
ENDBRANCH  39  40
ENDBRANCH  38  39
BRANCH  38  51
HETATM   51  N6  UNL     1      32.206  25.529  16.827  1.00  0.00    -0.403 N 
ATOM     52  H6  UNL     1      32.866  24.773  17.014  1.00  0.00     0.154 HD
BRANCH  51  53
HETATM   53  C32 UNL     1      32.562  26.593  16.015  1.00  0.00     0.015 C 
HETATM   54  C33 UNL     1      32.543  26.352  14.528  1.00  0.00     0.037 C 
HETATM   55  C34 UNL     1      33.996  27.001  16.382  1.00  0.00     0.037 C 
HETATM   56  C35 UNL     1      31.724  27.849  16.242  1.00  0.00     0.037 C 
ENDBRANCH  51  53
ENDBRANCH  38  51
ENDBRANCH  35  38
ENDBRANCH  31  35
ENDBRANCH   1  30
TORSDOF 24
ENDMDL
MODEL 5
REMARK VINA RESULT: -6.609051420      3.430      8.271
REMARK  24 active torsions:
REMARK  status: ('A' for Active; 'I' for Inactive)
REMARK    1  A    between atoms: C2_2  and  C4_4 
REMARK    2  A    between atoms: C4_4  and  C5_5 
REMARK    3  A    between atoms: C5_5  and  N1_6 
REMARK    4  A    between atoms: C5_5  and  C19_30 
REMARK    5  A    between atoms: N1_6  and  C6_8 
REMARK    6  A    between atoms: C6_8  and  O1_9 
REMARK    7  A    between atoms: C6_8  and  C7_11 
REMARK    8  A    between atoms: C7_11  and  N2_12 
REMARK    9  A    between atoms: C7_11  and  C16_27 
REMARK       I    between atoms: N2_12  and  C8_13 
REMARK   10  A    between atoms: C8_13  and  C9_15 
REMARK   11  A    between atoms: C9_15  and  C10_16 
REMARK   12  A    between atoms: C9_15  and  N4_21 
REMARK   13  A    between atoms: C10_16  and  C11_17 
REMARK   14  A    between atoms: C11_17  and  C12_18 
REMARK   15  A    between atoms: N4_21  and  C13_24 
REMARK   16  A    between atoms: C19_30  and  O4_31 
REMARK   17  A    between atoms: N5_33  and  C20_35 
REMARK   18  A    between atoms: C20_35  and  O5_36 
REMARK   19  A    between atoms: C20_35  and  C21_38 
REMARK   20  A    between atoms: C21_38  and  C22_39 
REMARK   21  A    between atoms: C21_38  and  N6_51 
REMARK   22  A    between atoms: C22_39  and  C23_40 
REMARK   23  A    between atoms: C23_40  and  C24_41 
REMARK   24  A    between atoms: N6_51  and  C32_53 
ROOT
HETATM    1  C5  UNL     1      35.871  28.900  20.784  1.00  0.00     0.158 C 
ENDROOT
BRANCH   1   2
HETATM    2  C4  UNL     1      35.722  29.207  22.163  1.00  0.00     0.037 C 
BRANCH   2   3
HETATM    3  C2  UNL     1      34.741  28.471  23.020  1.00  0.00    -0.020 C 
HETATM    4  C1  UNL     1      34.973  26.988  23.051  1.00  0.00     0.009 C 
HETATM    5  C3  UNL     1      33.289  28.694  22.604  1.00  0.00     0.009 C 
ENDBRANCH   2   3
ENDBRANCH   1   2
BRANCH   1   6
HETATM    6  N1  UNL     1      37.163  28.277  20.391  1.00  0.00    -0.360 N 
ATOM      7  H1  UNL     1      38.017  28.816  20.529  1.00  0.00     0.162 HD
BRANCH   6   8
HETATM    8  C6  UNL     1      37.275  27.018  19.852  1.00  0.00     0.149 C 
BRANCH   8   9
HETATM    9  O1  UNL     1      37.665  26.097  20.682  1.00  0.00    -0.347 OA
ATOM     10  H1  UNL     1      38.568  25.821  20.581  1.00  0.00     0.219 HD
ENDBRANCH   8   9
BRANCH   8  11
HETATM   11  C7  UNL     1      37.009  26.555  18.494  1.00  0.00     0.244 C 
BRANCH  11  12
HETATM   12  N2  UNL     1      36.808  25.158  18.468  1.00  0.00    -0.399 NA
HETATM   13  C8  UNL     1      36.619  23.835  18.443  1.00  0.00     0.318 C 
HETATM   14  O2  UNL     1      37.427  22.998  17.893  1.00  0.00    -0.255 OA
BRANCH  13  15
HETATM   15  C9  UNL     1      35.445  23.098  19.047  1.00  0.00     0.292 C 
BRANCH  15  16
HETATM   16  C10 UNL     1      35.278  23.298  20.506  1.00  0.00     0.053 C 
BRANCH  16  17
HETATM   17  C11 UNL     1      36.006  22.308  21.394  1.00  0.00     0.102 C 
BRANCH  17  18
HETATM   18  C12 UNL     1      37.108  23.067  22.070  1.00  0.00     0.231 C 
HETATM   19  N3  UNL     1      38.339  23.294  21.419  1.00  0.00    -0.062 NA
HETATM   20  O3  UNL     1      36.993  23.522  23.233  1.00  0.00    -0.277 OA
ENDBRANCH  17  18
ENDBRANCH  16  17
ENDBRANCH  15  16
BRANCH  15  21
HETATM   21  N4  UNL     1      35.614  21.690  18.720  1.00  0.00    -0.057 N 
ATOM     22  H42 UNL     1      36.253  21.562  17.935  1.00  0.00     0.278 HD
ATOM     23  H41 UNL     1      36.148  21.200  19.438  1.00  0.00     0.278 HD
BRANCH  21  24
HETATM   24  C13 UNL     1      34.336  21.050  18.476  1.00  0.00     0.187 A 
HETATM   25  C14 UNL     1      34.366  19.685  17.909  1.00  0.00     0.035 A 
HETATM   26  C15 UNL     1      34.025  19.856  19.334  1.00  0.00     0.035 A 
ENDBRANCH  21  24
ENDBRANCH  15  21
ENDBRANCH  13  15
ENDBRANCH  11  12
BRANCH  11  27
HETATM   27  C16 UNL     1      37.956  27.024  17.391  1.00  0.00     0.021 C 
HETATM   28  C17 UNL     1      39.334  27.355  17.850  1.00  0.00     0.013 C 
HETATM   29  C18 UNL     1      37.422  28.329  16.799  1.00  0.00     0.013 C 
ENDBRANCH  11  27
ENDBRANCH   8  11
ENDBRANCH   6   8
ENDBRANCH   1   6
BRANCH   1  30
HETATM   30  C19 UNL     1      35.640  29.952  19.775  1.00  0.00     0.140 C 
HETATM   31  N5  UNL     1      34.700  30.599  19.061  1.00  0.00    -0.321 N 
ATOM     32  H5  UNL     1      35.172  31.123  18.324  1.00  0.00     0.169 HD
BRANCH  30  33
HETATM   33  O4  UNL     1      36.893  30.471  19.467  1.00  0.00    -0.348 OA
ATOM     34  H4  UNL     1      37.359  29.781  19.011  1.00  0.00     0.219 HD
ENDBRANCH  30  33
BRANCH  31  35
HETATM   35  C20 UNL     1      33.345  30.828  18.940  1.00  0.00     0.140 C 
BRANCH  35  36
HETATM   36  O5  UNL     1      32.837  31.522  19.932  1.00  0.00    -0.348 OA
ATOM     37  H5  UNL     1      32.151  32.123  19.665  1.00  0.00     0.219 HD
ENDBRANCH  35  36
BRANCH  35  38
HETATM   38  C21 UNL     1      32.312  30.480  17.979  1.00  0.00     0.152 C 
BRANCH  38  39
HETATM   39  C22 UNL     1      31.250  29.526  18.547  1.00  0.00     0.036 C 
BRANCH  39  40
HETATM   40  C23 UNL     1      31.869  28.261  19.073  1.00  0.00     0.037 C 
BRANCH  40  41
HETATM   41  C24 UNL     1      31.208  26.999  18.519  1.00  0.00     0.160 C 
HETATM   42  C25 UNL     1      32.032  25.805  18.921  1.00  0.00     0.038 C 
HETATM   43  C26 UNL     1      33.249  25.655  18.041  1.00  0.00     0.044 C 
HETATM   44  C27 UNL     1      32.835  25.630  16.577  1.00  0.00     0.096 C 
HETATM   45  C28 UNL     1      33.043  24.242  15.981  1.00  0.00     0.041 C 
HETATM   46  C31 UNL     1      33.740  26.492  15.757  1.00  0.00     0.041 C 
HETATM   47  O6  UNL     1      31.531  26.036  16.488  1.00  0.00    -0.229 OA
HETATM   48  C29 UNL     1      34.529  24.235  15.666  1.00  0.00     0.003 C 
HETATM   49  C30 UNL     1      34.932  25.651  15.366  1.00  0.00     0.003 C 
HETATM   50  O7  UNL     1      31.135  27.077  17.112  1.00  0.00    -0.235 OA
ENDBRANCH  40  41
ENDBRANCH  39  40
ENDBRANCH  38  39
BRANCH  38  51
HETATM   51  N6  UNL     1      32.901  29.689  16.890  1.00  0.00    -0.403 N 
ATOM     52  H6  UNL     1      33.257  28.748  17.062  1.00  0.00     0.154 HD
BRANCH  51  53
HETATM   53  C32 UNL     1      32.964  30.248  15.624  1.00  0.00     0.015 C 
HETATM   54  C33 UNL     1      32.177  29.564  14.537  1.00  0.00     0.037 C 
HETATM   55  C34 UNL     1      34.434  30.239  15.182  1.00  0.00     0.037 C 
HETATM   56  C35 UNL     1      32.547  31.716  15.577  1.00  0.00     0.037 C 
ENDBRANCH  51  53
ENDBRANCH  38  51
ENDBRANCH  35  38
ENDBRANCH  31  35
ENDBRANCH   1  30
TORSDOF 24
ENDMDL
