MODEL 1
REMARK VINA RESULT: -5.745528531      0.000      0.000
REMARK  21 active torsions:
REMARK  status: ('A' for Active; 'I' for Inactive)
REMARK       I    between atoms: N1_2  and  C2_4 
REMARK    1  A    between atoms: C2_4  and  C3_6 
REMARK    2  A    between atoms: C3_6  and  C4_7 
REMARK    3  A    between atoms: C3_6  and  N2_14 
REMARK    4  A    between atoms: C4_7  and  C5_8 
REMARK       I    between atoms: N2_14  and  C11_16 
REMARK    5  A    between atoms: C11_16  and  C12_18 
REMARK    6  A    between atoms: C12_18  and  N3_20 
REMARK       I    between atoms: N3_20  and  C14_22 
REMARK    7  A    between atoms: C14_22  and  C15_24 
REMARK    8  A    between atoms: C15_24  and  C16_26 
REMARK    9  A    between atoms: C16_26  and  C17_27 
REMARK   10  A    between atoms: C17_27  and  O5_28 
REMARK   11  A    between atoms: C17_27  and  C18_30 
REMARK   12  A    between atoms: C18_30  and  C19_31 
REMARK   13  A    between atoms: C18_30  and  N4_35 
REMARK   14  A    between atoms: C19_31  and  C20_32 
REMARK   15  A    between atoms: N4_35  and  C23_37 
REMARK   16  A    between atoms: C23_37  and  C24_38 
REMARK   17  A    between atoms: C23_37  and  C26_41 
REMARK   18  A    between atoms: C26_41  and  C27_42 
REMARK   19  A    between atoms: C26_41  and  N5_46 
REMARK       I    between atoms: N5_46  and  C31_48 
REMARK   20  A    between atoms: C31_48  and  O8_50 
REMARK   21  A    between atoms: O8_50  and  C32_51 
ROOT
HETATM    1  C17 UNL     1      36.284  29.087  22.623  1.00  0.00     0.171 C 
ENDROOT
BRANCH   1   2
HETATM    2  C16 UNL     1      36.770  27.744  23.170  1.00  0.00     0.126 C 
BRANCH   2   3
HETATM    3  C15 UNL     1      35.816  26.647  22.914  1.00  0.00     0.219 C 
HETATM    4  O4  UNL     1      34.713  26.594  23.486  1.00  0.00    -0.287 OA
BRANCH   3   5
HETATM    5  C14 UNL     1      36.188  25.625  21.981  1.00  0.00     0.288 C 
HETATM    6  N3  UNL     1      35.206  24.793  21.379  1.00  0.00    -0.342 N 
ATOM      7  H3  UNL     1      34.220  24.917  21.609  1.00  0.00     0.163 HD
HETATM    8  O3  UNL     1      37.387  25.441  21.669  1.00  0.00    -0.264 OA
BRANCH   6   9
HETATM    9  C12 UNL     1      35.615  23.753  20.421  1.00  0.00     0.173 C 
HETATM   10  C13 UNL     1      34.826  22.509  20.787  1.00  0.00     0.042 C 
BRANCH   9  11
HETATM   11  C11 UNL     1      35.159  24.260  19.073  1.00  0.00     0.240 C 
HETATM   12  N2  UNL     1      33.931  23.802  18.561  1.00  0.00    -0.346 N 
ATOM     13  H2  UNL     1      33.367  23.142  19.096  1.00  0.00     0.163 HD
HETATM   14  O2  UNL     1      35.848  25.068  18.410  1.00  0.00    -0.271 OA
BRANCH  12  15
HETATM   15  C3  UNL     1      33.472  24.270  17.268  1.00  0.00     0.177 C 
BRANCH  15  16
HETATM   16  C2  UNL     1      33.923  23.204  16.285  1.00  0.00     0.240 C 
HETATM   17  N1  UNL     1      35.249  23.286  15.811  1.00  0.00    -0.364 N 
HETATM   18  C1  UNL     1      35.759  22.312  14.874  1.00  0.00     0.149 C 
ATOM     19  H1  UNL     1      35.855  24.040  16.134  1.00  0.00     0.161 HD
HETATM   20  O1  UNL     1      33.118  22.311  15.939  1.00  0.00    -0.271 OA
ENDBRANCH  15  16
BRANCH  15  21
HETATM   21  C4  UNL     1      31.982  24.342  17.299  1.00  0.00     0.039 C 
BRANCH  21  22
HETATM   22  C5  UNL     1      31.509  25.630  16.705  1.00  0.00    -0.012 C 
HETATM   23  C6  UNL     1      32.639  26.654  16.774  1.00  0.00     0.005 C 
HETATM   24  C7  UNL     1      32.183  27.953  16.098  1.00  0.00     0.000 C 
HETATM   25  C8  UNL     1      30.966  28.460  16.804  1.00  0.00     0.000 C 
HETATM   26  C9  UNL     1      30.477  27.590  17.917  1.00  0.00     0.000 C 
HETATM   27  C10 UNL     1      30.302  26.144  17.471  1.00  0.00     0.005 C 
ENDBRANCH  21  22
ENDBRANCH  15  21
ENDBRANCH  12  15
ENDBRANCH   9  11
ENDBRANCH   6   9
ENDBRANCH   3   5
ENDBRANCH   2   3
ENDBRANCH   1   2
BRANCH   1  28
HETATM   28  O5  UNL     1      35.286  29.528  23.479  1.00  0.00    -0.389 OA
ATOM     29  H5  UNL     1      34.463  29.421  23.017  1.00  0.00     0.210 HD
ENDBRANCH   1  28
BRANCH   1  30
HETATM   30  C18 UNL     1      35.876  28.979  21.193  1.00  0.00     0.016 C 
BRANCH  30  31
HETATM   31  C19 UNL     1      34.499  29.682  21.008  1.00  0.00     0.059 C 
BRANCH  31  32
HETATM   32  C20 UNL     1      33.298  28.883  21.040  1.00  0.00    -0.017 C 
HETATM   33  C21 UNL     1      31.972  29.476  20.750  1.00  0.00     0.010 C 
HETATM   34  C22 UNL     1      33.409  27.639  20.133  1.00  0.00     0.010 C 
ENDBRANCH  31  32
ENDBRANCH  30  31
BRANCH  30  35
HETATM   35  N4  UNL     1      36.645  29.136  20.101  1.00  0.00    -0.356 N 
ATOM     36  H4  UNL     1      37.003  30.088  20.017  1.00  0.00     0.166 HD
BRANCH  35  37
HETATM   37  C23 UNL     1      37.085  28.300  19.031  1.00  0.00     0.105 C 
BRANCH  37  38
HETATM   38  C24 UNL     1      38.401  27.761  19.236  1.00  0.00     0.174 C 
HETATM   39  C25 UNL     1      39.248  26.992  18.276  1.00  0.00     0.098 C 
HETATM   40  O6  UNL     1      38.979  27.923  20.299  1.00  0.00    -0.291 OA
ENDBRANCH  37  38
BRANCH  37  41
HETATM   41  C26 UNL     1      36.583  28.880  17.756  1.00  0.00     0.067 C 
BRANCH  41  42
HETATM   42  C27 UNL     1      35.978  30.142  17.521  1.00  0.00     0.034 C 
HETATM   43  C28 UNL     1      34.883  30.792  16.914  1.00  0.00    -0.085 C 
HETATM   44  C29 UNL     1      34.533  30.731  15.470  1.00  0.00     0.043 C 
HETATM   45  C30 UNL     1      33.609  30.995  17.714  1.00  0.00     0.043 C 
ENDBRANCH  41  42
BRANCH  41  46
HETATM   46  N5  UNL     1      35.937  27.796  16.953  1.00  0.00    -0.300 N 
HETATM   47  C31 UNL     1      36.492  27.251  15.787  1.00  0.00     0.366 C 
HETATM   48  O7  UNL     1      37.617  27.663  15.338  1.00  0.00    -0.238 OA
ATOM     49  H5  UNL     1      35.040  27.431  17.274  1.00  0.00     0.171 HD
BRANCH  47  50
HETATM   50  O8  UNL     1      35.901  26.264  15.043  1.00  0.00    -0.294 OA
BRANCH  50  51
HETATM   51  C32 UNL     1      35.334  26.339  13.793  1.00  0.00     0.061 C 
HETATM   52  C33 UNL     1      35.138  27.768  13.311  1.00  0.00     0.046 C 
HETATM   53  C34 UNL     1      36.308  25.690  12.799  1.00  0.00     0.046 C 
HETATM   54  C35 UNL     1      34.026  25.619  13.585  1.00  0.00     0.046 C 
ENDBRANCH  50  51
ENDBRANCH  47  50
ENDBRANCH  41  46
ENDBRANCH  37  41
ENDBRANCH  35  37
ENDBRANCH  30  35
ENDBRANCH   1  30
TORSDOF 21
ENDMDL
MODEL 2
REMARK VINA RESULT: -5.598045623      1.943      5.831
REMARK  21 active torsions:
REMARK  status: ('A' for Active; 'I' for Inactive)
REMARK       I    between atoms: N1_2  and  C2_4 
REMARK    1  A    between atoms: C2_4  and  C3_6 
REMARK    2  A    between atoms: C3_6  and  C4_7 
REMARK    3  A    between atoms: C3_6  and  N2_14 
REMARK    4  A    between atoms: C4_7  and  C5_8 
REMARK       I    between atoms: N2_14  and  C11_16 
REMARK    5  A    between atoms: C11_16  and  C12_18 
REMARK    6  A    between atoms: C12_18  and  N3_20 
REMARK       I    between atoms: N3_20  and  C14_22 
REMARK    7  A    between atoms: C14_22  and  C15_24 
REMARK    8  A    between atoms: C15_24  and  C16_26 
REMARK    9  A    between atoms: C16_26  and  C17_27 
REMARK   10  A    between atoms: C17_27  and  O5_28 
REMARK   11  A    between atoms: C17_27  and  C18_30 
REMARK   12  A    between atoms: C18_30  and  C19_31 
REMARK   13  A    between atoms: C18_30  and  N4_35 
REMARK   14  A    between atoms: C19_31  and  C20_32 
REMARK   15  A    between atoms: N4_35  and  C23_37 
REMARK   16  A    between atoms: C23_37  and  C24_38 
REMARK   17  A    between atoms: C23_37  and  C26_41 
REMARK   18  A    between atoms: C26_41  and  C27_42 
REMARK   19  A    between atoms: C26_41  and  N5_46 
REMARK       I    between atoms: N5_46  and  C31_48 
REMARK   20  A    between atoms: C31_48  and  O8_50 
REMARK   21  A    between atoms: O8_50  and  C32_51 
ROOT
HETATM    1  C17 UNL     1      36.923  23.090  18.998  1.00  0.00     0.171 C 
ENDROOT
BRANCH   1   2
HETATM    2  C16 UNL     1      36.572  24.369  19.758  1.00  0.00     0.126 C 
BRANCH   2   3
HETATM    3  C15 UNL     1      37.137  24.396  21.121  1.00  0.00     0.219 C 
HETATM    4  O4  UNL     1      37.933  23.525  21.514  1.00  0.00    -0.287 OA
BRANCH   3   5
HETATM    5  C14 UNL     1      36.748  25.459  21.999  1.00  0.00     0.288 C 
HETATM    6  N3  UNL     1      36.927  26.818  21.625  1.00  0.00    -0.342 N 
ATOM      7  H3  UNL     1      37.338  27.049  20.721  1.00  0.00     0.163 HD
HETATM    8  O3  UNL     1      36.237  25.219  23.117  1.00  0.00    -0.264 OA
BRANCH   6   9
HETATM    9  C12 UNL     1      36.516  27.891  22.545  1.00  0.00     0.173 C 
HETATM   10  C13 UNL     1      37.795  28.439  23.152  1.00  0.00     0.042 C 
BRANCH   9  11
HETATM   11  C11 UNL     1      35.886  28.943  21.664  1.00  0.00     0.240 C 
HETATM   12  N2  UNL     1      35.950  28.780  20.267  1.00  0.00    -0.346 N 
ATOM     13  H2  UNL     1      36.412  27.964  19.868  1.00  0.00     0.163 HD
HETATM   14  O2  UNL     1      35.318  29.948  22.148  1.00  0.00    -0.271 OA
BRANCH  12  15
HETATM   15  C3  UNL     1      35.355  29.777  19.399  1.00  0.00     0.177 C 
BRANCH  15  16
HETATM   16  C2  UNL     1      36.297  29.869  18.211  1.00  0.00     0.240 C 
HETATM   17  N1  UNL     1      35.915  30.717  17.151  1.00  0.00    -0.364 N 
HETATM   18  C1  UNL     1      36.754  30.861  15.984  1.00  0.00     0.149 C 
ATOM     19  H1  UNL     1      35.038  31.234  17.208  1.00  0.00     0.161 HD
HETATM   20  O1  UNL     1      37.356  29.202  18.218  1.00  0.00    -0.271 OA
ENDBRANCH  15  16
BRANCH  15  21
HETATM   21  C4  UNL     1      34.020  29.278  18.959  1.00  0.00     0.039 C 
BRANCH  21  22
HETATM   22  C5  UNL     1      32.928  30.092  19.575  1.00  0.00    -0.012 C 
HETATM   23  C6  UNL     1      31.612  29.328  19.457  1.00  0.00     0.005 C 
HETATM   24  C7  UNL     1      30.503  30.126  20.155  1.00  0.00     0.000 C 
HETATM   25  C8  UNL     1      30.396  31.468  19.503  1.00  0.00     0.000 C 
HETATM   26  C9  UNL     1      31.386  31.718  18.411  1.00  0.00     0.000 C 
HETATM   27  C10 UNL     1      32.812  31.429  18.863  1.00  0.00     0.005 C 
ENDBRANCH  21  22
ENDBRANCH  15  21
ENDBRANCH  12  15
ENDBRANCH   9  11
ENDBRANCH   6   9
ENDBRANCH   3   5
ENDBRANCH   2   3
ENDBRANCH   1   2
BRANCH   1  28
HETATM   28  O5  UNL     1      38.070  23.362  18.268  1.00  0.00    -0.389 OA
ATOM     29  H5  UNL     1      37.888  23.110  17.370  1.00  0.00     0.210 HD
ENDBRANCH   1  28
BRANCH   1  30
HETATM   30  C18 UNL     1      35.770  22.600  18.189  1.00  0.00     0.016 C 
BRANCH  30  31
HETATM   31  C19 UNL     1      34.662  22.083  19.154  1.00  0.00     0.059 C 
BRANCH  31  32
HETATM   32  C20 UNL     1      34.976  21.009  20.064  1.00  0.00    -0.017 C 
HETATM   33  C21 UNL     1      34.906  21.198  21.532  1.00  0.00     0.010 C 
HETATM   34  C22 UNL     1      34.149  19.739  19.765  1.00  0.00     0.010 C 
ENDBRANCH  31  32
ENDBRANCH  30  31
BRANCH  30  35
HETATM   35  N4  UNL     1      35.228  23.167  17.097  1.00  0.00    -0.356 N 
ATOM     36  H4  UNL     1      35.800  23.023  16.265  1.00  0.00     0.166 HD
BRANCH  35  37
HETATM   37  C23 UNL     1      34.049  23.920  16.815  1.00  0.00     0.105 C 
BRANCH  37  38
HETATM   38  C24 UNL     1      33.472  23.614  15.535  1.00  0.00     0.174 C 
HETATM   39  C25 UNL     1      33.945  22.631  14.516  1.00  0.00     0.098 C 
HETATM   40  O6  UNL     1      32.452  24.174  15.165  1.00  0.00    -0.291 OA
ENDBRANCH  37  38
BRANCH  37  41
HETATM   41  C26 UNL     1      34.233  25.290  17.368  1.00  0.00     0.067 C 
BRANCH  41  42
HETATM   42  C27 UNL     1      33.579  25.910  18.464  1.00  0.00     0.034 C 
HETATM   43  C28 UNL     1      32.621  25.720  19.482  1.00  0.00    -0.085 C 
HETATM   44  C29 UNL     1      31.195  25.352  19.271  1.00  0.00     0.043 C 
HETATM   45  C30 UNL     1      33.070  25.175  20.825  1.00  0.00     0.043 C 
ENDBRANCH  41  42
BRANCH  41  46
HETATM   46  N5  UNL     1      34.447  26.243  16.235  1.00  0.00    -0.300 N 
HETATM   47  C31 UNL     1      35.692  26.791  15.899  1.00  0.00     0.366 C 
HETATM   48  O7  UNL     1      36.744  26.491  16.563  1.00  0.00    -0.238 OA
ATOM     49  H5  UNL     1      33.638  26.509  15.673  1.00  0.00     0.171 HD
BRANCH  47  50
HETATM   50  O8  UNL     1      35.892  27.672  14.868  1.00  0.00    -0.294 OA
BRANCH  50  51
HETATM   51  C32 UNL     1      36.322  27.426  13.586  1.00  0.00     0.061 C 
HETATM   52  C33 UNL     1      35.640  28.304  12.549  1.00  0.00     0.046 C 
HETATM   53  C34 UNL     1      37.815  27.776  13.519  1.00  0.00     0.046 C 
HETATM   54  C35 UNL     1      36.232  26.005  13.090  1.00  0.00     0.046 C 
ENDBRANCH  50  51
ENDBRANCH  47  50
ENDBRANCH  41  46
ENDBRANCH  37  41
ENDBRANCH  35  37
ENDBRANCH  30  35
ENDBRANCH   1  30
TORSDOF 21
ENDMDL
MODEL 3
REMARK VINA RESULT: -5.441039846      5.225      8.123
REMARK  21 active torsions:
REMARK  status: ('A' for Active; 'I' for Inactive)
REMARK       I    between atoms: N1_2  and  C2_4 
REMARK    1  A    between atoms: C2_4  and  C3_6 
REMARK    2  A    between atoms: C3_6  and  C4_7 
REMARK    3  A    between atoms: C3_6  and  N2_14 
REMARK    4  A    between atoms: C4_7  and  C5_8 
REMARK       I    between atoms: N2_14  and  C11_16 
REMARK    5  A    between atoms: C11_16  and  C12_18 
REMARK    6  A    between atoms: C12_18  and  N3_20 
REMARK       I    between atoms: N3_20  and  C14_22 
REMARK    7  A    between atoms: C14_22  and  C15_24 
REMARK    8  A    between atoms: C15_24  and  C16_26 
REMARK    9  A    between atoms: C16_26  and  C17_27 
REMARK   10  A    between atoms: C17_27  and  O5_28 
REMARK   11  A    between atoms: C17_27  and  C18_30 
REMARK   12  A    between atoms: C18_30  and  C19_31 
REMARK   13  A    between atoms: C18_30  and  N4_35 
REMARK   14  A    between atoms: C19_31  and  C20_32 
REMARK   15  A    between atoms: N4_35  and  C23_37 
REMARK   16  A    between atoms: C23_37  and  C24_38 
REMARK   17  A    between atoms: C23_37  and  C26_41 
REMARK   18  A    between atoms: C26_41  and  C27_42 
REMARK   19  A    between atoms: C26_41  and  N5_46 
REMARK       I    between atoms: N5_46  and  C31_48 
REMARK   20  A    between atoms: C31_48  and  O8_50 
REMARK   21  A    between atoms: O8_50  and  C32_51 
ROOT
HETATM    1  C17 UNL     1      31.819  27.625  19.704  1.00  0.00     0.171 C 
ENDROOT
BRANCH   1   2
HETATM    2  C16 UNL     1      31.017  27.204  18.473  1.00  0.00     0.126 C 
BRANCH   2   3
HETATM    3  C15 UNL     1      30.201  25.997  18.710  1.00  0.00     0.219 C 
HETATM    4  O4  UNL     1      30.702  24.946  19.146  1.00  0.00    -0.287 OA
BRANCH   3   5
HETATM    5  C14 UNL     1      28.797  26.057  18.427  1.00  0.00     0.288 C 
HETATM    6  N3  UNL     1      27.848  25.484  19.315  1.00  0.00    -0.342 N 
ATOM      7  H3  UNL     1      28.160  25.021  20.168  1.00  0.00     0.163 HD
HETATM    8  O3  UNL     1      28.371  26.618  17.391  1.00  0.00    -0.264 OA
BRANCH   6   9
HETATM    9  C12 UNL     1      26.412  25.562  19.001  1.00  0.00     0.173 C 
HETATM   10  C13 UNL     1      25.873  24.150  19.135  1.00  0.00     0.042 C 
BRANCH   9  11
HETATM   11  C11 UNL     1      25.820  26.432  20.085  1.00  0.00     0.240 C 
HETATM   12  N2  UNL     1      25.709  27.816  19.855  1.00  0.00    -0.346 N 
ATOM     13  H2  UNL     1      26.022  28.214  18.969  1.00  0.00     0.163 HD
HETATM   14  O2  UNL     1      25.435  25.950  21.174  1.00  0.00    -0.271 OA
BRANCH  12  15
HETATM   15  C3  UNL     1      25.147  28.673  20.880  1.00  0.00     0.177 C 
BRANCH  15  16
HETATM   16  C2  UNL     1      26.170  29.779  21.064  1.00  0.00     0.240 C 
HETATM   17  N1  UNL     1      27.035  30.045  19.982  1.00  0.00    -0.364 N 
HETATM   18  C1  UNL     1      28.037  31.080  20.075  1.00  0.00     0.149 C 
ATOM     19  H1  UNL     1      26.951  29.499  19.124  1.00  0.00     0.161 HD
HETATM   20  O1  UNL     1      26.208  30.403  22.149  1.00  0.00    -0.271 OA
ENDBRANCH  15  16
BRANCH  15  21
HETATM   21  C4  UNL     1      23.866  29.238  20.366  1.00  0.00     0.039 C 
BRANCH  21  22
HETATM   22  C5  UNL     1      22.834  29.261  21.449  1.00  0.00    -0.012 C 
HETATM   23  C6  UNL     1      22.663  30.695  21.942  1.00  0.00     0.005 C 
HETATM   24  C7  UNL     1      21.553  30.735  22.999  1.00  0.00     0.000 C 
HETATM   25  C8  UNL     1      21.931  29.829  24.127  1.00  0.00     0.000 C 
HETATM   26  C9  UNL     1      23.220  29.095  23.938  1.00  0.00     0.000 C 
HETATM   27  C10 UNL     1      23.269  28.370  22.600  1.00  0.00     0.005 C 
ENDBRANCH  21  22
ENDBRANCH  15  21
ENDBRANCH  12  15
ENDBRANCH   9  11
ENDBRANCH   6   9
ENDBRANCH   3   5
ENDBRANCH   2   3
ENDBRANCH   1   2
BRANCH   1  28
HETATM   28  O5  UNL     1      31.176  28.730  20.240  1.00  0.00    -0.389 OA
ATOM     29  H5  UNL     1      31.264  29.432  19.605  1.00  0.00     0.210 HD
ENDBRANCH   1  28
BRANCH   1  30
HETATM   30  C18 UNL     1      33.257  27.840  19.372  1.00  0.00     0.016 C 
BRANCH  30  31
HETATM   31  C19 UNL     1      33.352  28.797  18.147  1.00  0.00     0.059 C 
BRANCH  31  32
HETATM   32  C20 UNL     1      34.006  30.073  18.308  1.00  0.00    -0.017 C 
HETATM   33  C21 UNL     1      34.834  30.655  17.226  1.00  0.00     0.010 C 
HETATM   34  C22 UNL     1      33.012  31.182  18.719  1.00  0.00     0.010 C 
ENDBRANCH  31  32
ENDBRANCH  30  31
BRANCH  30  35
HETATM   35  N4  UNL     1      34.278  28.047  20.222  1.00  0.00    -0.356 N 
ATOM     36  H4  UNL     1      34.695  28.970  20.105  1.00  0.00     0.166 HD
BRANCH  35  37
HETATM   37  C23 UNL     1      34.923  27.292  21.247  1.00  0.00     0.105 C 
BRANCH  37  38
HETATM   38  C24 UNL     1      34.616  27.756  22.572  1.00  0.00     0.174 C 
HETATM   39  C25 UNL     1      33.623  28.792  22.986  1.00  0.00     0.098 C 
HETATM   40  O6  UNL     1      35.186  27.281  23.543  1.00  0.00    -0.291 OA
ENDBRANCH  37  38
BRANCH  37  41
HETATM   41  C26 UNL     1      36.279  26.917  20.761  1.00  0.00     0.067 C 
BRANCH  41  42
HETATM   42  C27 UNL     1      37.198  27.677  19.992  1.00  0.00     0.034 C 
HETATM   43  C28 UNL     1      38.045  27.649  18.864  1.00  0.00    -0.085 C 
HETATM   44  C29 UNL     1      39.167  26.698  18.648  1.00  0.00     0.043 C 
HETATM   45  C30 UNL     1      37.489  28.059  17.513  1.00  0.00     0.043 C 
ENDBRANCH  41  42
BRANCH  41  46
HETATM   46  N5  UNL     1      36.264  25.479  20.349  1.00  0.00    -0.300 N 
HETATM   47  C31 UNL     1      36.481  24.412  21.230  1.00  0.00     0.366 C 
HETATM   48  O7  UNL     1      36.705  24.618  22.472  1.00  0.00    -0.238 OA
ATOM     49  H5  UNL     1      36.084  25.264  19.367  1.00  0.00     0.171 HD
BRANCH  47  50
HETATM   50  O8  UNL     1      36.477  23.093  20.856  1.00  0.00    -0.294 OA
BRANCH  50  51
HETATM   51  C32 UNL     1      35.412  22.243  20.678  1.00  0.00     0.061 C 
HETATM   52  C33 UNL     1      34.084  22.971  20.540  1.00  0.00     0.046 C 
HETATM   53  C34 UNL     1      35.624  21.501  19.350  1.00  0.00     0.046 C 
HETATM   54  C35 UNL     1      35.217  21.158  21.705  1.00  0.00     0.046 C 
ENDBRANCH  50  51
ENDBRANCH  47  50
ENDBRANCH  41  46
ENDBRANCH  37  41
ENDBRANCH  35  37
ENDBRANCH  30  35
ENDBRANCH   1  30
TORSDOF 21
ENDMDL
MODEL 4
REMARK VINA RESULT: -5.388145256      2.794      7.064
REMARK  21 active torsions:
REMARK  status: ('A' for Active; 'I' for Inactive)
REMARK       I    between atoms: N1_2  and  C2_4 
REMARK    1  A    between atoms: C2_4  and  C3_6 
REMARK    2  A    between atoms: C3_6  and  C4_7 
REMARK    3  A    between atoms: C3_6  and  N2_14 
REMARK    4  A    between atoms: C4_7  and  C5_8 
REMARK       I    between atoms: N2_14  and  C11_16 
REMARK    5  A    between atoms: C11_16  and  C12_18 
REMARK    6  A    between atoms: C12_18  and  N3_20 
REMARK       I    between atoms: N3_20  and  C14_22 
REMARK    7  A    between atoms: C14_22  and  C15_24 
REMARK    8  A    between atoms: C15_24  and  C16_26 
REMARK    9  A    between atoms: C16_26  and  C17_27 
REMARK   10  A    between atoms: C17_27  and  O5_28 
REMARK   11  A    between atoms: C17_27  and  C18_30 
REMARK   12  A    between atoms: C18_30  and  C19_31 
REMARK   13  A    between atoms: C18_30  and  N4_35 
REMARK   14  A    between atoms: C19_31  and  C20_32 
REMARK   15  A    between atoms: N4_35  and  C23_37 
REMARK   16  A    between atoms: C23_37  and  C24_38 
REMARK   17  A    between atoms: C23_37  and  C26_41 
REMARK   18  A    between atoms: C26_41  and  C27_42 
REMARK   19  A    between atoms: C26_41  and  N5_46 
REMARK       I    between atoms: N5_46  and  C31_48 
REMARK   20  A    between atoms: C31_48  and  O8_50 
REMARK   21  A    between atoms: O8_50  and  C32_51 
ROOT
HETATM    1  C17 UNL     1      38.008  25.382  19.811  1.00  0.00     0.171 C 
ENDROOT
BRANCH   1   2
HETATM    2  C16 UNL     1      37.926  26.864  19.447  1.00  0.00     0.126 C 
BRANCH   2   3
HETATM    3  C15 UNL     1      38.689  27.193  18.227  1.00  0.00     0.219 C 
HETATM    4  O4  UNL     1      39.921  27.036  18.165  1.00  0.00    -0.287 OA
BRANCH   3   5
HETATM    5  C14 UNL     1      37.976  27.705  17.094  1.00  0.00     0.288 C 
HETATM    6  N3  UNL     1      36.595  28.026  17.185  1.00  0.00    -0.342 N 
ATOM      7  H3  UNL     1      36.096  27.893  18.064  1.00  0.00     0.163 HD
HETATM    8  O3  UNL     1      38.552  27.886  15.996  1.00  0.00    -0.264 OA
BRANCH   6   9
HETATM    9  C12 UNL     1      35.887  28.553  16.007  1.00  0.00     0.173 C 
HETATM   10  C13 UNL     1      34.483  27.979  16.067  1.00  0.00     0.042 C 
BRANCH   9  11
HETATM   11  C11 UNL     1      35.830  30.047  16.219  1.00  0.00     0.240 C 
HETATM   12  N2  UNL     1      35.826  30.889  15.092  1.00  0.00    -0.346 N 
ATOM     13  H2  UNL     1      35.860  30.489  14.154  1.00  0.00     0.163 HD
HETATM   14  O2  UNL     1      35.790  30.544  17.367  1.00  0.00    -0.271 OA
BRANCH  12  15
HETATM   15  C3  UNL     1      35.775  32.327  15.268  1.00  0.00     0.177 C 
BRANCH  15  16
HETATM   16  C2  UNL     1      37.218  32.784  15.153  1.00  0.00     0.240 C 
HETATM   17  N1  UNL     1      37.905  32.457  13.966  1.00  0.00    -0.364 N 
HETATM   18  C1  UNL     1      39.281  32.853  13.777  1.00  0.00     0.149 C 
ATOM     19  H1  UNL     1      37.426  31.934  13.233  1.00  0.00     0.161 HD
HETATM   20  O1  UNL     1      37.735  33.423  16.098  1.00  0.00    -0.271 OA
ENDBRANCH  15  16
BRANCH  15  21
HETATM   21  C4  UNL     1      34.963  32.905  14.158  1.00  0.00     0.039 C 
BRANCH  21  22
HETATM   22  C5  UNL     1      33.726  33.550  14.697  1.00  0.00    -0.012 C 
HETATM   23  C6  UNL     1      32.744  32.462  15.123  1.00  0.00     0.005 C 
HETATM   24  C7  UNL     1      31.505  33.118  15.745  1.00  0.00     0.000 C 
HETATM   25  C8  UNL     1      30.883  34.026  14.732  1.00  0.00     0.000 C 
HETATM   26  C9  UNL     1      31.615  34.111  13.431  1.00  0.00     0.000 C 
HETATM   27  C10 UNL     1      33.091  34.428  13.631  1.00  0.00     0.005 C 
ENDBRANCH  21  22
ENDBRANCH  15  21
ENDBRANCH  12  15
ENDBRANCH   9  11
ENDBRANCH   6   9
ENDBRANCH   3   5
ENDBRANCH   2   3
ENDBRANCH   1   2
BRANCH   1  28
HETATM   28  O5  UNL     1      38.236  24.693  18.630  1.00  0.00    -0.389 OA
ATOM     29  H5  UNL     1      38.740  25.271  18.069  1.00  0.00     0.210 HD
ENDBRANCH   1  28
BRANCH   1  30
HETATM   30  C18 UNL     1      36.803  24.938  20.569  1.00  0.00     0.016 C 
BRANCH  30  31
HETATM   31  C19 UNL     1      36.859  23.392  20.742  1.00  0.00     0.059 C 
BRANCH  31  32
HETATM   32  C20 UNL     1      35.736  22.600  20.301  1.00  0.00    -0.017 C 
HETATM   33  C21 UNL     1      35.752  21.906  18.992  1.00  0.00     0.010 C 
HETATM   34  C22 UNL     1      35.343  21.526  21.340  1.00  0.00     0.010 C 
ENDBRANCH  31  32
ENDBRANCH  30  31
BRANCH  30  35
HETATM   35  N4  UNL     1      36.243  25.521  21.644  1.00  0.00    -0.356 N 
ATOM     36  H4  UNL     1      36.293  24.929  22.473  1.00  0.00     0.166 HD
BRANCH  35  37
HETATM   37  C23 UNL     1      35.595  26.764  21.911  1.00  0.00     0.105 C 
BRANCH  37  38
HETATM   38  C24 UNL     1      36.166  27.476  23.021  1.00  0.00     0.174 C 
HETATM   39  C25 UNL     1      37.486  28.171  23.098  1.00  0.00     0.098 C 
HETATM   40  O6  UNL     1      35.550  27.587  24.070  1.00  0.00    -0.291 OA
ENDBRANCH  37  38
BRANCH  37  41
HETATM   41  C26 UNL     1      34.138  26.589  21.662  1.00  0.00     0.067 C 
BRANCH  41  42
HETATM   42  C27 UNL     1      33.470  25.578  20.923  1.00  0.00     0.034 C 
HETATM   43  C28 UNL     1      32.745  25.313  19.742  1.00  0.00    -0.085 C 
HETATM   44  C29 UNL     1      31.479  25.978  19.335  1.00  0.00     0.043 C 
HETATM   45  C30 UNL     1      33.499  24.897  18.492  1.00  0.00     0.043 C 
ENDBRANCH  41  42
BRANCH  41  46
HETATM   46  N5  UNL     1      33.518  27.934  21.451  1.00  0.00    -0.300 N 
HETATM   47  C31 UNL     1      33.878  28.805  20.413  1.00  0.00     0.366 C 
HETATM   48  O7  UNL     1      34.779  28.481  19.564  1.00  0.00    -0.238 OA
ATOM     49  H5  UNL     1      32.791  28.235  22.100  1.00  0.00     0.171 HD
BRANCH  47  50
HETATM   50  O8  UNL     1      33.320  30.042  20.220  1.00  0.00    -0.294 OA
BRANCH  50  51
HETATM   51  C32 UNL     1      32.096  30.370  19.688  1.00  0.00     0.061 C 
HETATM   52  C33 UNL     1      31.989  31.835  19.296  1.00  0.00     0.046 C 
HETATM   53  C34 UNL     1      31.923  29.572  18.388  1.00  0.00     0.046 C 
HETATM   54  C35 UNL     1      30.877  30.043  20.512  1.00  0.00     0.046 C 
ENDBRANCH  50  51
ENDBRANCH  47  50
ENDBRANCH  41  46
ENDBRANCH  37  41
ENDBRANCH  35  37
ENDBRANCH  30  35
ENDBRANCH   1  30
TORSDOF 21
ENDMDL
MODEL 5
REMARK VINA RESULT: -5.335373598      2.138      5.919
REMARK  21 active torsions:
REMARK  status: ('A' for Active; 'I' for Inactive)
REMARK       I    between atoms: N1_2  and  C2_4 
REMARK    1  A    between atoms: C2_4  and  C3_6 
REMARK    2  A    between atoms: C3_6  and  C4_7 
REMARK    3  A    between atoms: C3_6  and  N2_14 
REMARK    4  A    between atoms: C4_7  and  C5_8 
REMARK       I    between atoms: N2_14  and  C11_16 
REMARK    5  A    between atoms: C11_16  and  C12_18 
REMARK    6  A    between atoms: C12_18  and  N3_20 
REMARK       I    between atoms: N3_20  and  C14_22 
REMARK    7  A    between atoms: C14_22  and  C15_24 
REMARK    8  A    between atoms: C15_24  and  C16_26 
REMARK    9  A    between atoms: C16_26  and  C17_27 
REMARK   10  A    between atoms: C17_27  and  O5_28 
REMARK   11  A    between atoms: C17_27  and  C18_30 
REMARK   12  A    between atoms: C18_30  and  C19_31 
REMARK   13  A    between atoms: C18_30  and  N4_35 
REMARK   14  A    between atoms: C19_31  and  C20_32 
REMARK   15  A    between atoms: N4_35  and  C23_37 
REMARK   16  A    between atoms: C23_37  and  C24_38 
REMARK   17  A    between atoms: C23_37  and  C26_41 
REMARK   18  A    between atoms: C26_41  and  C27_42 
REMARK   19  A    between atoms: C26_41  and  N5_46 
REMARK       I    between atoms: N5_46  and  C31_48 
REMARK   20  A    between atoms: C31_48  and  O8_50 
REMARK   21  A    between atoms: O8_50  and  C32_51 
ROOT
HETATM    1  C17 UNL     1      37.141  25.570  20.868  1.00  0.00     0.171 C 
ENDROOT
BRANCH   1   2
HETATM    2  C16 UNL     1      37.012  25.963  19.396  1.00  0.00     0.126 C 
BRANCH   2   3
HETATM    3  C15 UNL     1      38.307  26.333  18.790  1.00  0.00     0.219 C 
HETATM    4  O4  UNL     1      39.372  25.807  19.156  1.00  0.00    -0.287 OA
BRANCH   3   5
HETATM    5  C14 UNL     1      38.316  27.324  17.755  1.00  0.00     0.288 C 
HETATM    6  N3  UNL     1      37.108  27.919  17.303  1.00  0.00    -0.342 N 
ATOM      7  H3  UNL     1      36.217  27.642  17.713  1.00  0.00     0.163 HD
HETATM    8  O3  UNL     1      39.390  27.694  17.225  1.00  0.00    -0.264 OA
BRANCH   6   9
HETATM    9  C12 UNL     1      37.147  28.936  16.240  1.00  0.00     0.173 C 
HETATM   10  C13 UNL     1      36.645  28.251  14.982  1.00  0.00     0.042 C 
BRANCH   9  11
HETATM   11  C11 UNL     1      36.154  29.990  16.669  1.00  0.00     0.240 C 
HETATM   12  N2  UNL     1      35.023  30.220  15.863  1.00  0.00    -0.346 N 
ATOM     13  H2  UNL     1      34.885  29.679  15.009  1.00  0.00     0.163 HD
HETATM   14  O2  UNL     1      36.318  30.658  17.715  1.00  0.00    -0.271 OA
BRANCH  12  15
HETATM   15  C3  UNL     1      34.056  31.227  16.251  1.00  0.00     0.177 C 
BRANCH  15  16
HETATM   16  C2  UNL     1      33.952  32.150  15.050  1.00  0.00     0.240 C 
HETATM   17  N1  UNL     1      32.659  32.424  14.557  1.00  0.00    -0.364 N 
HETATM   18  C1  UNL     1      32.472  33.291  13.417  1.00  0.00     0.149 C 
ATOM     19  H1  UNL     1      31.847  32.006  15.011  1.00  0.00     0.161 HD
HETATM   20  O1  UNL     1      34.998  32.624  14.550  1.00  0.00    -0.271 OA
ENDBRANCH  15  16
BRANCH  15  21
HETATM   21  C4  UNL     1      32.749  30.552  16.494  1.00  0.00     0.039 C 
BRANCH  21  22
HETATM   22  C5  UNL     1      32.615  30.176  17.936  1.00  0.00    -0.012 C 
HETATM   23  C6  UNL     1      31.192  29.683  18.190  1.00  0.00     0.005 C 
HETATM   24  C7  UNL     1      31.072  29.226  19.649  1.00  0.00     0.000 C 
HETATM   25  C8  UNL     1      31.400  30.380  20.542  1.00  0.00     0.000 C 
HETATM   26  C9  UNL     1      31.799  31.632  19.830  1.00  0.00     0.000 C 
HETATM   27  C10 UNL     1      32.907  31.379  18.816  1.00  0.00     0.005 C 
ENDBRANCH  21  22
ENDBRANCH  15  21
ENDBRANCH  12  15
ENDBRANCH   9  11
ENDBRANCH   6   9
ENDBRANCH   3   5
ENDBRANCH   2   3
ENDBRANCH   1   2
BRANCH   1  28
HETATM   28  O5  UNL     1      37.867  24.389  20.903  1.00  0.00    -0.389 OA
ATOM     29  H5  UNL     1      37.653  23.961  21.724  1.00  0.00     0.210 HD
ENDBRANCH   1  28
BRANCH   1  30
HETATM   30  C18 UNL     1      35.808  25.503  21.533  1.00  0.00     0.016 C 
BRANCH  30  31
HETATM   31  C19 UNL     1      35.499  26.887  22.178  1.00  0.00     0.059 C 
BRANCH  31  32
HETATM   32  C20 UNL     1      34.342  27.623  21.727  1.00  0.00    -0.017 C 
HETATM   33  C21 UNL     1      33.526  28.425  22.669  1.00  0.00     0.010 C 
HETATM   34  C22 UNL     1      34.682  28.569  20.555  1.00  0.00     0.010 C 
ENDBRANCH  31  32
ENDBRANCH  30  31
BRANCH  30  35
HETATM   35  N4  UNL     1      34.684  24.926  21.074  1.00  0.00    -0.356 N 
ATOM     36  H4  UNL     1      33.846  25.325  21.498  1.00  0.00     0.166 HD
BRANCH  35  37
HETATM   37  C23 UNL     1      34.374  23.892  20.140  1.00  0.00     0.105 C 
BRANCH  37  38
HETATM   38  C24 UNL     1      35.128  22.688  20.355  1.00  0.00     0.174 C 
HETATM   39  C25 UNL     1      34.829  21.560  21.288  1.00  0.00     0.098 C 
HETATM   40  O6  UNL     1      36.149  22.474  19.721  1.00  0.00    -0.291 OA
ENDBRANCH  37  38
BRANCH  37  41
HETATM   41  C26 UNL     1      34.127  24.525  18.816  1.00  0.00     0.067 C 
BRANCH  41  42
HETATM   42  C27 UNL     1      33.380  25.691  18.505  1.00  0.00     0.034 C 
HETATM   43  C28 UNL     1      32.760  26.409  17.459  1.00  0.00    -0.085 C 
HETATM   44  C29 UNL     1      33.441  26.927  16.243  1.00  0.00     0.043 C 
HETATM   45  C30 UNL     1      31.313  26.109  17.115  1.00  0.00     0.043 C 
ENDBRANCH  41  42
BRANCH  41  46
HETATM   46  N5  UNL     1      33.931  23.449  17.796  1.00  0.00    -0.300 N 
HETATM   47  C31 UNL     1      34.720  23.311  16.646  1.00  0.00     0.366 C 
HETATM   48  O7  UNL     1      35.681  24.119  16.405  1.00  0.00    -0.238 OA
ATOM     49  H5  UNL     1      33.178  22.777  17.946  1.00  0.00     0.171 HD
BRANCH  47  50
HETATM   50  O8  UNL     1      34.539  22.333  15.703  1.00  0.00    -0.294 OA
BRANCH  50  51
HETATM   51  C32 UNL     1      35.016  21.044  15.685  1.00  0.00     0.061 C 
HETATM   52  C33 UNL     1      33.924  20.000  15.860  1.00  0.00     0.046 C 
HETATM   53  C34 UNL     1      35.622  20.790  14.297  1.00  0.00     0.046 C 
HETATM   54  C35 UNL     1      36.115  20.702  16.659  1.00  0.00     0.046 C 
ENDBRANCH  50  51
ENDBRANCH  47  50
ENDBRANCH  41  46
ENDBRANCH  37  41
ENDBRANCH  35  37
ENDBRANCH  30  35
ENDBRANCH   1  30
TORSDOF 21
ENDMDL
