MODEL 1
REMARK VINA RESULT: -6.589878111      0.000      0.000
REMARK  21 active torsions:
REMARK  status: ('A' for Active; 'I' for Inactive)
REMARK    1  A    between atoms: C2_2  and  C4_4 
REMARK    2  A    between atoms: C4_4  and  C5_5 
REMARK    3  A    between atoms: C5_5  and  N1_6 
REMARK    4  A    between atoms: C5_5  and  C11_15 
REMARK       I    between atoms: N1_6  and  C6_8 
REMARK    5  A    between atoms: C6_8  and  O2_10 
REMARK    6  A    between atoms: O2_10  and  C7_11 
REMARK    7  A    between atoms: C11_15  and  O3_16 
REMARK    8  A    between atoms: C11_15  and  N2_18 
REMARK       I    between atoms: N2_18  and  C12_20 
REMARK    9  A    between atoms: C12_20  and  C13_22 
REMARK   10  A    between atoms: C13_22  and  N3_23 
REMARK   11  A    between atoms: C13_22  and  C32_52 
REMARK   12  A    between atoms: C14_25  and  C16_27 
REMARK   13  A    between atoms: C16_27  and  C17_28 
REMARK   14  A    between atoms: C16_27  and  N4_31 
REMARK   15  A    between atoms: C17_28  and  O5_29 
REMARK       I    between atoms: N4_31  and  C18_33 
REMARK   16  A    between atoms: C18_33  and  C19_35 
REMARK   17  A    between atoms: C19_35  and  C22_38 
REMARK   18  A    between atoms: C22_38  and  C23_39 
REMARK   19  A    between atoms: C22_38  and  N5_41 
REMARK       I    between atoms: N5_41  and  C24_43 
REMARK   20  A    between atoms: C24_43  and  C25_45 
REMARK   21  A    between atoms: C25_45  and  C26_46 
ROOT
HETATM    1  N3  UNL     1      34.587  22.233  19.314  1.00  0.00    -0.360 N 
ATOM      2  H3  UNL     1      33.853  22.941  19.275  1.00  0.00     0.165 HD
HETATM    3  C14 UNL     1      35.016  22.057  20.573  1.00  0.00     0.008 C 
HETATM    4  C15 UNL     1      35.018  20.797  21.353  1.00  0.00     0.065 C 
ENDROOT
BRANCH   1   5
HETATM    5  C13 UNL     1      34.852  21.735  18.066  1.00  0.00     0.081 C 
BRANCH   5   6
HETATM    6  C12 UNL     1      34.974  22.726  16.938  1.00  0.00     0.270 C 
HETATM    7  N2  UNL     1      34.499  24.029  17.151  1.00  0.00    -0.304 N 
ATOM      8  H2  UNL     1      34.101  24.192  18.076  1.00  0.00     0.171 HD
HETATM    9  O4  UNL     1      35.469  22.375  15.885  1.00  0.00    -0.266 OA
BRANCH   7  10
HETATM   10  C11 UNL     1      34.483  25.136  16.306  1.00  0.00     0.141 C 
BRANCH  10  11
HETATM   11  C5  UNL     1      33.425  26.098  15.985  1.00  0.00     0.162 C 
BRANCH  11  12
HETATM   12  C4  UNL     1      32.066  25.731  16.472  1.00  0.00     0.037 C 
BRANCH  12  13
HETATM   13  C2  UNL     1      31.474  26.498  17.597  1.00  0.00    -0.020 C 
HETATM   14  C1  UNL     1      31.674  25.658  18.897  1.00  0.00     0.009 C 
HETATM   15  C3  UNL     1      29.977  26.602  17.471  1.00  0.00     0.009 C 
ENDBRANCH  12  13
ENDBRANCH  11  12
BRANCH  11  16
HETATM   16  N1  UNL     1      33.849  27.405  16.519  1.00  0.00    -0.325 N 
HETATM   17  C6  UNL     1      34.456  28.407  15.719  1.00  0.00     0.362 C 
HETATM   18  O1  UNL     1      34.644  28.178  14.508  1.00  0.00    -0.238 OA
ATOM     19  H1  UNL     1      33.699  27.598  17.509  1.00  0.00     0.165 HD
BRANCH  17  20
HETATM   20  O2  UNL     1      34.842  29.619  16.241  1.00  0.00    -0.294 OA
BRANCH  20  21
HETATM   21  C7  UNL     1      36.152  29.874  16.624  1.00  0.00     0.061 C 
HETATM   22  C8  UNL     1      36.724  31.143  16.050  1.00  0.00     0.046 C 
HETATM   23  C9  UNL     1      36.144  30.023  18.151  1.00  0.00     0.046 C 
HETATM   24  C10 UNL     1      37.075  28.695  16.323  1.00  0.00     0.046 C 
ENDBRANCH  20  21
ENDBRANCH  17  20
ENDBRANCH  11  16
ENDBRANCH  10  11
BRANCH  10  25
HETATM   25  O3  UNL     1      35.619  25.344  15.692  1.00  0.00    -0.348 OA
ATOM     26  H3  UNL     1      36.142  24.564  15.546  1.00  0.00     0.219 HD
ENDBRANCH  10  25
ENDBRANCH   7  10
ENDBRANCH   5   6
BRANCH   5  27
HETATM   27  C32 UNL     1      34.145  20.492  17.574  1.00  0.00     0.033 C 
HETATM   28  C33 UNL     1      34.799  19.245  18.030  1.00  0.00     0.016 C 
HETATM   29  C34 UNL     1      32.669  20.499  17.850  1.00  0.00     0.016 C 
ENDBRANCH   5  27
ENDBRANCH   1   5
BRANCH   3  30
HETATM   30  C16 UNL     1      36.100  22.991  21.045  1.00  0.00     0.153 C 
BRANCH  30  31
HETATM   31  C17 UNL     1      37.472  22.595  20.467  1.00  0.00     0.195 C 
BRANCH  31  32
HETATM   32  O5  UNL     1      38.458  22.906  21.397  1.00  0.00    -0.398 OA
ATOM     33  H5  UNL     1      39.269  22.483  21.138  1.00  0.00     0.209 HD
ENDBRANCH  31  32
ENDBRANCH  30  31
BRANCH  30  34
HETATM   34  N4  UNL     1      35.947  24.370  20.584  1.00  0.00    -0.349 N 
HETATM   35  C18 UNL     1      36.210  25.488  21.434  1.00  0.00     0.228 C 
HETATM   36  O6  UNL     1      36.556  25.246  22.608  1.00  0.00    -0.273 OA
ATOM     37  H4  UNL     1      35.643  24.539  19.626  1.00  0.00     0.163 HD
BRANCH  35  38
HETATM   38  C19 UNL     1      36.057  26.830  20.854  1.00  0.00     0.060 C 
HETATM   39  C20 UNL     1      35.138  26.801  19.638  1.00  0.00     0.027 C 
HETATM   40  C21 UNL     1      37.424  27.283  20.365  1.00  0.00     0.027 C 
BRANCH  38  41
HETATM   41  C22 UNL     1      35.455  27.831  21.800  1.00  0.00     0.162 C 
BRANCH  41  42
HETATM   42  C23 UNL     1      36.499  28.792  22.271  1.00  0.00     0.257 C 
HETATM   43  O7  UNL     1      36.272  29.644  23.128  1.00  0.00    -0.305 OA
ENDBRANCH  41  42
BRANCH  41  44
HETATM   44  N5  UNL     1      34.360  28.529  21.185  1.00  0.00    -0.349 N 
HETATM   45  C24 UNL     1      33.200  28.857  21.921  1.00  0.00     0.218 C 
HETATM   46  O8  UNL     1      33.115  28.527  23.128  1.00  0.00    -0.274 OA
ATOM     47  H5  UNL     1      34.421  28.792  20.201  1.00  0.00     0.163 HD
BRANCH  45  48
HETATM   48  C25 UNL     1      32.111  29.584  21.256  1.00  0.00     0.107 C 
BRANCH  48  49
HETATM   49  C26 UNL     1      32.282  29.800  19.790  1.00  0.00    -0.006 C 
HETATM   50  C27 UNL     1      32.956  31.101  19.457  1.00  0.00     0.005 C 
HETATM   51  C28 UNL     1      32.533  31.581  18.080  1.00  0.00     0.000 C 
HETATM   52  C29 UNL     1      31.081  32.014  18.148  1.00  0.00     0.000 C 
HETATM   53  C30 UNL     1      30.344  31.205  19.168  1.00  0.00     0.000 C 
HETATM   54  C31 UNL     1      30.916  29.791  19.139  1.00  0.00     0.005 C 
ENDBRANCH  48  49
ENDBRANCH  45  48
ENDBRANCH  41  44
ENDBRANCH  38  41
ENDBRANCH  35  38
ENDBRANCH  30  34
ENDBRANCH   3  30
TORSDOF 21
ENDMDL
MODEL 2
REMARK VINA RESULT: -6.222550408      2.279      6.998
REMARK  21 active torsions:
REMARK  status: ('A' for Active; 'I' for Inactive)
REMARK    1  A    between atoms: C2_2  and  C4_4 
REMARK    2  A    between atoms: C4_4  and  C5_5 
REMARK    3  A    between atoms: C5_5  and  N1_6 
REMARK    4  A    between atoms: C5_5  and  C11_15 
REMARK       I    between atoms: N1_6  and  C6_8 
REMARK    5  A    between atoms: C6_8  and  O2_10 
REMARK    6  A    between atoms: O2_10  and  C7_11 
REMARK    7  A    between atoms: C11_15  and  O3_16 
REMARK    8  A    between atoms: C11_15  and  N2_18 
REMARK       I    between atoms: N2_18  and  C12_20 
REMARK    9  A    between atoms: C12_20  and  C13_22 
REMARK   10  A    between atoms: C13_22  and  N3_23 
REMARK   11  A    between atoms: C13_22  and  C32_52 
REMARK   12  A    between atoms: C14_25  and  C16_27 
REMARK   13  A    between atoms: C16_27  and  C17_28 
REMARK   14  A    between atoms: C16_27  and  N4_31 
REMARK   15  A    between atoms: C17_28  and  O5_29 
REMARK       I    between atoms: N4_31  and  C18_33 
REMARK   16  A    between atoms: C18_33  and  C19_35 
REMARK   17  A    between atoms: C19_35  and  C22_38 
REMARK   18  A    between atoms: C22_38  and  C23_39 
REMARK   19  A    between atoms: C22_38  and  N5_41 
REMARK       I    between atoms: N5_41  and  C24_43 
REMARK   20  A    between atoms: C24_43  and  C25_45 
REMARK   21  A    between atoms: C25_45  and  C26_46 
ROOT
HETATM    1  N3  UNL     1      34.528  30.072  20.848  1.00  0.00    -0.360 N 
ATOM      2  H3  UNL     1      34.890  31.026  20.853  1.00  0.00     0.165 HD
HETATM    3  C14 UNL     1      34.912  29.407  21.948  1.00  0.00     0.008 C 
HETATM    4  C15 UNL     1      34.040  28.763  22.958  1.00  0.00     0.065 C 
ENDROOT
BRANCH   1   5
HETATM    5  C13 UNL     1      33.789  29.837  19.718  1.00  0.00     0.081 C 
BRANCH   5   6
HETATM    6  C12 UNL     1      34.469  30.049  18.391  1.00  0.00     0.270 C 
HETATM    7  N2  UNL     1      33.755  29.726  17.226  1.00  0.00    -0.304 N 
ATOM      8  H2  UNL     1      32.815  29.365  17.388  1.00  0.00     0.171 HD
HETATM    9  O4  UNL     1      35.604  30.484  18.363  1.00  0.00    -0.266 OA
BRANCH   7  10
HETATM   10  C11 UNL     1      34.122  29.820  15.885  1.00  0.00     0.141 C 
BRANCH  10  11
HETATM   11  C5  UNL     1      34.279  30.977  14.999  1.00  0.00     0.162 C 
BRANCH  11  12
HETATM   12  C4  UNL     1      33.013  31.670  14.632  1.00  0.00     0.037 C 
BRANCH  12  13
HETATM   13  C2  UNL     1      32.533  32.788  15.483  1.00  0.00    -0.020 C 
HETATM   14  C1  UNL     1      31.208  32.324  16.165  1.00  0.00     0.009 C 
HETATM   15  C3  UNL     1      32.108  33.973  14.656  1.00  0.00     0.009 C 
ENDBRANCH  12  13
ENDBRANCH  11  12
BRANCH  11  16
HETATM   16  N1  UNL     1      35.224  31.900  15.654  1.00  0.00    -0.325 N 
HETATM   17  C6  UNL     1      36.620  31.885  15.401  1.00  0.00     0.362 C 
HETATM   18  O1  UNL     1      37.076  31.055  14.590  1.00  0.00    -0.238 OA
ATOM     19  H1  UNL     1      34.857  32.581  16.318  1.00  0.00     0.165 HD
BRANCH  17  20
HETATM   20  O2  UNL     1      37.480  32.758  16.023  1.00  0.00    -0.294 OA
BRANCH  20  21
HETATM   21  C7  UNL     1      37.994  33.874  15.377  1.00  0.00     0.061 C 
HETATM   22  C8  UNL     1      37.048  34.504  14.391  1.00  0.00     0.046 C 
HETATM   23  C9  UNL     1      38.284  34.917  16.465  1.00  0.00     0.046 C 
HETATM   24  C10 UNL     1      39.336  33.581  14.710  1.00  0.00     0.046 C 
ENDBRANCH  20  21
ENDBRANCH  17  20
ENDBRANCH  11  16
ENDBRANCH  10  11
BRANCH  10  25
HETATM   25  O3  UNL     1      34.364  28.663  15.326  1.00  0.00    -0.348 OA
ATOM     26  H3  UNL     1      35.217  28.294  15.526  1.00  0.00     0.219 HD
ENDBRANCH  10  25
ENDBRANCH   7  10
ENDBRANCH   5   6
BRANCH   5  27
HETATM   27  C32 UNL     1      32.355  30.307  19.633  1.00  0.00     0.033 C 
HETATM   28  C33 UNL     1      31.466  29.602  20.584  1.00  0.00     0.016 C 
HETATM   29  C34 UNL     1      32.212  31.800  19.715  1.00  0.00     0.016 C 
ENDBRANCH   5  27
ENDBRANCH   1   5
BRANCH   3  30
HETATM   30  C16 UNL     1      36.260  28.735  21.885  1.00  0.00     0.153 C 
BRANCH  30  31
HETATM   31  C17 UNL     1      36.480  27.807  23.094  1.00  0.00     0.195 C 
BRANCH  31  32
HETATM   32  O5  UNL     1      36.734  26.520  22.633  1.00  0.00    -0.398 OA
ATOM     33  H5  UNL     1      37.130  26.015  23.333  1.00  0.00     0.209 HD
ENDBRANCH  31  32
ENDBRANCH  30  31
BRANCH  30  34
HETATM   34  N4  UNL     1      36.424  27.826  20.752  1.00  0.00    -0.349 N 
HETATM   35  C18 UNL     1      37.449  28.009  19.774  1.00  0.00     0.228 C 
HETATM   36  O6  UNL     1      38.195  29.000  19.906  1.00  0.00    -0.273 OA
ATOM     37  H4  UNL     1      35.787  27.036  20.657  1.00  0.00     0.163 HD
BRANCH  35  38
HETATM   38  C19 UNL     1      37.543  27.014  18.697  1.00  0.00     0.060 C 
HETATM   39  C20 UNL     1      38.654  26.007  18.974  1.00  0.00     0.027 C 
HETATM   40  C21 UNL     1      37.918  27.747  17.419  1.00  0.00     0.027 C 
BRANCH  38  41
HETATM   41  C22 UNL     1      36.291  26.202  18.514  1.00  0.00     0.162 C 
BRANCH  41  42
HETATM   42  C23 UNL     1      35.901  26.169  17.070  1.00  0.00     0.257 C 
HETATM   43  O7  UNL     1      35.550  25.134  16.506  1.00  0.00    -0.305 OA
ENDBRANCH  41  42
BRANCH  41  44
HETATM   44  N5  UNL     1      36.458  24.871  19.027  1.00  0.00    -0.349 N 
HETATM   45  C24 UNL     1      35.719  24.422  20.144  1.00  0.00     0.218 C 
HETATM   46  O8  UNL     1      34.910  25.198  20.706  1.00  0.00    -0.274 OA
ATOM     47  H5  UNL     1      37.121  24.239  18.578  1.00  0.00     0.163 HD
BRANCH  45  48
HETATM   48  C25 UNL     1      35.911  23.048  20.625  1.00  0.00     0.107 C 
BRANCH  48  49
HETATM   49  C26 UNL     1      34.747  22.134  20.447  1.00  0.00    -0.006 C 
HETATM   50  C27 UNL     1      35.036  20.718  20.856  1.00  0.00     0.005 C 
HETATM   51  C28 UNL     1      34.152  19.752  20.088  1.00  0.00     0.000 C 
HETATM   52  C29 UNL     1      34.603  19.736  18.640  1.00  0.00     0.000 C 
HETATM   53  C30 UNL     1      35.156  21.070  18.253  1.00  0.00     0.000 C 
HETATM   54  C31 UNL     1      34.350  22.137  18.986  1.00  0.00     0.005 C 
ENDBRANCH  48  49
ENDBRANCH  45  48
ENDBRANCH  41  44
ENDBRANCH  38  41
ENDBRANCH  35  38
ENDBRANCH  30  34
ENDBRANCH   3  30
TORSDOF 21
ENDMDL
MODEL 3
REMARK VINA RESULT: -6.183089255      2.010      5.801
REMARK  21 active torsions:
REMARK  status: ('A' for Active; 'I' for Inactive)
REMARK    1  A    between atoms: C2_2  and  C4_4 
REMARK    2  A    between atoms: C4_4  and  C5_5 
REMARK    3  A    between atoms: C5_5  and  N1_6 
REMARK    4  A    between atoms: C5_5  and  C11_15 
REMARK       I    between atoms: N1_6  and  C6_8 
REMARK    5  A    between atoms: C6_8  and  O2_10 
REMARK    6  A    between atoms: O2_10  and  C7_11 
REMARK    7  A    between atoms: C11_15  and  O3_16 
REMARK    8  A    between atoms: C11_15  and  N2_18 
REMARK       I    between atoms: N2_18  and  C12_20 
REMARK    9  A    between atoms: C12_20  and  C13_22 
REMARK   10  A    between atoms: C13_22  and  N3_23 
REMARK   11  A    between atoms: C13_22  and  C32_52 
REMARK   12  A    between atoms: C14_25  and  C16_27 
REMARK   13  A    between atoms: C16_27  and  C17_28 
REMARK   14  A    between atoms: C16_27  and  N4_31 
REMARK   15  A    between atoms: C17_28  and  O5_29 
REMARK       I    between atoms: N4_31  and  C18_33 
REMARK   16  A    between atoms: C18_33  and  C19_35 
REMARK   17  A    between atoms: C19_35  and  C22_38 
REMARK   18  A    between atoms: C22_38  and  C23_39 
REMARK   19  A    between atoms: C22_38  and  N5_41 
REMARK       I    between atoms: N5_41  and  C24_43 
REMARK   20  A    between atoms: C24_43  and  C25_45 
REMARK   21  A    between atoms: C25_45  and  C26_46 
ROOT
HETATM    1  N3  UNL     1      37.896  27.856  21.039  1.00  0.00    -0.360 N 
ATOM      2  H3  UNL     1      38.813  27.450  21.230  1.00  0.00     0.165 HD
HETATM    3  C14 UNL     1      37.109  27.794  22.123  1.00  0.00     0.008 C 
HETATM    4  C15 UNL     1      36.455  28.924  22.824  1.00  0.00     0.065 C 
ENDROOT
BRANCH   1   5
HETATM    5  C13 UNL     1      37.822  28.308  19.747  1.00  0.00     0.081 C 
BRANCH   5   6
HETATM    6  C12 UNL     1      36.628  29.148  19.377  1.00  0.00     0.270 C 
HETATM    7  N2  UNL     1      35.384  28.509  19.256  1.00  0.00    -0.304 N 
ATOM      8  H2  UNL     1      35.402  27.504  19.432  1.00  0.00     0.171 HD
HETATM    9  O4  UNL     1      36.770  30.341  19.191  1.00  0.00    -0.266 OA
BRANCH   7  10
HETATM   10  C11 UNL     1      34.130  29.022  18.934  1.00  0.00     0.141 C 
BRANCH  10  11
HETATM   11  C5  UNL     1      33.620  29.647  17.710  1.00  0.00     0.162 C 
BRANCH  11  12
HETATM   12  C4  UNL     1      33.209  31.072  17.850  1.00  0.00     0.037 C 
BRANCH  12  13
HETATM   13  C2  UNL     1      31.764  31.400  17.924  1.00  0.00    -0.020 C 
HETATM   14  C1  UNL     1      31.449  32.401  16.769  1.00  0.00     0.009 C 
HETATM   15  C3  UNL     1      31.433  32.181  19.168  1.00  0.00     0.009 C 
ENDBRANCH  12  13
ENDBRANCH  11  12
BRANCH  11  16
HETATM   16  N1  UNL     1      34.659  29.490  16.677  1.00  0.00    -0.325 N 
HETATM   17  C6  UNL     1      34.362  29.215  15.317  1.00  0.00     0.362 C 
HETATM   18  O1  UNL     1      33.169  29.098  14.974  1.00  0.00    -0.238 OA
ATOM     19  H1  UNL     1      35.637  29.584  16.952  1.00  0.00     0.165 HD
BRANCH  17  20
HETATM   20  O2  UNL     1      35.350  29.074  14.371  1.00  0.00    -0.294 OA
BRANCH  20  21
HETATM   21  C7  UNL     1      35.782  27.828  13.936  1.00  0.00     0.061 C 
HETATM   22  C8  UNL     1      35.417  26.694  14.856  1.00  0.00     0.046 C 
HETATM   23  C9  UNL     1      35.091  27.568  12.591  1.00  0.00     0.046 C 
HETATM   24  C10 UNL     1      37.281  27.813  13.647  1.00  0.00     0.046 C 
ENDBRANCH  20  21
ENDBRANCH  17  20
ENDBRANCH  11  16
ENDBRANCH  10  11
BRANCH  10  25
HETATM   25  O3  UNL     1      33.259  28.927  19.906  1.00  0.00    -0.348 OA
ATOM     26  H3  UNL     1      33.285  28.108  20.386  1.00  0.00     0.219 HD
ENDBRANCH  10  25
ENDBRANCH   7  10
ENDBRANCH   5   6
BRANCH   5  27
HETATM   27  C32 UNL     1      38.172  27.391  18.597  1.00  0.00     0.033 C 
HETATM   28  C33 UNL     1      37.910  28.006  17.277  1.00  0.00     0.016 C 
HETATM   29  C34 UNL     1      39.555  26.815  18.696  1.00  0.00     0.016 C 
ENDBRANCH   5  27
ENDBRANCH   1   5
BRANCH   3  30
HETATM   30  C16 UNL     1      36.335  26.515  22.314  1.00  0.00     0.153 C 
BRANCH  30  31
HETATM   31  C17 UNL     1      34.819  26.780  22.370  1.00  0.00     0.195 C 
BRANCH  31  32
HETATM   32  O5  UNL     1      34.258  26.444  21.142  1.00  0.00    -0.398 OA
ATOM     33  H5  UNL     1      33.315  26.547  21.197  1.00  0.00     0.209 HD
ENDBRANCH  31  32
ENDBRANCH  30  31
BRANCH  30  34
HETATM   34  N4  UNL     1      36.453  25.572  21.203  1.00  0.00    -0.349 N 
HETATM   35  C18 UNL     1      36.829  24.208  21.401  1.00  0.00     0.228 C 
HETATM   36  O6  UNL     1      37.082  23.848  22.569  1.00  0.00    -0.273 OA
ATOM     37  H4  UNL     1      36.260  25.898  20.256  1.00  0.00     0.163 HD
BRANCH  35  38
HETATM   38  C19 UNL     1      36.881  23.341  20.216  1.00  0.00     0.060 C 
HETATM   39  C20 UNL     1      38.137  22.478  20.222  1.00  0.00     0.027 C 
HETATM   40  C21 UNL     1      36.964  24.236  18.989  1.00  0.00     0.027 C 
BRANCH  38  41
HETATM   41  C22 UNL     1      35.726  22.384  20.117  1.00  0.00     0.162 C 
BRANCH  41  42
HETATM   42  C23 UNL     1      35.496  21.711  21.432  1.00  0.00     0.257 C 
HETATM   43  O7  UNL     1      34.369  21.457  21.855  1.00  0.00    -0.305 OA
ENDBRANCH  41  42
BRANCH  41  44
HETATM   44  N5  UNL     1      34.535  23.055  19.673  1.00  0.00    -0.349 N 
HETATM   45  C24 UNL     1      33.933  22.728  18.438  1.00  0.00     0.218 C 
HETATM   46  O8  UNL     1      34.447  21.847  17.709  1.00  0.00    -0.274 OA
ATOM     47  H5  UNL     1      34.118  23.778  20.258  1.00  0.00     0.163 HD
BRANCH  45  48
HETATM   48  C25 UNL     1      32.708  23.429  18.031  1.00  0.00     0.107 C 
BRANCH  48  49
HETATM   49  C26 UNL     1      32.522  24.790  18.610  1.00  0.00    -0.006 C 
HETATM   50  C27 UNL     1      31.079  25.156  18.813  1.00  0.00     0.005 C 
HETATM   51  C28 UNL     1      30.900  26.662  18.754  1.00  0.00     0.000 C 
HETATM   52  C29 UNL     1      31.117  27.115  17.322  1.00  0.00     0.000 C 
HETATM   53  C30 UNL     1      32.103  26.222  16.638  1.00  0.00     0.000 C 
HETATM   54  C31 UNL     1      33.143  25.802  17.672  1.00  0.00     0.005 C 
ENDBRANCH  48  49
ENDBRANCH  45  48
ENDBRANCH  41  44
ENDBRANCH  38  41
ENDBRANCH  35  38
ENDBRANCH  30  34
ENDBRANCH   3  30
TORSDOF 21
ENDMDL
MODEL 4
REMARK VINA RESULT: -6.170017746      2.891      7.462
REMARK  21 active torsions:
REMARK  status: ('A' for Active; 'I' for Inactive)
REMARK    1  A    between atoms: C2_2  and  C4_4 
REMARK    2  A    between atoms: C4_4  and  C5_5 
REMARK    3  A    between atoms: C5_5  and  N1_6 
REMARK    4  A    between atoms: C5_5  and  C11_15 
REMARK       I    between atoms: N1_6  and  C6_8 
REMARK    5  A    between atoms: C6_8  and  O2_10 
REMARK    6  A    between atoms: O2_10  and  C7_11 
REMARK    7  A    between atoms: C11_15  and  O3_16 
REMARK    8  A    between atoms: C11_15  and  N2_18 
REMARK       I    between atoms: N2_18  and  C12_20 
REMARK    9  A    between atoms: C12_20  and  C13_22 
REMARK   10  A    between atoms: C13_22  and  N3_23 
REMARK   11  A    between atoms: C13_22  and  C32_52 
REMARK   12  A    between atoms: C14_25  and  C16_27 
REMARK   13  A    between atoms: C16_27  and  C17_28 
REMARK   14  A    between atoms: C16_27  and  N4_31 
REMARK   15  A    between atoms: C17_28  and  O5_29 
REMARK       I    between atoms: N4_31  and  C18_33 
REMARK   16  A    between atoms: C18_33  and  C19_35 
REMARK   17  A    between atoms: C19_35  and  C22_38 
REMARK   18  A    between atoms: C22_38  and  C23_39 
REMARK   19  A    between atoms: C22_38  and  N5_41 
REMARK       I    between atoms: N5_41  and  C24_43 
REMARK   20  A    between atoms: C24_43  and  C25_45 
REMARK   21  A    between atoms: C25_45  and  C26_46 
ROOT
HETATM    1  N3  UNL     1      36.422  29.341  16.506  1.00  0.00    -0.360 N 
ATOM      2  H3  UNL     1      37.002  30.172  16.618  1.00  0.00     0.165 HD
HETATM    3  C14 UNL     1      35.143  29.604  16.815  1.00  0.00     0.008 C 
HETATM    4  C15 UNL     1      33.956  29.439  15.943  1.00  0.00     0.065 C 
ENDROOT
BRANCH   1   5
HETATM    5  C13 UNL     1      37.171  28.274  16.084  1.00  0.00     0.081 C 
BRANCH   5   6
HETATM    6  C12 UNL     1      38.009  27.567  17.116  1.00  0.00     0.270 C 
HETATM    7  N2  UNL     1      37.349  26.798  18.087  1.00  0.00    -0.304 N 
ATOM      8  H2  UNL     1      36.332  26.790  18.005  1.00  0.00     0.171 HD
HETATM    9  O4  UNL     1      39.219  27.681  17.084  1.00  0.00    -0.266 OA
BRANCH   7  10
HETATM   10  C11 UNL     1      37.855  26.045  19.144  1.00  0.00     0.141 C 
BRANCH  10  11
HETATM   11  C5  UNL     1      37.474  25.975  20.557  1.00  0.00     0.162 C 
BRANCH  11  12
HETATM   12  C4  UNL     1      36.944  27.241  21.134  1.00  0.00     0.037 C 
BRANCH  12  13
HETATM   13  C2  UNL     1      36.718  27.327  22.598  1.00  0.00    -0.020 C 
HETATM   14  C1  UNL     1      35.206  27.638  22.825  1.00  0.00     0.009 C 
HETATM   15  C3  UNL     1      37.418  28.516  23.200  1.00  0.00     0.009 C 
ENDBRANCH  12  13
ENDBRANCH  11  12
BRANCH  11  16
HETATM   16  N1  UNL     1      36.499  24.878  20.690  1.00  0.00    -0.325 N 
HETATM   17  C6  UNL     1      36.747  23.711  21.458  1.00  0.00     0.362 C 
HETATM   18  O1  UNL     1      37.840  23.601  22.049  1.00  0.00    -0.238 OA
ATOM     19  H1  UNL     1      35.604  24.962  20.209  1.00  0.00     0.165 HD
BRANCH  17  20
HETATM   20  O2  UNL     1      35.821  22.702  21.568  1.00  0.00    -0.294 OA
BRANCH  20  21
HETATM   21  C7  UNL     1      35.327  22.029  20.458  1.00  0.00     0.061 C 
HETATM   22  C8  UNL     1      36.351  21.782  19.383  1.00  0.00     0.046 C 
HETATM   23  C9  UNL     1      34.842  20.660  20.953  1.00  0.00     0.046 C 
HETATM   24  C10 UNL     1      34.099  22.721  19.870  1.00  0.00     0.046 C 
ENDBRANCH  20  21
ENDBRANCH  17  20
ENDBRANCH  11  16
ENDBRANCH  10  11
BRANCH  10  25
HETATM   25  O3  UNL     1      38.850  25.266  18.804  1.00  0.00    -0.348 OA
ATOM     26  H3  UNL     1      39.219  25.443  17.946  1.00  0.00     0.219 HD
ENDBRANCH  10  25
ENDBRANCH   7  10
ENDBRANCH   5   6
BRANCH   5  27
HETATM   27  C32 UNL     1      37.930  28.345  14.777  1.00  0.00     0.033 C 
HETATM   28  C33 UNL     1      37.450  27.358  13.785  1.00  0.00     0.016 C 
HETATM   29  C34 UNL     1      38.012  29.734  14.212  1.00  0.00     0.016 C 
ENDBRANCH   5  27
ENDBRANCH   1   5
BRANCH   3  30
HETATM   30  C16 UNL     1      34.770  29.484  18.270  1.00  0.00     0.153 C 
BRANCH  30  31
HETATM   31  C17 UNL     1      35.893  30.012  19.183  1.00  0.00     0.195 C 
BRANCH  31  32
HETATM   32  O5  UNL     1      35.322  30.727  20.230  1.00  0.00    -0.398 OA
ATOM     33  H5  UNL     1      35.848  30.600  21.011  1.00  0.00     0.209 HD
ENDBRANCH  31  32
ENDBRANCH  30  31
BRANCH  30  34
HETATM   34  N4  UNL     1      33.627  30.306  18.665  1.00  0.00    -0.349 N 
HETATM   35  C18 UNL     1      32.401  29.732  19.122  1.00  0.00     0.228 C 
HETATM   36  O6  UNL     1      32.327  28.486  19.148  1.00  0.00    -0.273 OA
ATOM     37  H4  UNL     1      33.707  31.321  18.614  1.00  0.00     0.163 HD
BRANCH  35  38
HETATM   38  C19 UNL     1      31.330  30.654  19.526  1.00  0.00     0.060 C 
HETATM   39  C20 UNL     1      31.832  32.093  19.570  1.00  0.00     0.027 C 
HETATM   40  C21 UNL     1      30.913  30.287  20.942  1.00  0.00     0.027 C 
BRANCH  38  41
HETATM   41  C22 UNL     1      30.152  30.658  18.593  1.00  0.00     0.162 C 
BRANCH  41  42
HETATM   42  C23 UNL     1      28.890  30.919  19.352  1.00  0.00     0.257 C 
HETATM   43  O7  UNL     1      27.840  30.326  19.108  1.00  0.00    -0.305 OA
ENDBRANCH  41  42
BRANCH  41  44
HETATM   44  N5  UNL     1      30.326  31.627  17.546  1.00  0.00    -0.349 N 
HETATM   45  C24 UNL     1      30.522  31.225  16.206  1.00  0.00     0.218 C 
HETATM   46  O8  UNL     1      30.556  30.003  15.922  1.00  0.00    -0.274 OA
ATOM     47  H5  UNL     1      30.309  32.621  17.773  1.00  0.00     0.163 HD
BRANCH  45  48
HETATM   48  C25 UNL     1      30.681  32.249  15.166  1.00  0.00     0.107 C 
BRANCH  48  49
HETATM   49  C26 UNL     1      31.452  33.460  15.568  1.00  0.00    -0.006 C 
HETATM   50  C27 UNL     1      30.721  34.745  15.300  1.00  0.00     0.005 C 
HETATM   51  C28 UNL     1      31.705  35.881  15.086  1.00  0.00     0.000 C 
HETATM   52  C29 UNL     1      32.407  35.663  13.759  1.00  0.00     0.000 C 
HETATM   53  C30 UNL     1      32.527  34.201  13.467  1.00  0.00     0.000 C 
HETATM   54  C31 UNL     1      32.753  33.481  14.793  1.00  0.00     0.005 C 
ENDBRANCH  48  49
ENDBRANCH  45  48
ENDBRANCH  41  44
ENDBRANCH  38  41
ENDBRANCH  35  38
ENDBRANCH  30  34
ENDBRANCH   3  30
TORSDOF 21
ENDMDL
MODEL 5
REMARK VINA RESULT: -6.139657159      1.893      3.095
REMARK  21 active torsions:
REMARK  status: ('A' for Active; 'I' for Inactive)
REMARK    1  A    between atoms: C2_2  and  C4_4 
REMARK    2  A    between atoms: C4_4  and  C5_5 
REMARK    3  A    between atoms: C5_5  and  N1_6 
REMARK    4  A    between atoms: C5_5  and  C11_15 
REMARK       I    between atoms: N1_6  and  C6_8 
REMARK    5  A    between atoms: C6_8  and  O2_10 
REMARK    6  A    between atoms: O2_10  and  C7_11 
REMARK    7  A    between atoms: C11_15  and  O3_16 
REMARK    8  A    between atoms: C11_15  and  N2_18 
REMARK       I    between atoms: N2_18  and  C12_20 
REMARK    9  A    between atoms: C12_20  and  C13_22 
REMARK   10  A    between atoms: C13_22  and  N3_23 
REMARK   11  A    between atoms: C13_22  and  C32_52 
REMARK   12  A    between atoms: C14_25  and  C16_27 
REMARK   13  A    between atoms: C16_27  and  C17_28 
REMARK   14  A    between atoms: C16_27  and  N4_31 
REMARK   15  A    between atoms: C17_28  and  O5_29 
REMARK       I    between atoms: N4_31  and  C18_33 
REMARK   16  A    between atoms: C18_33  and  C19_35 
REMARK   17  A    between atoms: C19_35  and  C22_38 
REMARK   18  A    between atoms: C22_38  and  C23_39 
REMARK   19  A    between atoms: C22_38  and  N5_41 
REMARK       I    between atoms: N5_41  and  C24_43 
REMARK   20  A    between atoms: C24_43  and  C25_45 
REMARK   21  A    between atoms: C25_45  and  C26_46 
ROOT
HETATM    1  N3  UNL     1      33.966  23.583  19.020  1.00  0.00    -0.360 N 
ATOM      2  H3  UNL     1      33.305  23.625  19.796  1.00  0.00     0.165 HD
HETATM    3  C14 UNL     1      35.089  22.944  19.381  1.00  0.00     0.008 C 
HETATM    4  C15 UNL     1      35.675  21.735  18.756  1.00  0.00     0.065 C 
ENDROOT
BRANCH   1   5
HETATM    5  C13 UNL     1      33.452  24.194  17.907  1.00  0.00     0.081 C 
BRANCH   5   6
HETATM    6  C12 UNL     1      34.432  24.786  16.928  1.00  0.00     0.270 C 
HETATM    7  N2  UNL     1      34.882  26.095  17.156  1.00  0.00    -0.304 N 
ATOM      8  H2  UNL     1      34.491  26.543  17.985  1.00  0.00     0.171 HD
HETATM    9  O4  UNL     1      34.801  24.124  15.978  1.00  0.00    -0.266 OA
BRANCH   7  10
HETATM   10  C11 UNL     1      35.774  26.884  16.433  1.00  0.00     0.141 C 
BRANCH  10  11
HETATM   11  C5  UNL     1      35.595  27.702  15.231  1.00  0.00     0.162 C 
BRANCH  11  12
HETATM   12  C4  UNL     1      34.191  28.111  14.947  1.00  0.00     0.037 C 
BRANCH  12  13
HETATM   13  C2  UNL     1      33.522  29.071  15.859  1.00  0.00    -0.020 C 
HETATM   14  C1  UNL     1      32.143  28.459  16.260  1.00  0.00     0.009 C 
HETATM   15  C3  UNL     1      33.149  30.346  15.149  1.00  0.00     0.009 C 
ENDBRANCH  12  13
ENDBRANCH  11  12
BRANCH  11  16
HETATM   16  N1  UNL     1      36.474  28.877  15.368  1.00  0.00    -0.325 N 
HETATM   17  C6  UNL     1      37.360  29.304  14.346  1.00  0.00     0.362 C 
HETATM   18  O1  UNL     1      37.402  28.659  13.279  1.00  0.00    -0.238 OA
ATOM     19  H1  UNL     1      36.445  29.407  16.239  1.00  0.00     0.165 HD
BRANCH  17  20
HETATM   20  O2  UNL     1      38.170  30.403  14.497  1.00  0.00    -0.294 OA
BRANCH  20  21
HETATM   21  C7  UNL     1      37.688  31.699  14.369  1.00  0.00     0.061 C 
HETATM   22  C8  UNL     1      37.101  32.265  15.634  1.00  0.00     0.046 C 
HETATM   23  C9  UNL     1      38.886  32.578  13.986  1.00  0.00     0.046 C 
HETATM   24  C10 UNL     1      36.691  31.826  13.219  1.00  0.00     0.046 C 
ENDBRANCH  20  21
ENDBRANCH  17  20
ENDBRANCH  11  16
ENDBRANCH  10  11
BRANCH  10  25
HETATM   25  O3  UNL     1      36.987  26.887  16.923  1.00  0.00    -0.348 OA
ATOM     26  H3  UNL     1      37.039  27.040  17.859  1.00  0.00     0.219 HD
ENDBRANCH  10  25
ENDBRANCH   7  10
ENDBRANCH   5   6
BRANCH   5  27
HETATM   27  C32 UNL     1      32.244  25.097  18.022  1.00  0.00     0.033 C 
HETATM   28  C33 UNL     1      31.035  24.515  17.398  1.00  0.00     0.016 C 
HETATM   29  C34 UNL     1      31.992  25.578  19.422  1.00  0.00     0.016 C 
ENDBRANCH   5  27
ENDBRANCH   1   5
BRANCH   3  30
HETATM   30  C16 UNL     1      36.152  23.784  20.041  1.00  0.00     0.153 C 
BRANCH  30  31
HETATM   31  C17 UNL     1      37.276  24.145  19.051  1.00  0.00     0.195 C 
BRANCH  31  32
HETATM   32  O5  UNL     1      38.494  24.107  19.722  1.00  0.00    -0.398 OA
ATOM     33  H5  UNL     1      39.152  23.740  19.143  1.00  0.00     0.209 HD
ENDBRANCH  31  32
ENDBRANCH  30  31
BRANCH  30  34
HETATM   34  N4  UNL     1      35.687  25.097  20.487  1.00  0.00    -0.349 N 
HETATM   35  C18 UNL     1      36.203  25.726  21.661  1.00  0.00     0.228 C 
HETATM   36  O6  UNL     1      37.058  25.098  22.319  1.00  0.00    -0.273 OA
ATOM     37  H4  UNL     1      34.973  25.579  19.942  1.00  0.00     0.163 HD
BRANCH  35  38
HETATM   38  C19 UNL     1      35.688  27.061  21.995  1.00  0.00     0.060 C 
HETATM   39  C20 UNL     1      36.068  27.456  23.418  1.00  0.00     0.027 C 
HETATM   40  C21 UNL     1      34.170  27.000  21.943  1.00  0.00     0.027 C 
BRANCH  38  41
HETATM   41  C22 UNL     1      36.222  28.153  21.111  1.00  0.00     0.162 C 
BRANCH  41  42
HETATM   42  C23 UNL     1      37.393  27.657  20.324  1.00  0.00     0.257 C 
HETATM   43  O7  UNL     1      38.555  27.892  20.652  1.00  0.00    -0.305 OA
ENDBRANCH  41  42
BRANCH  41  44
HETATM   44  N5  UNL     1      35.198  28.657  20.237  1.00  0.00    -0.349 N 
HETATM   45  C24 UNL     1      34.921  30.040  20.162  1.00  0.00     0.218 C 
HETATM   46  O8  UNL     1      35.568  30.844  20.875  1.00  0.00    -0.274 OA
ATOM     47  H5  UNL     1      34.664  28.007  19.662  1.00  0.00     0.163 HD
BRANCH  45  48
HETATM   48  C25 UNL     1      33.876  30.512  19.245  1.00  0.00     0.107 C 
BRANCH  48  49
HETATM   49  C26 UNL     1      32.545  30.773  19.864  1.00  0.00    -0.006 C 
HETATM   50  C27 UNL     1      31.577  29.638  19.690  1.00  0.00     0.005 C 
HETATM   51  C28 UNL     1      30.148  30.150  19.711  1.00  0.00     0.000 C 
HETATM   52  C29 UNL     1      29.903  30.939  18.439  1.00  0.00     0.000 C 
HETATM   53  C30 UNL     1      31.167  31.594  17.981  1.00  0.00     0.000 C 
HETATM   54  C31 UNL     1      31.950  32.009  19.223  1.00  0.00     0.005 C 
ENDBRANCH  48  49
ENDBRANCH  45  48
ENDBRANCH  41  44
ENDBRANCH  38  41
ENDBRANCH  35  38
ENDBRANCH  30  34
ENDBRANCH   3  30
TORSDOF 21
ENDMDL
