MODEL 1
REMARK VINA RESULT: -6.412149236      0.000      0.000
REMARK  23 active torsions:
REMARK  status: ('A' for Active; 'I' for Inactive)
REMARK    1  A    between atoms: C2_2  and  C3_3 
REMARK    2  A    between atoms: C3_3  and  N1_4 
REMARK    3  A    between atoms: N1_4  and  C4_6 
REMARK    4  A    between atoms: C4_6  and  C5_7 
REMARK    5  A    between atoms: C5_7  and  N2_8 
REMARK    6  A    between atoms: C5_7  and  C6_12 
REMARK    7  A    between atoms: C6_12  and  N3_13 
REMARK    8  A    between atoms: C6_12  and  C33_55 
REMARK       I    between atoms: N3_13  and  C7_15 
REMARK    9  A    between atoms: C7_15  and  C8_17 
REMARK   10  A    between atoms: C8_17  and  C9_18 
REMARK   11  A    between atoms: C8_17  and  N4_22 
REMARK   12  A    between atoms: C9_18  and  C10_19 
REMARK       I    between atoms: N4_22  and  C13_24 
REMARK   13  A    between atoms: C13_24  and  C14_26 
REMARK   14  A    between atoms: N5_30  and  C18_31 
REMARK   15  A    between atoms: C18_31  and  O3_32 
REMARK   16  A    between atoms: C18_31  and  C19_34 
REMARK   17  A    between atoms: C19_34  and  N6_35 
REMARK   18  A    between atoms: C19_34  and  C30_52 
REMARK       I    between atoms: N6_35  and  C20_37 
REMARK   19  A    between atoms: C20_37  and  C21_39 
REMARK   20  A    between atoms: C21_39  and  N7_40 
REMARK   21  A    between atoms: C21_39  and  C27_49 
REMARK       I    between atoms: N7_40  and  C22_42 
REMARK   22  A    between atoms: C22_42  and  O6_44 
REMARK   23  A    between atoms: O6_44  and  C23_45 
ROOT
HETATM    1  C14 UNL     1      29.120  26.760  17.131  1.00  0.00     0.178 C 
HETATM    2  C15 UNL     1      28.682  27.620  15.907  1.00  0.00     0.037 C 
HETATM    3  C16 UNL     1      28.542  28.940  16.676  1.00  0.00     0.022 C 
HETATM    4  C17 UNL     1      27.964  28.549  17.981  1.00  0.00     0.126 C 
HETATM    5  N5  UNL     1      27.996  27.010  17.989  1.00  0.00    -0.350 N 
ENDROOT
BRANCH   1   6
HETATM    6  C13 UNL     1      30.324  27.496  17.686  1.00  0.00     0.241 C 
HETATM    7  N4  UNL     1      30.552  27.643  19.052  1.00  0.00    -0.346 N 
ATOM      8  H4  UNL     1      29.810  27.360  19.693  1.00  0.00     0.163 HD
HETATM    9  O2  UNL     1      31.079  27.913  16.806  1.00  0.00    -0.271 OA
BRANCH   7  10
HETATM   10  C8  UNL     1      31.774  28.171  19.618  1.00  0.00     0.177 C 
BRANCH  10  11
HETATM   11  C7  UNL     1      32.684  27.190  20.174  1.00  0.00     0.244 C 
HETATM   12  N3  UNL     1      33.850  27.584  20.842  1.00  0.00    -0.330 N 
ATOM     13  H3  UNL     1      33.894  28.599  20.750  1.00  0.00     0.168 HD
HETATM   14  O1  UNL     1      32.434  25.967  20.065  1.00  0.00    -0.271 OA
BRANCH  12  15
HETATM   15  C6  UNL     1      34.970  27.221  21.570  1.00  0.00     0.025 C 
BRANCH  15  16
HETATM   16  C5  UNL     1      35.967  26.311  21.029  1.00  0.00     0.246 C 
BRANCH  16  17
HETATM   17  C4  UNL     1      35.738  24.824  21.186  1.00  0.00     0.152 C 
BRANCH  17  18
HETATM   18  N1  UNL     1      34.815  24.210  20.293  1.00  0.00    -0.419 N 
ATOM     19  H1  UNL     1      34.213  24.797  19.715  1.00  0.00     0.153 HD
BRANCH  18  20
HETATM   20  C3  UNL     1      34.716  22.826  20.191  1.00  0.00     0.113 C 
BRANCH  20  21
HETATM   21  C2  UNL     1      35.745  22.145  21.124  1.00  0.00     0.015 C 
HETATM   22  C1  UNL     1      34.985  20.951  21.707  1.00  0.00     0.006 C 
ENDBRANCH  20  21
ENDBRANCH  18  20
ENDBRANCH  17  18
ENDBRANCH  16  17
BRANCH  16  23
HETATM   23  N2  UNL     1      36.202  26.517  19.623  1.00  0.00    -0.068 N 
ATOM     24  H23 UNL     1      35.911  25.733  19.039  1.00  0.00     0.275 HD
ATOM     25  H22 UNL     1      35.589  27.215  19.202  1.00  0.00     0.275 HD
ATOM     26  H21 UNL     1      37.194  26.742  19.543  1.00  0.00     0.275 HD
ENDBRANCH  16  23
ENDBRANCH  15  16
BRANCH  15  27
HETATM   27  C33 UNL     1      35.413  28.411  22.372  1.00  0.00     0.025 C 
HETATM   28  C34 UNL     1      36.796  28.398  22.949  1.00  0.00     0.016 C 
HETATM   29  C35 UNL     1      35.298  29.680  21.474  1.00  0.00     0.016 C 
ENDBRANCH  15  27
ENDBRANCH  12  15
ENDBRANCH  10  11
BRANCH  10  30
HETATM   30  C9  UNL     1      31.515  29.344  20.500  1.00  0.00     0.038 C 
BRANCH  30  31
HETATM   31  C10 UNL     1      31.675  30.729  19.974  1.00  0.00    -0.020 C 
HETATM   32  C11 UNL     1      32.805  31.079  19.114  1.00  0.00     0.009 C 
HETATM   33  C12 UNL     1      30.319  31.169  19.336  1.00  0.00     0.009 C 
ENDBRANCH  30  31
ENDBRANCH  10  30
ENDBRANCH   7  10
ENDBRANCH   1   6
BRANCH   5  34
HETATM   34  C18 UNL     1      26.966  26.391  18.661  1.00  0.00     0.138 C 
BRANCH  34  35
HETATM   35  O3  UNL     1      27.399  25.543  19.594  1.00  0.00    -0.348 OA
ATOM     36  H3  UNL     1      26.717  25.294  20.206  1.00  0.00     0.219 HD
ENDBRANCH  34  35
BRANCH  34  37
HETATM   37  C19 UNL     1      25.512  26.438  18.617  1.00  0.00     0.162 C 
BRANCH  37  38
HETATM   38  N6  UNL     1      25.107  27.701  19.277  1.00  0.00    -0.347 N 
HETATM   39  C20 UNL     1      25.058  27.933  20.656  1.00  0.00     0.241 C 
HETATM   40  O4  UNL     1      25.336  27.108  21.537  1.00  0.00    -0.271 OA
ATOM     41  H6  UNL     1      24.839  28.474  18.669  1.00  0.00     0.163 HD
BRANCH  39  42
HETATM   42  C21 UNL     1      24.607  29.341  21.050  1.00  0.00     0.182 C 
BRANCH  42  43
HETATM   43  N7  UNL     1      23.933  29.169  22.345  1.00  0.00    -0.323 N 
HETATM   44  C22 UNL     1      22.509  29.030  22.380  1.00  0.00     0.362 C 
HETATM   45  O5  UNL     1      21.850  29.111  21.292  1.00  0.00    -0.238 OA
ATOM     46  H7  UNL     1      24.474  29.148  23.209  1.00  0.00     0.165 HD
BRANCH  44  47
HETATM   47  O6  UNL     1      21.837  28.798  23.543  1.00  0.00    -0.294 OA
BRANCH  47  48
HETATM   48  C23 UNL     1      21.382  29.797  24.439  1.00  0.00     0.061 C 
HETATM   49  C24 UNL     1      21.479  31.196  23.885  1.00  0.00     0.046 C 
HETATM   50  C25 UNL     1      21.984  29.685  25.797  1.00  0.00     0.046 C 
HETATM   51  C26 UNL     1      19.859  29.553  24.595  1.00  0.00     0.046 C 
ENDBRANCH  47  48
ENDBRANCH  44  47
ENDBRANCH  42  43
BRANCH  42  52
HETATM   52  C27 UNL     1      25.863  30.148  21.271  1.00  0.00     0.009 C 
HETATM   53  C28 UNL     1      26.021  31.160  20.149  1.00  0.00     0.012 C 
HETATM   54  C29 UNL     1      25.786  30.893  22.598  1.00  0.00     0.012 C 
ENDBRANCH  42  52
ENDBRANCH  39  42
ENDBRANCH  37  38
BRANCH  37  55
HETATM   55  C30 UNL     1      24.831  26.411  17.293  1.00  0.00     0.008 C 
HETATM   56  C31 UNL     1      24.548  27.756  16.688  1.00  0.00     0.012 C 
HETATM   57  C32 UNL     1      25.279  25.346  16.361  1.00  0.00     0.012 C 
ENDBRANCH  37  55
ENDBRANCH  34  37
ENDBRANCH   5  34
TORSDOF 23
ENDMDL
MODEL 2
REMARK VINA RESULT: -6.338997567      5.423      8.665
REMARK  23 active torsions:
REMARK  status: ('A' for Active; 'I' for Inactive)
REMARK    1  A    between atoms: C2_2  and  C3_3 
REMARK    2  A    between atoms: C3_3  and  N1_4 
REMARK    3  A    between atoms: N1_4  and  C4_6 
REMARK    4  A    between atoms: C4_6  and  C5_7 
REMARK    5  A    between atoms: C5_7  and  N2_8 
REMARK    6  A    between atoms: C5_7  and  C6_12 
REMARK    7  A    between atoms: C6_12  and  N3_13 
REMARK    8  A    between atoms: C6_12  and  C33_55 
REMARK       I    between atoms: N3_13  and  C7_15 
REMARK    9  A    between atoms: C7_15  and  C8_17 
REMARK   10  A    between atoms: C8_17  and  C9_18 
REMARK   11  A    between atoms: C8_17  and  N4_22 
REMARK   12  A    between atoms: C9_18  and  C10_19 
REMARK       I    between atoms: N4_22  and  C13_24 
REMARK   13  A    between atoms: C13_24  and  C14_26 
REMARK   14  A    between atoms: N5_30  and  C18_31 
REMARK   15  A    between atoms: C18_31  and  O3_32 
REMARK   16  A    between atoms: C18_31  and  C19_34 
REMARK   17  A    between atoms: C19_34  and  N6_35 
REMARK   18  A    between atoms: C19_34  and  C30_52 
REMARK       I    between atoms: N6_35  and  C20_37 
REMARK   19  A    between atoms: C20_37  and  C21_39 
REMARK   20  A    between atoms: C21_39  and  N7_40 
REMARK   21  A    between atoms: C21_39  and  C27_49 
REMARK       I    between atoms: N7_40  and  C22_42 
REMARK   22  A    between atoms: C22_42  and  O6_44 
REMARK   23  A    between atoms: O6_44  and  C23_45 
ROOT
HETATM    1  C14 UNL     1      37.774  27.048  18.725  1.00  0.00     0.178 C 
HETATM    2  C15 UNL     1      39.158  27.450  19.321  1.00  0.00     0.037 C 
HETATM    3  C16 UNL     1      38.603  28.124  20.582  1.00  0.00     0.022 C 
HETATM    4  C17 UNL     1      37.383  28.824  20.121  1.00  0.00     0.126 C 
HETATM    5  N5  UNL     1      37.171  28.350  18.673  1.00  0.00    -0.350 N 
ENDROOT
BRANCH   1   6
HETATM    6  C13 UNL     1      37.113  26.253  19.835  1.00  0.00     0.241 C 
HETATM    7  N4  UNL     1      35.800  26.477  20.240  1.00  0.00    -0.346 N 
ATOM      8  H4  UNL     1      35.318  27.294  19.866  1.00  0.00     0.163 HD
HETATM    9  O2  UNL     1      37.848  25.381  20.303  1.00  0.00    -0.271 OA
BRANCH   7  10
HETATM   10  C8  UNL     1      35.078  25.623  21.158  1.00  0.00     0.177 C 
BRANCH  10  11
HETATM   11  C7  UNL     1      34.482  24.438  20.577  1.00  0.00     0.244 C 
HETATM   12  N3  UNL     1      35.262  23.318  20.263  1.00  0.00    -0.330 N 
ATOM     13  H3  UNL     1      36.226  23.587  20.454  1.00  0.00     0.168 HD
HETATM   14  O1  UNL     1      33.250  24.400  20.349  1.00  0.00    -0.271 OA
BRANCH  12  15
HETATM   15  C6  UNL     1      35.316  22.011  19.810  1.00  0.00     0.025 C 
BRANCH  15  16
HETATM   16  C5  UNL     1      34.392  20.998  20.296  1.00  0.00     0.246 C 
BRANCH  16  17
HETATM   17  C4  UNL     1      34.473  19.611  19.698  1.00  0.00     0.152 C 
BRANCH  17  18
HETATM   18  N1  UNL     1      33.300  19.102  19.073  1.00  0.00    -0.419 N 
ATOM     19  H1  UNL     1      33.046  18.124  19.209  1.00  0.00     0.153 HD
BRANCH  18  20
HETATM   20  C3  UNL     1      32.493  19.910  18.278  1.00  0.00     0.113 C 
BRANCH  20  21
HETATM   21  C2  UNL     1      32.885  19.760  16.790  1.00  0.00     0.015 C 
HETATM   22  C1  UNL     1      32.041  20.819  16.075  1.00  0.00     0.006 C 
ENDBRANCH  20  21
ENDBRANCH  18  20
ENDBRANCH  17  18
ENDBRANCH  16  17
BRANCH  16  23
HETATM   23  N2  UNL     1      34.475  20.808  21.721  1.00  0.00    -0.068 N 
ATOM     24  H23 UNL     1      34.992  19.972  21.994  1.00  0.00     0.275 HD
ATOM     25  H22 UNL     1      35.080  21.482  22.191  1.00  0.00     0.275 HD
ATOM     26  H21 UNL     1      33.510  20.820  22.054  1.00  0.00     0.275 HD
ENDBRANCH  16  23
ENDBRANCH  15  16
BRANCH  15  27
HETATM   27  C33 UNL     1      35.688  22.034  18.355  1.00  0.00     0.025 C 
HETATM   28  C34 UNL     1      34.850  22.857  17.425  1.00  0.00     0.016 C 
HETATM   29  C35 UNL     1      37.155  22.545  18.231  1.00  0.00     0.016 C 
ENDBRANCH  15  27
ENDBRANCH  12  15
ENDBRANCH  10  11
BRANCH  10  30
HETATM   30  C9  UNL     1      34.167  26.404  22.042  1.00  0.00     0.038 C 
BRANCH  30  31
HETATM   31  C10 UNL     1      34.522  27.794  22.447  1.00  0.00    -0.020 C 
HETATM   32  C11 UNL     1      33.483  28.763  22.792  1.00  0.00     0.009 C 
HETATM   33  C12 UNL     1      35.616  27.714  23.559  1.00  0.00     0.009 C 
ENDBRANCH  30  31
ENDBRANCH  10  30
ENDBRANCH   7  10
ENDBRANCH   1   6
BRANCH   5  34
HETATM   34  C18 UNL     1      36.619  29.272  17.813  1.00  0.00     0.138 C 
BRANCH  34  35
HETATM   35  O3  UNL     1      36.919  30.527  18.146  1.00  0.00    -0.348 OA
ATOM     36  H3  UNL     1      37.375  30.990  17.453  1.00  0.00     0.219 HD
ENDBRANCH  34  35
BRANCH  34  37
HETATM   37  C19 UNL     1      35.791  29.222  16.617  1.00  0.00     0.162 C 
BRANCH  37  38
HETATM   38  N6  UNL     1      34.560  28.484  16.983  1.00  0.00    -0.347 N 
HETATM   39  C20 UNL     1      34.376  27.098  16.914  1.00  0.00     0.241 C 
HETATM   40  O4  UNL     1      35.216  26.278  16.522  1.00  0.00    -0.271 OA
ATOM     41  H6  UNL     1      33.772  29.038  17.317  1.00  0.00     0.163 HD
BRANCH  39  42
HETATM   42  C21 UNL     1      32.996  26.615  17.365  1.00  0.00     0.182 C 
BRANCH  42  43
HETATM   43  N7  UNL     1      32.192  27.839  17.484  1.00  0.00    -0.323 N 
HETATM   44  C22 UNL     1      31.654  28.204  18.758  1.00  0.00     0.362 C 
HETATM   45  O5  UNL     1      31.840  27.431  19.755  1.00  0.00    -0.238 OA
ATOM     46  H7  UNL     1      32.019  28.423  16.665  1.00  0.00     0.165 HD
BRANCH  44  47
HETATM   47  O6  UNL     1      30.960  29.363  18.941  1.00  0.00    -0.294 OA
BRANCH  47  48
HETATM   48  C23 UNL     1      31.458  30.524  19.584  1.00  0.00     0.061 C 
HETATM   49  C24 UNL     1      32.963  30.622  19.574  1.00  0.00     0.046 C 
HETATM   50  C25 UNL     1      30.889  30.729  20.945  1.00  0.00     0.046 C 
HETATM   51  C26 UNL     1      30.991  31.717  18.711  1.00  0.00     0.046 C 
ENDBRANCH  47  48
ENDBRANCH  44  47
ENDBRANCH  42  43
BRANCH  42  52
HETATM   52  C27 UNL     1      32.439  25.786  16.235  1.00  0.00     0.009 C 
HETATM   53  C28 UNL     1      31.572  24.674  16.798  1.00  0.00     0.012 C 
HETATM   54  C29 UNL     1      31.591  26.653  15.312  1.00  0.00     0.012 C 
ENDBRANCH  42  52
ENDBRANCH  39  42
ENDBRANCH  37  38
BRANCH  37  55
HETATM   55  C30 UNL     1      35.353  30.500  15.991  1.00  0.00     0.008 C 
HETATM   56  C31 UNL     1      36.087  30.887  14.739  1.00  0.00     0.012 C 
HETATM   57  C32 UNL     1      33.891  30.758  16.010  1.00  0.00     0.012 C 
ENDBRANCH  37  55
ENDBRANCH  34  37
ENDBRANCH   5  34
TORSDOF 23
ENDMDL
MODEL 3
REMARK VINA RESULT: -6.286848292      4.006     10.598
REMARK  23 active torsions:
REMARK  status: ('A' for Active; 'I' for Inactive)
REMARK    1  A    between atoms: C2_2  and  C3_3 
REMARK    2  A    between atoms: C3_3  and  N1_4 
REMARK    3  A    between atoms: N1_4  and  C4_6 
REMARK    4  A    between atoms: C4_6  and  C5_7 
REMARK    5  A    between atoms: C5_7  and  N2_8 
REMARK    6  A    between atoms: C5_7  and  C6_12 
REMARK    7  A    between atoms: C6_12  and  N3_13 
REMARK    8  A    between atoms: C6_12  and  C33_55 
REMARK       I    between atoms: N3_13  and  C7_15 
REMARK    9  A    between atoms: C7_15  and  C8_17 
REMARK   10  A    between atoms: C8_17  and  C9_18 
REMARK   11  A    between atoms: C8_17  and  N4_22 
REMARK   12  A    between atoms: C9_18  and  C10_19 
REMARK       I    between atoms: N4_22  and  C13_24 
REMARK   13  A    between atoms: C13_24  and  C14_26 
REMARK   14  A    between atoms: N5_30  and  C18_31 
REMARK   15  A    between atoms: C18_31  and  O3_32 
REMARK   16  A    between atoms: C18_31  and  C19_34 
REMARK   17  A    between atoms: C19_34  and  N6_35 
REMARK   18  A    between atoms: C19_34  and  C30_52 
REMARK       I    between atoms: N6_35  and  C20_37 
REMARK   19  A    between atoms: C20_37  and  C21_39 
REMARK   20  A    between atoms: C21_39  and  N7_40 
REMARK   21  A    between atoms: C21_39  and  C27_49 
REMARK       I    between atoms: N7_40  and  C22_42 
REMARK   22  A    between atoms: C22_42  and  O6_44 
REMARK   23  A    between atoms: O6_44  and  C23_45 
ROOT
HETATM    1  C14 UNL     1      35.170  27.266  22.036  1.00  0.00     0.178 C 
HETATM    2  C15 UNL     1      35.303  27.758  23.509  1.00  0.00     0.037 C 
HETATM    3  C16 UNL     1      35.471  29.244  23.170  1.00  0.00     0.022 C 
HETATM    4  C17 UNL     1      36.310  29.253  21.951  1.00  0.00     0.126 C 
HETATM    5  N5  UNL     1      36.408  27.779  21.520  1.00  0.00    -0.350 N 
ENDROOT
BRANCH   1   6
HETATM    6  C13 UNL     1      34.031  28.095  21.472  1.00  0.00     0.241 C 
HETATM    7  N4  UNL     1      34.001  28.531  20.150  1.00  0.00    -0.346 N 
ATOM      8  H4  UNL     1      34.840  28.399  19.585  1.00  0.00     0.163 HD
HETATM    9  O2  UNL     1      33.138  28.305  22.295  1.00  0.00    -0.271 OA
BRANCH   7  10
HETATM   10  C8  UNL     1      32.855  29.158  19.529  1.00  0.00     0.177 C 
BRANCH  10  11
HETATM   11  C7  UNL     1      32.252  28.423  18.436  1.00  0.00     0.244 C 
HETATM   12  N3  UNL     1      30.931  27.965  18.516  1.00  0.00    -0.330 N 
ATOM     13  H3  UNL     1      30.614  28.194  19.458  1.00  0.00     0.168 HD
HETATM   14  O1  UNL     1      32.911  28.189  17.395  1.00  0.00    -0.271 OA
BRANCH  12  15
HETATM   15  C6  UNL     1      29.861  27.343  17.896  1.00  0.00     0.025 C 
BRANCH  15  16
HETATM   16  C5  UNL     1      29.108  28.000  16.839  1.00  0.00     0.246 C 
BRANCH  16  17
HETATM   17  C4  UNL     1      27.816  28.695  17.207  1.00  0.00     0.152 C 
BRANCH  17  18
HETATM   18  N1  UNL     1      27.648  29.077  18.569  1.00  0.00    -0.419 N 
ATOM     19  H1  UNL     1      27.284  28.398  19.236  1.00  0.00     0.153 HD
BRANCH  18  20
HETATM   20  C3  UNL     1      27.970  30.358  19.008  1.00  0.00     0.113 C 
BRANCH  20  21
HETATM   21  C2  UNL     1      26.793  30.960  19.810  1.00  0.00     0.015 C 
HETATM   22  C1  UNL     1      27.334  31.068  21.239  1.00  0.00     0.006 C 
ENDBRANCH  20  21
ENDBRANCH  18  20
ENDBRANCH  17  18
ENDBRANCH  16  17
BRANCH  16  23
HETATM   23  N2  UNL     1      29.886  28.984  16.131  1.00  0.00    -0.068 N 
ATOM     24  H23 UNL     1      29.391  29.862  15.974  1.00  0.00     0.275 HD
ATOM     25  H22 UNL     1      30.652  29.374  16.680  1.00  0.00     0.275 HD
ATOM     26  H21 UNL     1      30.189  28.524  15.272  1.00  0.00     0.275 HD
ENDBRANCH  16  23
ENDBRANCH  15  16
BRANCH  15  27
HETATM   27  C33 UNL     1      30.172  25.879  17.781  1.00  0.00     0.025 C 
HETATM   28  C34 UNL     1      30.097  25.041  19.021  1.00  0.00     0.016 C 
HETATM   29  C35 UNL     1      29.199  25.250  16.738  1.00  0.00     0.016 C 
ENDBRANCH  15  27
ENDBRANCH  12  15
ENDBRANCH  10  11
BRANCH  10  30
HETATM   30  C9  UNL     1      33.099  30.601  19.244  1.00  0.00     0.038 C 
BRANCH  30  31
HETATM   31  C10 UNL     1      32.035  31.609  19.514  1.00  0.00    -0.020 C 
HETATM   32  C11 UNL     1      31.257  32.189  18.421  1.00  0.00     0.009 C 
HETATM   33  C12 UNL     1      31.106  31.050  20.639  1.00  0.00     0.009 C 
ENDBRANCH  30  31
ENDBRANCH  10  30
ENDBRANCH   7  10
ENDBRANCH   1   6
BRANCH   5  34
HETATM   34  C18 UNL     1      37.590  27.404  20.925  1.00  0.00     0.138 C 
BRANCH  34  35
HETATM   35  O3  UNL     1      38.637  28.087  21.388  1.00  0.00    -0.348 OA
ATOM     36  H3  UNL     1      39.444  27.870  20.936  1.00  0.00     0.219 HD
ENDBRANCH  34  35
BRANCH  34  37
HETATM   37  C19 UNL     1      37.991  26.434  19.916  1.00  0.00     0.162 C 
BRANCH  37  38
HETATM   38  N6  UNL     1      36.893  25.445  19.818  1.00  0.00    -0.347 N 
HETATM   39  C20 UNL     1      36.731  24.310  20.620  1.00  0.00     0.241 C 
HETATM   40  O4  UNL     1      37.491  23.954  21.529  1.00  0.00    -0.271 OA
ATOM     41  H6  UNL     1      36.190  25.606  19.098  1.00  0.00     0.163 HD
BRANCH  39  42
HETATM   42  C21 UNL     1      35.494  23.470  20.293  1.00  0.00     0.182 C 
BRANCH  42  43
HETATM   43  N7  UNL     1      35.203  23.766  18.883  1.00  0.00    -0.323 N 
HETATM   44  C22 UNL     1      34.204  24.739  18.563  1.00  0.00     0.362 C 
HETATM   45  O5  UNL     1      33.549  25.291  19.507  1.00  0.00    -0.238 OA
ATOM     46  H7  UNL     1      35.709  23.283  18.141  1.00  0.00     0.165 HD
BRANCH  44  47
HETATM   47  O6  UNL     1      33.942  25.103  17.276  1.00  0.00    -0.294 OA
BRANCH  47  48
HETATM   48  C23 UNL     1      33.512  24.228  16.248  1.00  0.00     0.061 C 
HETATM   49  C24 UNL     1      32.522  23.190  16.712  1.00  0.00     0.046 C 
HETATM   50  C25 UNL     1      34.638  23.629  15.479  1.00  0.00     0.046 C 
HETATM   51  C26 UNL     1      32.705  25.110  15.260  1.00  0.00     0.046 C 
ENDBRANCH  47  48
ENDBRANCH  44  47
ENDBRANCH  42  43
BRANCH  42  52
HETATM   52  C27 UNL     1      35.914  22.025  20.400  1.00  0.00     0.009 C 
HETATM   53  C28 UNL     1      35.166  21.362  21.544  1.00  0.00     0.012 C 
HETATM   54  C29 UNL     1      35.595  21.285  19.108  1.00  0.00     0.012 C 
ENDBRANCH  42  52
ENDBRANCH  39  42
ENDBRANCH  37  38
BRANCH  37  55
HETATM   55  C30 UNL     1      38.264  26.909  18.531  1.00  0.00     0.008 C 
HETATM   56  C31 UNL     1      37.333  27.971  18.020  1.00  0.00     0.012 C 
HETATM   57  C32 UNL     1      39.697  27.053  18.170  1.00  0.00     0.012 C 
ENDBRANCH  37  55
ENDBRANCH  34  37
ENDBRANCH   5  34
TORSDOF 23
ENDMDL
MODEL 4
REMARK VINA RESULT: -6.284250008      4.099     10.399
REMARK  23 active torsions:
REMARK  status: ('A' for Active; 'I' for Inactive)
REMARK    1  A    between atoms: C2_2  and  C3_3 
REMARK    2  A    between atoms: C3_3  and  N1_4 
REMARK    3  A    between atoms: N1_4  and  C4_6 
REMARK    4  A    between atoms: C4_6  and  C5_7 
REMARK    5  A    between atoms: C5_7  and  N2_8 
REMARK    6  A    between atoms: C5_7  and  C6_12 
REMARK    7  A    between atoms: C6_12  and  N3_13 
REMARK    8  A    between atoms: C6_12  and  C33_55 
REMARK       I    between atoms: N3_13  and  C7_15 
REMARK    9  A    between atoms: C7_15  and  C8_17 
REMARK   10  A    between atoms: C8_17  and  C9_18 
REMARK   11  A    between atoms: C8_17  and  N4_22 
REMARK   12  A    between atoms: C9_18  and  C10_19 
REMARK       I    between atoms: N4_22  and  C13_24 
REMARK   13  A    between atoms: C13_24  and  C14_26 
REMARK   14  A    between atoms: N5_30  and  C18_31 
REMARK   15  A    between atoms: C18_31  and  O3_32 
REMARK   16  A    between atoms: C18_31  and  C19_34 
REMARK   17  A    between atoms: C19_34  and  N6_35 
REMARK   18  A    between atoms: C19_34  and  C30_52 
REMARK       I    between atoms: N6_35  and  C20_37 
REMARK   19  A    between atoms: C20_37  and  C21_39 
REMARK   20  A    between atoms: C21_39  and  N7_40 
REMARK   21  A    between atoms: C21_39  and  C27_49 
REMARK       I    between atoms: N7_40  and  C22_42 
REMARK   22  A    between atoms: C22_42  and  O6_44 
REMARK   23  A    between atoms: O6_44  and  C23_45 
ROOT
HETATM    1  C14 UNL     1      35.069  27.253  22.051  1.00  0.00     0.178 C 
HETATM    2  C15 UNL     1      35.212  27.777  23.512  1.00  0.00     0.037 C 
HETATM    3  C16 UNL     1      35.402  29.252  23.140  1.00  0.00     0.022 C 
HETATM    4  C17 UNL     1      36.238  29.221  21.920  1.00  0.00     0.126 C 
HETATM    5  N5  UNL     1      36.313  27.736  21.522  1.00  0.00    -0.350 N 
ENDROOT
BRANCH   1   6
HETATM    6  C13 UNL     1      33.941  28.085  21.471  1.00  0.00     0.241 C 
HETATM    7  N4  UNL     1      33.869  28.415  20.120  1.00  0.00    -0.346 N 
ATOM      8  H4  UNL     1      34.674  28.200  19.532  1.00  0.00     0.163 HD
HETATM    9  O2  UNL     1      33.097  28.402  22.311  1.00  0.00    -0.271 OA
BRANCH   7  10
HETATM   10  C8  UNL     1      32.723  29.042  19.498  1.00  0.00     0.177 C 
BRANCH  10  11
HETATM   11  C7  UNL     1      32.002  28.228  18.542  1.00  0.00     0.244 C 
HETATM   12  N3  UNL     1      30.634  27.974  18.696  1.00  0.00    -0.330 N 
ATOM     13  H3  UNL     1      30.371  28.395  19.588  1.00  0.00     0.168 HD
HETATM   14  O1  UNL     1      32.600  27.739  17.554  1.00  0.00    -0.271 OA
BRANCH  12  15
HETATM   15  C6  UNL     1      29.476  27.411  18.188  1.00  0.00     0.025 C 
BRANCH  15  16
HETATM   16  C5  UNL     1      28.532  28.191  17.403  1.00  0.00     0.246 C 
BRANCH  16  17
HETATM   17  C4  UNL     1      27.180  28.496  18.009  1.00  0.00     0.152 C 
BRANCH  17  18
HETATM   18  N1  UNL     1      26.714  27.624  19.034  1.00  0.00    -0.419 N 
ATOM     19  H1  UNL     1      26.991  27.797  20.000  1.00  0.00     0.153 HD
BRANCH  18  20
HETATM   20  C3  UNL     1      25.890  26.541  18.746  1.00  0.00     0.113 C 
BRANCH  20  21
HETATM   21  C2  UNL     1      25.853  25.563  19.944  1.00  0.00     0.015 C 
HETATM   22  C1  UNL     1      25.842  24.178  19.292  1.00  0.00     0.006 C 
ENDBRANCH  20  21
ENDBRANCH  18  20
ENDBRANCH  17  18
ENDBRANCH  16  17
BRANCH  16  23
HETATM   23  N2  UNL     1      29.066  29.465  16.996  1.00  0.00    -0.068 N 
ATOM     24  H23 UNL     1      28.361  30.197  16.910  1.00  0.00     0.275 HD
ATOM     25  H22 UNL     1      29.627  29.924  17.715  1.00  0.00     0.275 HD
ATOM     26  H21 UNL     1      29.577  29.283  16.132  1.00  0.00     0.275 HD
ENDBRANCH  16  23
ENDBRANCH  15  16
BRANCH  15  27
HETATM   27  C33 UNL     1      29.781  25.997  17.784  1.00  0.00     0.025 C 
HETATM   28  C34 UNL     1      29.604  24.916  18.807  1.00  0.00     0.016 C 
HETATM   29  C35 UNL     1      28.883  25.630  16.563  1.00  0.00     0.016 C 
ENDBRANCH  15  27
ENDBRANCH  12  15
ENDBRANCH  10  11
BRANCH  10  30
HETATM   30  C9  UNL     1      33.034  30.422  19.027  1.00  0.00     0.038 C 
BRANCH  30  31
HETATM   31  C10 UNL     1      32.085  31.539  19.296  1.00  0.00    -0.020 C 
HETATM   32  C11 UNL     1      31.348  32.177  18.205  1.00  0.00     0.009 C 
HETATM   33  C12 UNL     1      31.126  31.099  20.448  1.00  0.00     0.009 C 
ENDBRANCH  30  31
ENDBRANCH  10  30
ENDBRANCH   7  10
ENDBRANCH   1   6
BRANCH   5  34
HETATM   34  C18 UNL     1      37.490  27.331  20.934  1.00  0.00     0.138 C 
BRANCH  34  35
HETATM   35  O3  UNL     1      38.538  28.048  21.336  1.00  0.00    -0.348 OA
ATOM     36  H3  UNL     1      39.367  27.643  21.110  1.00  0.00     0.219 HD
ENDBRANCH  34  35
BRANCH  34  37
HETATM   37  C19 UNL     1      37.882  26.300  19.984  1.00  0.00     0.162 C 
BRANCH  37  38
HETATM   38  N6  UNL     1      36.776  25.316  19.944  1.00  0.00    -0.347 N 
HETATM   39  C20 UNL     1      36.605  24.230  20.810  1.00  0.00     0.241 C 
HETATM   40  O4  UNL     1      37.364  23.921  21.738  1.00  0.00    -0.271 OA
ATOM     41  H6  UNL     1      36.072  25.441  19.217  1.00  0.00     0.163 HD
BRANCH  39  42
HETATM   42  C21 UNL     1      35.360  23.383  20.534  1.00  0.00     0.182 C 
BRANCH  42  43
HETATM   43  N7  UNL     1      35.009  23.680  19.138  1.00  0.00    -0.323 N 
HETATM   44  C22 UNL     1      33.807  24.404  18.857  1.00  0.00     0.362 C 
HETATM   45  O5  UNL     1      33.039  24.730  19.820  1.00  0.00    -0.238 OA
ATOM     46  H7  UNL     1      35.616  23.373  18.378  1.00  0.00     0.165 HD
BRANCH  44  47
HETATM   47  O6  UNL     1      33.467  24.767  17.588  1.00  0.00    -0.294 OA
BRANCH  47  48
HETATM   48  C23 UNL     1      33.105  23.874  16.549  1.00  0.00     0.061 C 
HETATM   49  C24 UNL     1      32.118  22.817  16.977  1.00  0.00     0.046 C 
HETATM   50  C25 UNL     1      34.279  23.293  15.840  1.00  0.00     0.046 C 
HETATM   51  C26 UNL     1      32.327  24.729  15.516  1.00  0.00     0.046 C 
ENDBRANCH  47  48
ENDBRANCH  44  47
ENDBRANCH  42  43
BRANCH  42  52
HETATM   52  C27 UNL     1      35.793  21.941  20.621  1.00  0.00     0.009 C 
HETATM   53  C28 UNL     1      34.977  21.228  21.685  1.00  0.00     0.012 C 
HETATM   54  C29 UNL     1      35.577  21.243  19.284  1.00  0.00     0.012 C 
ENDBRANCH  42  52
ENDBRANCH  39  42
ENDBRANCH  37  38
BRANCH  37  55
HETATM   55  C30 UNL     1      38.157  26.690  18.573  1.00  0.00     0.008 C 
HETATM   56  C31 UNL     1      37.149  27.613  17.953  1.00  0.00     0.012 C 
HETATM   57  C32 UNL     1      39.582  26.944  18.242  1.00  0.00     0.012 C 
ENDBRANCH  37  55
ENDBRANCH  34  37
ENDBRANCH   5  34
TORSDOF 23
ENDMDL
MODEL 5
REMARK VINA RESULT: -6.259870723      5.723      9.797
REMARK  23 active torsions:
REMARK  status: ('A' for Active; 'I' for Inactive)
REMARK    1  A    between atoms: C2_2  and  C3_3 
REMARK    2  A    between atoms: C3_3  and  N1_4 
REMARK    3  A    between atoms: N1_4  and  C4_6 
REMARK    4  A    between atoms: C4_6  and  C5_7 
REMARK    5  A    between atoms: C5_7  and  N2_8 
REMARK    6  A    between atoms: C5_7  and  C6_12 
REMARK    7  A    between atoms: C6_12  and  N3_13 
REMARK    8  A    between atoms: C6_12  and  C33_55 
REMARK       I    between atoms: N3_13  and  C7_15 
REMARK    9  A    between atoms: C7_15  and  C8_17 
REMARK   10  A    between atoms: C8_17  and  C9_18 
REMARK   11  A    between atoms: C8_17  and  N4_22 
REMARK   12  A    between atoms: C9_18  and  C10_19 
REMARK       I    between atoms: N4_22  and  C13_24 
REMARK   13  A    between atoms: C13_24  and  C14_26 
REMARK   14  A    between atoms: N5_30  and  C18_31 
REMARK   15  A    between atoms: C18_31  and  O3_32 
REMARK   16  A    between atoms: C18_31  and  C19_34 
REMARK   17  A    between atoms: C19_34  and  N6_35 
REMARK   18  A    between atoms: C19_34  and  C30_52 
REMARK       I    between atoms: N6_35  and  C20_37 
REMARK   19  A    between atoms: C20_37  and  C21_39 
REMARK   20  A    between atoms: C21_39  and  N7_40 
REMARK   21  A    between atoms: C21_39  and  C27_49 
REMARK       I    between atoms: N7_40  and  C22_42 
REMARK   22  A    between atoms: C22_42  and  O6_44 
REMARK   23  A    between atoms: O6_44  and  C23_45 
ROOT
HETATM    1  C14 UNL     1      35.110  27.366  21.844  1.00  0.00     0.178 C 
HETATM    2  C15 UNL     1      35.074  27.796  23.342  1.00  0.00     0.037 C 
HETATM    3  C16 UNL     1      35.324  29.288  23.091  1.00  0.00     0.022 C 
HETATM    4  C17 UNL     1      36.306  29.317  21.984  1.00  0.00     0.126 C 
HETATM    5  N5  UNL     1      36.415  27.859  21.505  1.00  0.00    -0.350 N 
ENDROOT
BRANCH   1   6
HETATM    6  C13 UNL     1      34.072  28.253  21.183  1.00  0.00     0.241 C 
HETATM    7  N4  UNL     1      34.292  28.885  19.962  1.00  0.00    -0.346 N 
ATOM      8  H4  UNL     1      35.234  28.855  19.571  1.00  0.00     0.163 HD
HETATM    9  O2  UNL     1      33.021  28.321  21.822  1.00  0.00    -0.271 OA
BRANCH   7  10
HETATM   10  C8  UNL     1      33.269  29.582  19.213  1.00  0.00     0.177 C 
BRANCH  10  11
HETATM   11  C7  UNL     1      33.303  29.394  17.777  1.00  0.00     0.244 C 
HETATM   12  N3  UNL     1      34.504  29.494  17.065  1.00  0.00    -0.330 N 
ATOM     13  H3  UNL     1      35.209  29.780  17.745  1.00  0.00     0.168 HD
HETATM   14  O1  UNL     1      32.249  29.135  17.151  1.00  0.00    -0.271 OA
BRANCH  12  15
HETATM   15  C6  UNL     1      35.169  29.379  15.856  1.00  0.00     0.025 C 
BRANCH  15  16
HETATM   16  C5  UNL     1      34.989  28.221  14.995  1.00  0.00     0.246 C 
BRANCH  16  17
HETATM   17  C4  UNL     1      35.409  26.867  15.521  1.00  0.00     0.152 C 
BRANCH  17  18
HETATM   18  N1  UNL     1      34.935  25.721  14.822  1.00  0.00    -0.419 N 
ATOM     19  H1  UNL     1      34.580  25.827  13.872  1.00  0.00     0.153 HD
BRANCH  18  20
HETATM   20  C3  UNL     1      34.945  24.459  15.408  1.00  0.00     0.113 C 
BRANCH  20  21
HETATM   21  C2  UNL     1      34.873  23.362  14.319  1.00  0.00     0.015 C 
HETATM   22  C1  UNL     1      35.702  22.212  14.896  1.00  0.00     0.006 C 
ENDBRANCH  20  21
ENDBRANCH  18  20
ENDBRANCH  17  18
ENDBRANCH  16  17
BRANCH  16  23
HETATM   23  N2  UNL     1      33.625  28.058  14.561  1.00  0.00    -0.068 N 
ATOM     24  H23 UNL     1      33.092  28.928  14.550  1.00  0.00     0.275 HD
ATOM     25  H22 UNL     1      33.532  27.847  13.568  1.00  0.00     0.275 HD
ATOM     26  H21 UNL     1      33.229  27.343  15.171  1.00  0.00     0.275 HD
ENDBRANCH  16  23
ENDBRANCH  15  16
BRANCH  15  27
HETATM   27  C33 UNL     1      35.267  30.748  15.244  1.00  0.00     0.025 C 
HETATM   28  C34 UNL     1      34.074  31.650  15.338  1.00  0.00     0.016 C 
HETATM   29  C35 UNL     1      36.466  31.496  15.901  1.00  0.00     0.016 C 
ENDBRANCH  15  27
ENDBRANCH  12  15
ENDBRANCH  10  11
BRANCH  10  30
HETATM   30  C9  UNL     1      33.132  31.001  19.648  1.00  0.00     0.038 C 
BRANCH  30  31
HETATM   31  C10 UNL     1      31.789  31.646  19.693  1.00  0.00    -0.020 C 
HETATM   32  C11 UNL     1      31.228  32.293  18.508  1.00  0.00     0.009 C 
HETATM   33  C12 UNL     1      30.780  30.631  20.319  1.00  0.00     0.009 C 
ENDBRANCH  30  31
ENDBRANCH  10  30
ENDBRANCH   7  10
ENDBRANCH   1   6
BRANCH   5  34
HETATM   34  C18 UNL     1      37.651  27.469  21.043  1.00  0.00     0.138 C 
BRANCH  34  35
HETATM   35  O3  UNL     1      38.650  28.134  21.624  1.00  0.00    -0.348 OA
ATOM     36  H3  UNL     1      38.342  28.824  22.201  1.00  0.00     0.219 HD
ENDBRANCH  34  35
BRANCH  34  37
HETATM   37  C19 UNL     1      38.149  26.499  20.078  1.00  0.00     0.162 C 
BRANCH  37  38
HETATM   38  N6  UNL     1      37.114  25.445  19.965  1.00  0.00    -0.347 N 
HETATM   39  C20 UNL     1      37.049  24.267  20.717  1.00  0.00     0.241 C 
HETATM   40  O4  UNL     1      37.857  23.923  21.589  1.00  0.00    -0.271 OA
ATOM     41  H6  UNL     1      36.380  25.591  19.272  1.00  0.00     0.163 HD
BRANCH  39  42
HETATM   42  C21 UNL     1      35.859  23.363  20.386  1.00  0.00     0.182 C 
BRANCH  42  43
HETATM   43  N7  UNL     1      35.045  24.147  19.447  1.00  0.00    -0.323 N 
HETATM   44  C22 UNL     1      33.784  24.668  19.877  1.00  0.00     0.362 C 
HETATM   45  O5  UNL     1      33.368  24.396  21.051  1.00  0.00    -0.238 OA
ATOM     46  H7  UNL     1      35.376  24.318  18.497  1.00  0.00     0.165 HD
BRANCH  44  47
HETATM   47  O6  UNL     1      33.019  25.459  19.072  1.00  0.00    -0.294 OA
BRANCH  47  48
HETATM   48  C23 UNL     1      32.047  24.994  18.152  1.00  0.00     0.061 C 
HETATM   49  C24 UNL     1      32.196  23.535  17.800  1.00  0.00     0.046 C 
HETATM   50  C25 UNL     1      31.926  25.856  16.943  1.00  0.00     0.046 C 
HETATM   51  C26 UNL     1      30.692  25.070  18.902  1.00  0.00     0.046 C 
ENDBRANCH  47  48
ENDBRANCH  44  47
ENDBRANCH  42  43
BRANCH  42  52
HETATM   52  C27 UNL     1      36.417  22.169  19.653  1.00  0.00     0.009 C 
HETATM   53  C28 UNL     1      35.292  21.201  19.328  1.00  0.00     0.012 C 
HETATM   54  C29 UNL     1      37.079  22.610  18.354  1.00  0.00     0.012 C 
ENDBRANCH  42  52
ENDBRANCH  39  42
ENDBRANCH  37  38
BRANCH  37  55
HETATM   55  C30 UNL     1      38.450  26.953  18.692  1.00  0.00     0.008 C 
HETATM   56  C31 UNL     1      37.674  28.150  18.225  1.00  0.00     0.012 C 
HETATM   57  C32 UNL     1      39.878  26.888  18.290  1.00  0.00     0.012 C 
ENDBRANCH  37  55
ENDBRANCH  34  37
ENDBRANCH   5  34
TORSDOF 23
ENDMDL
