MODEL 1
REMARK VINA RESULT: -6.468299457      0.000      0.000
REMARK  18 active torsions:
REMARK  status: ('A' for Active; 'I' for Inactive)
REMARK    1  A    between atoms: C2_2  and  C4_4 
REMARK    2  A    between atoms: C4_4  and  N1_5 
REMARK    3  A    between atoms: N1_5  and  S1_7 
REMARK    4  A    between atoms: S1_7  and  N2_10 
REMARK    5  A    between atoms: N2_10  and  C5_12 
REMARK    6  A    between atoms: C5_12  and  C7_14 
REMARK       I    between atoms: C7_14  and  N3_16 
REMARK    7  A    between atoms: N3_16  and  N4_18 
REMARK    8  A    between atoms: N4_18  and  C9_20 
REMARK    9  A    between atoms: C9_20  and  C10_21 
REMARK   10  A    between atoms: C10_21  and  O4_22 
REMARK   11  A    between atoms: C10_21  and  C11_24 
REMARK   12  A    between atoms: C11_24  and  C12_25 
REMARK   13  A    between atoms: C11_24  and  N5_32 
REMARK   14  A    between atoms: C12_25  and  C13_26 
REMARK       I    between atoms: N5_32  and  C19_34 
REMARK   15  A    between atoms: C19_34  and  C20_36 
REMARK   16  A    between atoms: C20_36  and  C21_37 
REMARK   17  A    between atoms: C20_36  and  N6_44 
REMARK       I    between atoms: N6_44  and  C28_46 
REMARK   18  A    between atoms: C28_46  and  C29_48 
ROOT
HETATM    1  C11 UNL     1      33.925  29.740  19.941  1.00  0.00     0.143 C 
ENDROOT
BRANCH   1   2
HETATM    2  C10 UNL     1      35.163  29.995  20.760  1.00  0.00     0.083 C 
BRANCH   2   3
HETATM    3  C9  UNL     1      35.589  29.038  21.791  1.00  0.00     0.143 C 
BRANCH   3   4
HETATM    4  N4  UNL     1      36.434  27.972  21.594  1.00  0.00    -0.303 N 
HETATM    5  C8  UNL     1      36.275  26.755  22.309  1.00  0.00     0.177 C 
BRANCH   4   6
HETATM    6  N3  UNL     1      36.921  27.664  20.337  1.00  0.00    -0.267 N 
HETATM    7  C7  UNL     1      38.280  27.775  19.976  1.00  0.00     0.259 C 
HETATM    8  O3  UNL     1      39.148  28.168  20.751  1.00  0.00    -0.269 OA
ATOM      9  H3  UNL     1      36.261  27.337  19.631  1.00  0.00     0.190 HD
BRANCH   7  10
HETATM   10  C5  UNL     1      38.732  27.401  18.580  1.00  0.00     0.184 C 
HETATM   11  C6  UNL     1      39.749  26.296  18.586  1.00  0.00     0.043 C 
BRANCH  10  12
HETATM   12  N2  UNL     1      37.620  27.038  17.762  1.00  0.00    -0.289 N 
ATOM     13  H2  UNL     1      37.185  26.116  17.808  1.00  0.00     0.174 HD
BRANCH  12  14
HETATM   14  S1  UNL     1      37.075  28.251  16.708  1.00  0.00     0.315 S 
HETATM   15  O1  UNL     1      36.778  29.487  17.544  1.00  0.00    -0.183 OA
HETATM   16  O2  UNL     1      38.162  28.656  15.720  1.00  0.00    -0.183 OA
BRANCH  14  17
HETATM   17  N1  UNL     1      35.654  27.892  15.840  1.00  0.00    -0.302 N 
ATOM     18  H1  UNL     1      35.233  26.964  15.793  1.00  0.00     0.173 HD
BRANCH  17  19
HETATM   19  C4  UNL     1      35.111  29.068  15.173  1.00  0.00     0.137 C 
BRANCH  19  20
HETATM   20  C2  UNL     1      33.883  29.582  15.867  1.00  0.00    -0.004 C 
HETATM   21  C1  UNL     1      32.610  29.038  15.285  1.00  0.00     0.011 C 
HETATM   22  C3  UNL     1      33.855  31.107  15.739  1.00  0.00     0.011 C 
ENDBRANCH  19  20
ENDBRANCH  17  19
ENDBRANCH  14  17
ENDBRANCH  12  14
ENDBRANCH  10  12
ENDBRANCH   7  10
ENDBRANCH   4   6
ENDBRANCH   3   4
ENDBRANCH   2   3
BRANCH   2  23
HETATM   23  O4  UNL     1      36.196  30.637  20.108  1.00  0.00    -0.361 OA
ATOM     24  H4  UNL     1      36.888  30.064  19.800  1.00  0.00     0.217 HD
ENDBRANCH   2  23
ENDBRANCH   1   2
BRANCH   1  25
HETATM   25  C12 UNL     1      33.414  30.996  19.415  1.00  0.00     0.036 C 
BRANCH  25  26
HETATM   26  C13 UNL     1      32.113  31.548  19.862  1.00  0.00    -0.012 C 
HETATM   27  C14 UNL     1      31.253  32.151  18.807  1.00  0.00     0.005 C 
HETATM   28  C15 UNL     1      30.730  31.146  17.799  1.00  0.00     0.000 C 
HETATM   29  C16 UNL     1      29.735  30.250  18.507  1.00  0.00     0.000 C 
HETATM   30  C17 UNL     1      29.874  30.390  19.987  1.00  0.00     0.000 C 
HETATM   31  C18 UNL     1      31.283  30.428  20.495  1.00  0.00     0.005 C 
ENDBRANCH  25  26
ENDBRANCH   1  25
BRANCH   1  32
HETATM   32  N5  UNL     1      34.183  28.619  19.120  1.00  0.00    -0.348 N 
HETATM   33  C19 UNL     1      33.643  27.310  19.333  1.00  0.00     0.244 C 
HETATM   34  O5  UNL     1      32.862  27.223  20.344  1.00  0.00    -0.271 OA
ATOM     35  H5  UNL     1      34.798  28.751  18.317  1.00  0.00     0.163 HD
BRANCH  33  36
HETATM   36  C20 UNL     1      33.931  26.130  18.508  1.00  0.00     0.200 C 
BRANCH  36  37
HETATM   37  C21 UNL     1      33.163  25.878  17.309  1.00  0.00     0.010 C 
HETATM   38  C22 UNL     1      31.750  25.602  17.187  1.00  0.00    -0.081 C 
HETATM   39  C23 UNL     1      30.711  26.555  17.640  1.00  0.00     0.034 C 
HETATM   40  C27 UNL     1      31.350  24.158  17.529  1.00  0.00     0.034 C 
HETATM   41  C24 UNL     1      29.811  25.991  18.730  1.00  0.00     0.004 C 
HETATM   42  C25 UNL     1      29.129  24.724  18.321  1.00  0.00     0.001 C 
HETATM   43  C26 UNL     1      29.861  24.088  17.157  1.00  0.00     0.004 C 
ENDBRANCH  36  37
BRANCH  36  44
HETATM   44  N6  UNL     1      34.071  24.978  19.391  1.00  0.00    -0.339 N 
HETATM   45  C28 UNL     1      35.294  24.335  19.676  1.00  0.00     0.276 C 
HETATM   46  O6  UNL     1      36.336  24.780  19.146  1.00  0.00    -0.265 OA
ATOM     47  H6  UNL     1      33.227  24.611  19.832  1.00  0.00     0.164 HD
BRANCH  45  48
HETATM   48  C29 UNL     1      35.380  23.183  20.557  1.00  0.00     0.142 A 
HETATM   49  C30 UNL     1      34.706  21.993  20.422  1.00  0.00     0.045 A 
HETATM   50  C31 UNL     1      35.077  21.181  21.471  1.00  0.00     0.027 A 
HETATM   51  C32 UNL     1      35.972  21.927  22.204  1.00  0.00     0.143 A 
HETATM   52  O7  UNL     1      36.124  23.080  21.645  1.00  0.00    -0.317 OA
ENDBRANCH  45  48
ENDBRANCH  36  44
ENDBRANCH  33  36
ENDBRANCH   1  32
TORSDOF 18
ENDMDL
MODEL 2
REMARK VINA RESULT: -6.317978113      2.164      5.215
REMARK  18 active torsions:
REMARK  status: ('A' for Active; 'I' for Inactive)
REMARK    1  A    between atoms: C2_2  and  C4_4 
REMARK    2  A    between atoms: C4_4  and  N1_5 
REMARK    3  A    between atoms: N1_5  and  S1_7 
REMARK    4  A    between atoms: S1_7  and  N2_10 
REMARK    5  A    between atoms: N2_10  and  C5_12 
REMARK    6  A    between atoms: C5_12  and  C7_14 
REMARK       I    between atoms: C7_14  and  N3_16 
REMARK    7  A    between atoms: N3_16  and  N4_18 
REMARK    8  A    between atoms: N4_18  and  C9_20 
REMARK    9  A    between atoms: C9_20  and  C10_21 
REMARK   10  A    between atoms: C10_21  and  O4_22 
REMARK   11  A    between atoms: C10_21  and  C11_24 
REMARK   12  A    between atoms: C11_24  and  C12_25 
REMARK   13  A    between atoms: C11_24  and  N5_32 
REMARK   14  A    between atoms: C12_25  and  C13_26 
REMARK       I    between atoms: N5_32  and  C19_34 
REMARK   15  A    between atoms: C19_34  and  C20_36 
REMARK   16  A    between atoms: C20_36  and  C21_37 
REMARK   17  A    between atoms: C20_36  and  N6_44 
REMARK       I    between atoms: N6_44  and  C28_46 
REMARK   18  A    between atoms: C28_46  and  C29_48 
ROOT
HETATM    1  C11 UNL     1      33.904  29.774  19.597  1.00  0.00     0.143 C 
ENDROOT
BRANCH   1   2
HETATM    2  C10 UNL     1      35.120  29.882  20.478  1.00  0.00     0.083 C 
BRANCH   2   3
HETATM    3  C9  UNL     1      35.097  29.363  21.853  1.00  0.00     0.143 C 
BRANCH   3   4
HETATM    4  N4  UNL     1      35.703  28.207  22.283  1.00  0.00    -0.303 N 
HETATM    5  C8  UNL     1      35.493  27.700  23.593  1.00  0.00     0.177 C 
BRANCH   4   6
HETATM    6  N3  UNL     1      35.877  27.128  21.435  1.00  0.00    -0.267 N 
HETATM    7  C7  UNL     1      37.113  26.784  20.850  1.00  0.00     0.259 C 
HETATM    8  O3  UNL     1      38.144  27.424  21.039  1.00  0.00    -0.269 OA
ATOM      9  H3  UNL     1      35.065  26.548  21.221  1.00  0.00     0.190 HD
BRANCH   7  10
HETATM   10  C5  UNL     1      37.219  25.575  19.944  1.00  0.00     0.184 C 
HETATM   11  C6  UNL     1      38.026  25.858  18.709  1.00  0.00     0.043 C 
BRANCH  10  12
HETATM   12  N2  UNL     1      37.768  24.458  20.642  1.00  0.00    -0.289 N 
ATOM     13  H2  UNL     1      38.771  24.275  20.679  1.00  0.00     0.174 HD
BRANCH  12  14
HETATM   14  S1  UNL     1      36.631  23.457  21.406  1.00  0.00     0.315 S 
HETATM   15  O1  UNL     1      37.031  23.341  22.870  1.00  0.00    -0.183 OA
HETATM   16  O2  UNL     1      35.243  24.085  21.392  1.00  0.00    -0.183 OA
BRANCH  14  17
HETATM   17  N1  UNL     1      36.519  21.869  20.800  1.00  0.00    -0.302 N 
ATOM     18  H1  UNL     1      37.290  21.374  20.352  1.00  0.00     0.173 HD
BRANCH  17  19
HETATM   19  C4  UNL     1      35.191  21.302  20.998  1.00  0.00     0.137 C 
BRANCH  19  20
HETATM   20  C2  UNL     1      34.498  21.043  19.691  1.00  0.00    -0.004 C 
HETATM   21  C1  UNL     1      33.780  19.724  19.660  1.00  0.00     0.011 C 
HETATM   22  C3  UNL     1      35.546  21.045  18.576  1.00  0.00     0.011 C 
ENDBRANCH  19  20
ENDBRANCH  17  19
ENDBRANCH  14  17
ENDBRANCH  12  14
ENDBRANCH  10  12
ENDBRANCH   7  10
ENDBRANCH   4   6
ENDBRANCH   3   4
ENDBRANCH   2   3
BRANCH   2  23
HETATM   23  O4  UNL     1      36.340  29.770  19.840  1.00  0.00    -0.361 OA
ATOM     24  H4  UNL     1      36.804  28.959  20.013  1.00  0.00     0.217 HD
ENDBRANCH   2  23
ENDBRANCH   1   2
BRANCH   1  25
HETATM   25  C12 UNL     1      33.431  31.104  19.244  1.00  0.00     0.036 C 
BRANCH  25  26
HETATM   26  C13 UNL     1      32.152  31.634  19.774  1.00  0.00    -0.012 C 
HETATM   27  C14 UNL     1      31.201  32.188  18.772  1.00  0.00     0.005 C 
HETATM   28  C15 UNL     1      30.632  31.145  17.830  1.00  0.00     0.000 C 
HETATM   29  C16 UNL     1      29.716  30.241  18.631  1.00  0.00     0.000 C 
HETATM   30  C17 UNL     1      29.960  30.423  20.092  1.00  0.00     0.000 C 
HETATM   31  C18 UNL     1      31.402  30.509  20.493  1.00  0.00     0.005 C 
ENDBRANCH  25  26
ENDBRANCH   1  25
BRANCH   1  32
HETATM   32  N5  UNL     1      34.168  28.778  18.629  1.00  0.00    -0.348 N 
HETATM   33  C19 UNL     1      33.774  27.406  18.743  1.00  0.00     0.244 C 
HETATM   34  O5  UNL     1      33.122  27.134  19.810  1.00  0.00    -0.271 OA
ATOM     35  H5  UNL     1      34.676  29.056  17.790  1.00  0.00     0.163 HD
BRANCH  33  36
HETATM   36  C20 UNL     1      34.073  26.355  17.762  1.00  0.00     0.200 C 
BRANCH  36  37
HETATM   37  C21 UNL     1      34.105  24.969  18.171  1.00  0.00     0.010 C 
HETATM   38  C22 UNL     1      33.590  23.813  17.473  1.00  0.00    -0.081 C 
HETATM   39  C23 UNL     1      34.069  23.415  16.129  1.00  0.00     0.034 C 
HETATM   40  C27 UNL     1      32.070  23.623  17.589  1.00  0.00     0.034 C 
HETATM   41  C24 UNL     1      32.971  23.420  15.075  1.00  0.00     0.004 C 
HETATM   42  C25 UNL     1      31.817  22.538  15.435  1.00  0.00     0.001 C 
HETATM   43  C26 UNL     1      31.815  22.261  16.924  1.00  0.00     0.004 C 
ENDBRANCH  36  37
BRANCH  36  44
HETATM   44  N6  UNL     1      35.222  26.780  16.971  1.00  0.00    -0.339 N 
HETATM   45  C28 UNL     1      35.199  26.987  15.576  1.00  0.00     0.276 C 
HETATM   46  O6  UNL     1      34.123  26.802  14.966  1.00  0.00    -0.265 OA
ATOM     47  H6  UNL     1      36.103  26.939  17.461  1.00  0.00     0.164 HD
BRANCH  45  48
HETATM   48  C29 UNL     1      36.376  27.403  14.832  1.00  0.00     0.142 A 
HETATM   49  C30 UNL     1      36.726  27.011  13.562  1.00  0.00     0.045 A 
HETATM   50  C31 UNL     1      37.910  27.638  13.242  1.00  0.00     0.027 A 
HETATM   51  C32 UNL     1      38.227  28.392  14.350  1.00  0.00     0.143 A 
HETATM   52  O7  UNL     1      37.317  28.232  15.250  1.00  0.00    -0.317 OA
ENDBRANCH  45  48
ENDBRANCH  36  44
ENDBRANCH  33  36
ENDBRANCH   1  32
TORSDOF 18
ENDMDL
MODEL 3
REMARK VINA RESULT: -6.257981073      2.856      7.389
REMARK  18 active torsions:
REMARK  status: ('A' for Active; 'I' for Inactive)
REMARK    1  A    between atoms: C2_2  and  C4_4 
REMARK    2  A    between atoms: C4_4  and  N1_5 
REMARK    3  A    between atoms: N1_5  and  S1_7 
REMARK    4  A    between atoms: S1_7  and  N2_10 
REMARK    5  A    between atoms: N2_10  and  C5_12 
REMARK    6  A    between atoms: C5_12  and  C7_14 
REMARK       I    between atoms: C7_14  and  N3_16 
REMARK    7  A    between atoms: N3_16  and  N4_18 
REMARK    8  A    between atoms: N4_18  and  C9_20 
REMARK    9  A    between atoms: C9_20  and  C10_21 
REMARK   10  A    between atoms: C10_21  and  O4_22 
REMARK   11  A    between atoms: C10_21  and  C11_24 
REMARK   12  A    between atoms: C11_24  and  C12_25 
REMARK   13  A    between atoms: C11_24  and  N5_32 
REMARK   14  A    between atoms: C12_25  and  C13_26 
REMARK       I    between atoms: N5_32  and  C19_34 
REMARK   15  A    between atoms: C19_34  and  C20_36 
REMARK   16  A    between atoms: C20_36  and  C21_37 
REMARK   17  A    between atoms: C20_36  and  N6_44 
REMARK       I    between atoms: N6_44  and  C28_46 
REMARK   18  A    between atoms: C28_46  and  C29_48 
ROOT
HETATM    1  C11 UNL     1      33.333  27.982  20.379  1.00  0.00     0.143 C 
ENDROOT
BRANCH   1   2
HETATM    2  C10 UNL     1      32.893  26.550  20.223  1.00  0.00     0.083 C 
BRANCH   2   3
HETATM    3  C9  UNL     1      32.997  25.872  18.923  1.00  0.00     0.143 C 
BRANCH   3   4
HETATM    4  N4  UNL     1      33.918  24.908  18.593  1.00  0.00    -0.303 N 
HETATM    5  C8  UNL     1      34.708  25.005  17.416  1.00  0.00     0.177 C 
BRANCH   4   6
HETATM    6  N3  UNL     1      34.680  24.280  19.562  1.00  0.00    -0.267 N 
HETATM    7  C7  UNL     1      34.662  22.888  19.790  1.00  0.00     0.259 C 
HETATM    8  O3  UNL     1      33.957  22.114  19.149  1.00  0.00    -0.269 OA
ATOM      9  H3  UNL     1      35.288  24.855  20.145  1.00  0.00     0.190 HD
BRANCH   7  10
HETATM   10  C5  UNL     1      35.540  22.279  20.864  1.00  0.00     0.184 C 
HETATM   11  C6  UNL     1      34.954  21.018  21.431  1.00  0.00     0.043 C 
BRANCH  10  12
HETATM   12  N2  UNL     1      36.854  22.028  20.368  1.00  0.00    -0.289 N 
ATOM     13  H2  UNL     1      37.125  21.131  19.965  1.00  0.00     0.174 HD
BRANCH  12  14
HETATM   14  S1  UNL     1      37.934  23.331  20.500  1.00  0.00     0.315 S 
HETATM   15  O1  UNL     1      37.370  24.292  21.536  1.00  0.00    -0.183 OA
HETATM   16  O2  UNL     1      39.288  22.876  21.032  1.00  0.00    -0.183 OA
BRANCH  14  17
HETATM   17  N1  UNL     1      38.181  24.232  19.077  1.00  0.00    -0.302 N 
ATOM     18  H1  UNL     1      38.533  23.837  18.205  1.00  0.00     0.173 HD
BRANCH  17  19
HETATM   19  C4  UNL     1      37.828  25.636  19.253  1.00  0.00     0.137 C 
BRANCH  19  20
HETATM   20  C2  UNL     1      38.450  26.501  18.196  1.00  0.00    -0.004 C 
HETATM   21  C1  UNL     1      39.619  27.296  18.702  1.00  0.00     0.011 C 
HETATM   22  C3  UNL     1      37.392  27.479  17.682  1.00  0.00     0.011 C 
ENDBRANCH  19  20
ENDBRANCH  17  19
ENDBRANCH  14  17
ENDBRANCH  12  14
ENDBRANCH  10  12
ENDBRANCH   7  10
ENDBRANCH   4   6
ENDBRANCH   3   4
ENDBRANCH   2   3
BRANCH   2  23
HETATM   23  O4  UNL     1      33.100  25.733  21.317  1.00  0.00    -0.361 OA
ATOM     24  H4  UNL     1      33.318  26.192  22.120  1.00  0.00     0.217 HD
ENDBRANCH   2  23
ENDBRANCH   1   2
BRANCH   1  25
HETATM   25  C12 UNL     1      34.778  28.073  20.235  1.00  0.00     0.036 C 
BRANCH  25  26
HETATM   26  C13 UNL     1      35.578  29.004  21.065  1.00  0.00    -0.012 C 
HETATM   27  C14 UNL     1      35.096  29.233  22.454  1.00  0.00     0.005 C 
HETATM   28  C15 UNL     1      35.194  28.009  23.343  1.00  0.00     0.000 C 
HETATM   29  C16 UNL     1      36.662  27.726  23.589  1.00  0.00     0.000 C 
HETATM   30  C17 UNL     1      37.504  28.475  22.609  1.00  0.00     0.000 C 
HETATM   31  C18 UNL     1      37.004  28.461  21.196  1.00  0.00     0.005 C 
ENDBRANCH  25  26
ENDBRANCH   1  25
BRANCH   1  32
HETATM   32  N5  UNL     1      32.441  28.783  19.630  1.00  0.00    -0.348 N 
HETATM   33  C19 UNL     1      31.575  29.779  20.187  1.00  0.00     0.244 C 
HETATM   34  O5  UNL     1      31.682  29.916  21.456  1.00  0.00    -0.271 OA
ATOM     35  H5  UNL     1      32.411  28.643  18.621  1.00  0.00     0.163 HD
BRANCH  33  36
HETATM   36  C20 UNL     1      30.619  30.593  19.425  1.00  0.00     0.200 C 
BRANCH  36  37
HETATM   37  C21 UNL     1      31.069  31.777  18.728  1.00  0.00     0.010 C 
HETATM   38  C22 UNL     1      31.535  31.895  17.365  1.00  0.00    -0.081 C 
HETATM   39  C23 UNL     1      30.689  31.544  16.201  1.00  0.00     0.034 C 
HETATM   40  C27 UNL     1      32.984  31.435  17.144  1.00  0.00     0.034 C 
HETATM   41  C24 UNL     1      31.270  30.422  15.352  1.00  0.00     0.004 C 
HETATM   42  C25 UNL     1      32.646  30.729  14.848  1.00  0.00     0.001 C 
HETATM   43  C26 UNL     1      33.278  31.822  15.686  1.00  0.00     0.004 C 
ENDBRANCH  36  37
BRANCH  36  44
HETATM   44  N6  UNL     1      29.429  30.788  20.245  1.00  0.00    -0.339 N 
HETATM   45  C28 UNL     1      28.107  30.626  19.783  1.00  0.00     0.276 C 
HETATM   46  O6  UNL     1      27.930  30.286  18.593  1.00  0.00    -0.265 OA
ATOM     47  H6  UNL     1      29.563  31.060  21.219  1.00  0.00     0.164 HD
BRANCH  45  48
HETATM   48  C29 UNL     1      26.952  30.843  20.639  1.00  0.00     0.142 A 
HETATM   49  C30 UNL     1      25.724  31.327  20.256  1.00  0.00     0.045 A 
HETATM   50  C31 UNL     1      24.925  31.374  21.377  1.00  0.00     0.027 A 
HETATM   51  C32 UNL     1      25.717  30.909  22.403  1.00  0.00     0.143 A 
HETATM   52  O7  UNL     1      26.883  30.610  21.939  1.00  0.00    -0.317 OA
ENDBRANCH  45  48
ENDBRANCH  36  44
ENDBRANCH  33  36
ENDBRANCH   1  32
TORSDOF 18
ENDMDL
MODEL 4
REMARK VINA RESULT: -6.108352910      2.341      4.195
REMARK  18 active torsions:
REMARK  status: ('A' for Active; 'I' for Inactive)
REMARK    1  A    between atoms: C2_2  and  C4_4 
REMARK    2  A    between atoms: C4_4  and  N1_5 
REMARK    3  A    between atoms: N1_5  and  S1_7 
REMARK    4  A    between atoms: S1_7  and  N2_10 
REMARK    5  A    between atoms: N2_10  and  C5_12 
REMARK    6  A    between atoms: C5_12  and  C7_14 
REMARK       I    between atoms: C7_14  and  N3_16 
REMARK    7  A    between atoms: N3_16  and  N4_18 
REMARK    8  A    between atoms: N4_18  and  C9_20 
REMARK    9  A    between atoms: C9_20  and  C10_21 
REMARK   10  A    between atoms: C10_21  and  O4_22 
REMARK   11  A    between atoms: C10_21  and  C11_24 
REMARK   12  A    between atoms: C11_24  and  C12_25 
REMARK   13  A    between atoms: C11_24  and  N5_32 
REMARK   14  A    between atoms: C12_25  and  C13_26 
REMARK       I    between atoms: N5_32  and  C19_34 
REMARK   15  A    between atoms: C19_34  and  C20_36 
REMARK   16  A    between atoms: C20_36  and  C21_37 
REMARK   17  A    between atoms: C20_36  and  N6_44 
REMARK       I    between atoms: N6_44  and  C28_46 
REMARK   18  A    between atoms: C28_46  and  C29_48 
ROOT
HETATM    1  C11 UNL     1      34.867  28.112  21.976  1.00  0.00     0.143 C 
ENDROOT
BRANCH   1   2
HETATM    2  C10 UNL     1      36.133  28.464  22.712  1.00  0.00     0.083 C 
BRANCH   2   3
HETATM    3  C9  UNL     1      37.435  27.971  22.241  1.00  0.00     0.143 C 
BRANCH   3   4
HETATM    4  N4  UNL     1      38.228  28.579  21.298  1.00  0.00    -0.303 N 
HETATM    5  C8  UNL     1      39.621  28.765  21.506  1.00  0.00     0.177 C 
BRANCH   4   6
HETATM    6  N3  UNL     1      38.026  28.369  19.945  1.00  0.00    -0.267 N 
HETATM    7  C7  UNL     1      37.408  29.306  19.092  1.00  0.00     0.259 C 
HETATM    8  O3  UNL     1      36.984  30.390  19.484  1.00  0.00    -0.269 OA
ATOM      9  H3  UNL     1      38.344  27.487  19.542  1.00  0.00     0.190 HD
BRANCH   7  10
HETATM   10  C5  UNL     1      37.240  29.002  17.618  1.00  0.00     0.184 C 
HETATM   11  C6  UNL     1      37.799  27.659  17.246  1.00  0.00     0.043 C 
BRANCH  10  12
HETATM   12  N2  UNL     1      35.869  29.085  17.232  1.00  0.00    -0.289 N 
ATOM     13  H2  UNL     1      35.153  28.470  17.620  1.00  0.00     0.174 HD
BRANCH  12  14
HETATM   14  S1  UNL     1      35.517  30.280  16.079  1.00  0.00     0.315 S 
HETATM   15  O1  UNL     1      36.234  31.553  16.505  1.00  0.00    -0.183 OA
HETATM   16  O2  UNL     1      36.077  29.912  14.711  1.00  0.00    -0.183 OA
BRANCH  14  17
HETATM   17  N1  UNL     1      33.870  30.678  15.907  1.00  0.00    -0.302 N 
ATOM     18  H1  UNL     1      33.105  30.107  16.264  1.00  0.00     0.173 HD
BRANCH  17  19
HETATM   19  C4  UNL     1      33.685  31.933  15.190  1.00  0.00     0.137 C 
BRANCH  19  20
HETATM   20  C2  UNL     1      32.410  32.618  15.589  1.00  0.00    -0.004 C 
HETATM   21  C1  UNL     1      31.207  31.726  15.480  1.00  0.00     0.011 C 
HETATM   22  C3  UNL     1      32.197  33.824  14.671  1.00  0.00     0.011 C 
ENDBRANCH  19  20
ENDBRANCH  17  19
ENDBRANCH  14  17
ENDBRANCH  12  14
ENDBRANCH  10  12
ENDBRANCH   7  10
ENDBRANCH   4   6
ENDBRANCH   3   4
ENDBRANCH   2   3
BRANCH   2  23
HETATM   23  O4  UNL     1      36.166  29.718  23.290  1.00  0.00    -0.361 OA
ATOM     24  H4  UNL     1      36.828  29.826  23.964  1.00  0.00     0.217 HD
ENDBRANCH   2  23
ENDBRANCH   1   2
BRANCH   1  25
HETATM   25  C12 UNL     1      34.229  29.324  21.485  1.00  0.00     0.036 C 
BRANCH  25  26
HETATM   26  C13 UNL     1      33.599  29.376  20.145  1.00  0.00    -0.012 C 
HETATM   27  C14 UNL     1      32.169  28.969  20.070  1.00  0.00     0.005 C 
HETATM   28  C15 UNL     1      31.228  29.914  20.791  1.00  0.00     0.000 C 
HETATM   29  C16 UNL     1      31.198  31.219  20.022  1.00  0.00     0.000 C 
HETATM   30  C17 UNL     1      32.346  31.284  19.069  1.00  0.00     0.000 C 
HETATM   31  C18 UNL     1      33.658  30.812  19.617  1.00  0.00     0.005 C 
ENDBRANCH  25  26
ENDBRANCH   1  25
BRANCH   1  32
HETATM   32  N5  UNL     1      35.156  27.011  21.138  1.00  0.00    -0.348 N 
HETATM   33  C19 UNL     1      34.457  25.761  21.164  1.00  0.00     0.244 C 
HETATM   34  O5  UNL     1      33.501  25.713  22.014  1.00  0.00    -0.271 OA
ATOM     35  H5  UNL     1      35.917  27.112  20.468  1.00  0.00     0.163 HD
BRANCH  33  36
HETATM   36  C20 UNL     1      34.770  24.598  20.324  1.00  0.00     0.200 C 
BRANCH  36  37
HETATM   37  C21 UNL     1      35.673  23.578  20.806  1.00  0.00     0.010 C 
HETATM   38  C22 UNL     1      35.615  22.150  20.590  1.00  0.00    -0.081 C 
HETATM   39  C23 UNL     1      35.670  21.546  19.239  1.00  0.00     0.034 C 
HETATM   40  C27 UNL     1      34.599  21.412  21.476  1.00  0.00     0.034 C 
HETATM   41  C24 UNL     1      34.425  20.742  18.889  1.00  0.00     0.004 C 
HETATM   42  C25 UNL     1      34.143  19.651  19.873  1.00  0.00     0.001 C 
HETATM   43  C26 UNL     1      34.858  19.927  21.180  1.00  0.00     0.004 C 
ENDBRANCH  36  37
BRANCH  36  44
HETATM   44  N6  UNL     1      35.054  25.072  18.974  1.00  0.00    -0.339 N 
HETATM   45  C28 UNL     1      34.309  24.719  17.831  1.00  0.00     0.276 C 
HETATM   46  O6  UNL     1      33.330  23.952  17.973  1.00  0.00    -0.265 OA
ATOM     47  H6  UNL     1      35.847  25.702  18.849  1.00  0.00     0.164 HD
BRANCH  45  48
HETATM   48  C29 UNL     1      34.640  25.211  16.504  1.00  0.00     0.142 A 
HETATM   49  C30 UNL     1      34.895  24.453  15.386  1.00  0.00     0.045 A 
HETATM   50  C31 UNL     1      35.165  25.317  14.348  1.00  0.00     0.027 A 
HETATM   51  C32 UNL     1      35.059  26.577  14.893  1.00  0.00     0.143 A 
HETATM   52  O7  UNL     1      34.753  26.477  16.142  1.00  0.00    -0.317 OA
ENDBRANCH  45  48
ENDBRANCH  36  44
ENDBRANCH  33  36
ENDBRANCH   1  32
TORSDOF 18
ENDMDL
MODEL 5
REMARK VINA RESULT: -6.097706801      2.426      5.618
REMARK  18 active torsions:
REMARK  status: ('A' for Active; 'I' for Inactive)
REMARK    1  A    between atoms: C2_2  and  C4_4 
REMARK    2  A    between atoms: C4_4  and  N1_5 
REMARK    3  A    between atoms: N1_5  and  S1_7 
REMARK    4  A    between atoms: S1_7  and  N2_10 
REMARK    5  A    between atoms: N2_10  and  C5_12 
REMARK    6  A    between atoms: C5_12  and  C7_14 
REMARK       I    between atoms: C7_14  and  N3_16 
REMARK    7  A    between atoms: N3_16  and  N4_18 
REMARK    8  A    between atoms: N4_18  and  C9_20 
REMARK    9  A    between atoms: C9_20  and  C10_21 
REMARK   10  A    between atoms: C10_21  and  O4_22 
REMARK   11  A    between atoms: C10_21  and  C11_24 
REMARK   12  A    between atoms: C11_24  and  C12_25 
REMARK   13  A    between atoms: C11_24  and  N5_32 
REMARK   14  A    between atoms: C12_25  and  C13_26 
REMARK       I    between atoms: N5_32  and  C19_34 
REMARK   15  A    between atoms: C19_34  and  C20_36 
REMARK   16  A    between atoms: C20_36  and  C21_37 
REMARK   17  A    between atoms: C20_36  and  N6_44 
REMARK       I    between atoms: N6_44  and  C28_46 
REMARK   18  A    between atoms: C28_46  and  C29_48 
ROOT
HETATM    1  C11 UNL     1      30.512  28.476  18.289  1.00  0.00     0.143 C 
ENDROOT
BRANCH   1   2
HETATM    2  C10 UNL     1      29.522  27.454  17.798  1.00  0.00     0.083 C 
BRANCH   2   3
HETATM    3  C9  UNL     1      29.618  26.913  16.434  1.00  0.00     0.143 C 
BRANCH   3   4
HETATM    4  N4  UNL     1      29.871  25.603  16.108  1.00  0.00    -0.303 N 
HETATM    5  C8  UNL     1      29.163  24.945  15.067  1.00  0.00     0.177 C 
BRANCH   4   6
HETATM    6  N3  UNL     1      31.156  25.090  16.134  1.00  0.00    -0.267 N 
HETATM    7  C7  UNL     1      31.743  24.511  17.278  1.00  0.00     0.259 C 
HETATM    8  O3  UNL     1      31.162  24.421  18.356  1.00  0.00    -0.269 OA
ATOM      9  H3  UNL     1      31.709  25.134  15.278  1.00  0.00     0.190 HD
BRANCH   7  10
HETATM   10  C5  UNL     1      33.152  23.959  17.216  1.00  0.00     0.184 C 
HETATM   11  C6  UNL     1      33.242  22.563  17.761  1.00  0.00     0.043 C 
BRANCH  10  12
HETATM   12  N2  UNL     1      33.658  23.997  15.882  1.00  0.00    -0.289 N 
ATOM     13  H2  UNL     1      33.482  23.251  15.209  1.00  0.00     0.174 HD
BRANCH  12  14
HETATM   14  S1  UNL     1      34.575  25.373  15.498  1.00  0.00     0.315 S 
HETATM   15  O1  UNL     1      35.636  24.953  14.492  1.00  0.00    -0.183 OA
HETATM   16  O2  UNL     1      33.723  26.429  14.805  1.00  0.00    -0.183 OA
BRANCH  14  17
HETATM   17  N1  UNL     1      35.394  26.101  16.802  1.00  0.00    -0.302 N 
ATOM     18  H1  UNL     1      35.357  25.760  17.762  1.00  0.00     0.173 HD
BRANCH  17  19
HETATM   19  C4  UNL     1      36.157  27.270  16.381  1.00  0.00     0.137 C 
BRANCH  19  20
HETATM   20  C2  UNL     1      36.746  27.999  17.554  1.00  0.00    -0.004 C 
HETATM   21  C1  UNL     1      36.633  29.492  17.432  1.00  0.00     0.011 C 
HETATM   22  C3  UNL     1      38.229  27.637  17.657  1.00  0.00     0.011 C 
ENDBRANCH  19  20
ENDBRANCH  17  19
ENDBRANCH  14  17
ENDBRANCH  12  14
ENDBRANCH  10  12
ENDBRANCH   7  10
ENDBRANCH   4   6
ENDBRANCH   3   4
ENDBRANCH   2   3
BRANCH   2  23
HETATM   23  O4  UNL     1      29.061  26.557  18.742  1.00  0.00    -0.361 OA
ATOM     24  H4  UNL     1      29.708  26.293  19.386  1.00  0.00     0.217 HD
ENDBRANCH   2  23
ENDBRANCH   1   2
BRANCH   1  25
HETATM   25  C12 UNL     1      29.900  29.796  18.287  1.00  0.00     0.036 C 
BRANCH  25  26
HETATM   26  C13 UNL     1      30.644  30.991  17.825  1.00  0.00    -0.012 C 
HETATM   27  C14 UNL     1      31.187  31.883  18.886  1.00  0.00     0.005 C 
HETATM   28  C15 UNL     1      32.287  31.246  19.713  1.00  0.00     0.000 C 
HETATM   29  C16 UNL     1      33.502  31.080  18.824  1.00  0.00     0.000 C 
HETATM   30  C17 UNL     1      33.118  31.231  17.390  1.00  0.00     0.000 C 
HETATM   31  C18 UNL     1      31.848  30.543  16.992  1.00  0.00     0.005 C 
ENDBRANCH  25  26
ENDBRANCH   1  25
BRANCH   1  32
HETATM   32  N5  UNL     1      31.152  27.935  19.427  1.00  0.00    -0.348 N 
HETATM   33  C19 UNL     1      32.505  27.469  19.457  1.00  0.00     0.244 C 
HETATM   34  O5  UNL     1      33.130  27.600  18.347  1.00  0.00    -0.271 OA
ATOM     35  H5  UNL     1      30.611  27.871  20.289  1.00  0.00     0.163 HD
BRANCH  33  36
HETATM   36  C20 UNL     1      33.170  26.872  20.623  1.00  0.00     0.200 C 
BRANCH  36  37
HETATM   37  C21 UNL     1      33.445  27.677  21.792  1.00  0.00     0.010 C 
HETATM   38  C22 UNL     1      34.710  28.214  22.238  1.00  0.00    -0.081 C 
HETATM   39  C23 UNL     1      35.510  29.152  21.417  1.00  0.00     0.034 C 
HETATM   40  C27 UNL     1      35.620  27.199  22.947  1.00  0.00     0.034 C 
HETATM   41  C24 UNL     1      36.888  28.613  21.060  1.00  0.00     0.004 C 
HETATM   42  C25 UNL     1      37.698  28.246  22.263  1.00  0.00     0.001 C 
HETATM   43  C26 UNL     1      36.792  28.047  23.462  1.00  0.00     0.004 C 
ENDBRANCH  36  37
BRANCH  36  44
HETATM   44  N6  UNL     1      34.303  26.085  20.150  1.00  0.00    -0.339 N 
HETATM   45  C28 UNL     1      34.563  24.752  20.531  1.00  0.00     0.276 C 
HETATM   46  O6  UNL     1      33.771  24.195  21.323  1.00  0.00    -0.265 OA
ATOM     47  H6  UNL     1      34.952  26.528  19.499  1.00  0.00     0.164 HD
BRANCH  45  48
HETATM   48  C29 UNL     1      35.712  24.012  20.038  1.00  0.00     0.142 A 
HETATM   49  C30 UNL     1      36.372  22.993  20.682  1.00  0.00     0.045 A 
HETATM   50  C31 UNL     1      37.398  22.576  19.865  1.00  0.00     0.027 A 
HETATM   51  C32 UNL     1      37.313  23.374  18.745  1.00  0.00     0.143 A 
HETATM   52  O7  UNL     1      36.325  24.193  18.880  1.00  0.00    -0.317 OA
ENDBRANCH  45  48
ENDBRANCH  36  44
ENDBRANCH  33  36
ENDBRANCH   1  32
TORSDOF 18
ENDMDL
