MODEL 1
REMARK VINA RESULT: -6.481618104      0.000      0.000
REMARK  16 active torsions:
REMARK  status: ('A' for Active; 'I' for Inactive)
REMARK    1  A    between atoms: O1_2  and  C2_3 
REMARK    2  A    between atoms: C2_3  and  C3_4 
REMARK    3  A    between atoms: C4_5  and  O2_6 
REMARK    4  A    between atoms: C6_9  and  O3_10 
REMARK    5  A    between atoms: C7_12  and  C8_13 
REMARK    6  A    between atoms: C9_14  and  C10_15 
REMARK    7  A    between atoms: C10_15  and  C11_16 
REMARK    8  A    between atoms: C11_16  and  O4_17 
REMARK    9  A    between atoms: C11_16  and  C12_19 
REMARK   10  A    between atoms: C12_19  and  O5_20 
REMARK   11  A    between atoms: C12_19  and  C13_22 
REMARK   12  A    between atoms: C13_22  and  C14_24 
REMARK   13  A    between atoms: C14_24  and  C16_26 
REMARK   14  A    between atoms: C16_26  and  C18_28 
REMARK   15  A    between atoms: C18_28  and  C19_29 
REMARK   16  A    between atoms: C24_34  and  O7_35 
ROOT
HETATM    1  C12 UNL     1      17.167  21.149  20.484  1.00  0.00     0.216 C 
ENDROOT
BRANCH   1   2
HETATM    2  C11 UNL     1      16.000  20.377  19.885  1.00  0.00     0.157 C 
BRANCH   2   3
HETATM    3  C10 UNL     1      16.153  18.895  19.974  1.00  0.00     0.061 C 
BRANCH   3   4
HETATM    4  C9  UNL     1      16.157  18.357  21.343  1.00  0.00    -0.027 C 
HETATM    5  C8  UNL     1      15.790  17.117  21.632  1.00  0.00    -0.023 C 
BRANCH   5   6
HETATM    6  C7  UNL     1      15.796  16.587  23.009  1.00  0.00     0.045 C 
HETATM    7  C3  UNL     1      16.898  15.569  23.138  1.00  0.00     0.048 C 
HETATM    8  C4  UNL     1      16.364  14.395  22.355  1.00  0.00     0.127 C 
HETATM    9  C5  UNL     1      14.883  14.414  22.588  1.00  0.00     0.064 C 
HETATM   10  C6  UNL     1      14.550  15.749  23.199  1.00  0.00     0.128 C 
BRANCH   7  11
HETATM   11  C2  UNL     1      17.023  15.142  24.587  1.00  0.00     0.174 C 
BRANCH  11  12
HETATM   12  O1  UNL     1      18.356  14.796  24.829  1.00  0.00    -0.395 OA
HETATM   13  C1  UNL     1      18.453  14.012  25.973  1.00  0.00     0.201 C 
ENDBRANCH  11  12
ENDBRANCH   7  11
BRANCH   8  14
HETATM   14  O2  UNL     1      16.932  13.187  22.822  1.00  0.00    -0.395 OA
ATOM     15  H2  UNL     1      16.262  12.521  22.922  1.00  0.00     0.210 HD
ENDBRANCH   8  14
BRANCH  10  16
HETATM   16  O3  UNL     1      13.534  16.396  22.463  1.00  0.00    -0.395 OA
ATOM     17  H3  UNL     1      12.940  16.856  23.044  1.00  0.00     0.210 HD
ENDBRANCH  10  16
ENDBRANCH   5   6
ENDBRANCH   3   4
ENDBRANCH   2   3
BRANCH   2  18
HETATM   18  O4  UNL     1      14.788  20.867  20.322  1.00  0.00    -0.392 OA
ATOM     19  H4  UNL     1      14.842  21.521  21.010  1.00  0.00     0.210 HD
ENDBRANCH   2  18
ENDBRANCH   1   2
BRANCH   1  20
HETATM   20  O5  UNL     1      16.828  22.512  20.599  1.00  0.00    -0.385 OA
ATOM     21  H5  UNL     1      17.058  22.828  21.466  1.00  0.00     0.210 HD
ENDBRANCH   1  20
BRANCH   1  22
HETATM   22  C13 UNL     1      18.307  20.956  19.584  1.00  0.00     0.162 C 
HETATM   23  O6  UNL     1      18.149  21.361  18.418  1.00  0.00    -0.295 OA
BRANCH  22  24
HETATM   24  C14 UNL     1      19.571  20.347  19.937  1.00  0.00     0.058 C 
HETATM   25  C15 UNL     1      20.609  21.474  20.195  1.00  0.00     0.018 C 
BRANCH  24  26
HETATM   26  C16 UNL     1      19.591  19.472  21.172  1.00  0.00    -0.007 C 
HETATM   27  C17 UNL     1      19.804  18.033  20.947  1.00  0.00     0.011 C 
BRANCH  26  28
HETATM   28  C18 UNL     1      20.491  20.111  22.179  1.00  0.00     0.010 C 
BRANCH  28  29
HETATM   29  C19 UNL     1      19.965  20.268  23.569  1.00  0.00    -0.004 C 
HETATM   30  C20 UNL     1      18.592  19.639  23.602  1.00  0.00     0.032 C 
HETATM   31  C21 UNL     1      18.350  18.672  24.669  1.00  0.00    -0.021 C 
HETATM   32  C22 UNL     1      19.021  18.700  25.795  1.00  0.00    -0.059 C 
HETATM   33  C23 UNL     1      18.765  17.709  26.877  1.00  0.00     0.046 C 
HETATM   34  C24 UNL     1      20.062  19.750  25.967  1.00  0.00     0.150 C 
HETATM   35  C25 UNL     1      20.864  19.768  24.647  1.00  0.00     0.019 C 
HETATM   36  C26 UNL     1      21.433  18.418  24.419  1.00  0.00     0.013 C 
BRANCH  34  37
HETATM   37  O7  UNL     1      20.922  19.466  27.011  1.00  0.00    -0.391 OA
ATOM     38  H7  UNL     1      20.470  19.091  27.758  1.00  0.00     0.210 HD
ENDBRANCH  34  37
ENDBRANCH  28  29
ENDBRANCH  26  28
ENDBRANCH  24  26
ENDBRANCH  22  24
ENDBRANCH   1  22
TORSDOF 16
ENDMDL
MODEL 2
REMARK VINA RESULT: -6.368490639      2.111      6.609
REMARK  16 active torsions:
REMARK  status: ('A' for Active; 'I' for Inactive)
REMARK    1  A    between atoms: O1_2  and  C2_3 
REMARK    2  A    between atoms: C2_3  and  C3_4 
REMARK    3  A    between atoms: C4_5  and  O2_6 
REMARK    4  A    between atoms: C6_9  and  O3_10 
REMARK    5  A    between atoms: C7_12  and  C8_13 
REMARK    6  A    between atoms: C9_14  and  C10_15 
REMARK    7  A    between atoms: C10_15  and  C11_16 
REMARK    8  A    between atoms: C11_16  and  O4_17 
REMARK    9  A    between atoms: C11_16  and  C12_19 
REMARK   10  A    between atoms: C12_19  and  O5_20 
REMARK   11  A    between atoms: C12_19  and  C13_22 
REMARK   12  A    between atoms: C13_22  and  C14_24 
REMARK   13  A    between atoms: C14_24  and  C16_26 
REMARK   14  A    between atoms: C16_26  and  C18_28 
REMARK   15  A    between atoms: C18_28  and  C19_29 
REMARK   16  A    between atoms: C24_34  and  O7_35 
ROOT
HETATM    1  C12 UNL     1      14.888  15.079  22.545  1.00  0.00     0.216 C 
ENDROOT
BRANCH   1   2
HETATM    2  C11 UNL     1      14.800  16.582  22.767  1.00  0.00     0.157 C 
BRANCH   2   3
HETATM    3  C10 UNL     1      15.767  17.368  21.944  1.00  0.00     0.061 C 
BRANCH   3   4
HETATM    4  C9  UNL     1      15.576  18.825  21.994  1.00  0.00    -0.027 C 
HETATM    5  C8  UNL     1      16.449  19.685  21.490  1.00  0.00    -0.023 C 
BRANCH   5   6
HETATM    6  C7  UNL     1      16.249  21.146  21.546  1.00  0.00     0.045 C 
HETATM    7  C3  UNL     1      14.977  21.495  20.819  1.00  0.00     0.048 C 
HETATM    8  C4  UNL     1      15.350  21.286  19.372  1.00  0.00     0.127 C 
HETATM    9  C5  UNL     1      16.790  21.693  19.279  1.00  0.00     0.064 C 
HETATM   10  C6  UNL     1      17.309  21.802  20.688  1.00  0.00     0.128 C 
BRANCH   7  11
HETATM   11  C2  UNL     1      14.674  22.967  21.012  1.00  0.00     0.174 C 
BRANCH  11  12
HETATM   12  O1  UNL     1      13.288  23.143  20.944  1.00  0.00    -0.395 OA
HETATM   13  C1  UNL     1      12.657  22.422  21.951  1.00  0.00     0.201 C 
ENDBRANCH  11  12
ENDBRANCH   7  11
BRANCH   8  14
HETATM   14  O2  UNL     1      14.545  22.089  18.531  1.00  0.00    -0.395 OA
ATOM     15  H2  UNL     1      14.414  21.666  17.692  1.00  0.00     0.210 HD
ENDBRANCH   8  14
BRANCH  10  16
HETATM   16  O3  UNL     1      18.474  21.022  20.852  1.00  0.00    -0.395 OA
ATOM     17  H3  UNL     1      18.710  20.960  21.770  1.00  0.00     0.210 HD
ENDBRANCH  10  16
ENDBRANCH   5   6
ENDBRANCH   3   4
ENDBRANCH   2   3
BRANCH   2  18
HETATM   18  O4  UNL     1      13.497  17.028  22.721  1.00  0.00    -0.392 OA
ATOM     19  H4  UNL     1      12.915  16.638  23.364  1.00  0.00     0.210 HD
ENDBRANCH   2  18
ENDBRANCH   1   2
BRANCH   1  20
HETATM   20  O5  UNL     1      13.760  14.637  21.827  1.00  0.00    -0.385 OA
ATOM     21  H5  UNL     1      13.926  13.773  21.466  1.00  0.00     0.210 HD
ENDBRANCH   1  20
BRANCH   1  22
HETATM   22  C13 UNL     1      14.955  14.460  23.871  1.00  0.00     0.162 C 
HETATM   23  O6  UNL     1      13.870  14.346  24.469  1.00  0.00    -0.295 OA
BRANCH  22  24
HETATM   24  C14 UNL     1      16.154  13.981  24.523  1.00  0.00     0.058 C 
HETATM   25  C15 UNL     1      17.292  13.898  23.468  1.00  0.00     0.018 C 
BRANCH  24  26
HETATM   26  C16 UNL     1      16.700  14.819  25.659  1.00  0.00    -0.007 C 
HETATM   27  C17 UNL     1      16.868  14.134  26.951  1.00  0.00     0.011 C 
BRANCH  26  28
HETATM   28  C18 UNL     1      17.898  15.558  25.156  1.00  0.00     0.010 C 
BRANCH  28  29
HETATM   29  C19 UNL     1      17.861  17.051  25.220  1.00  0.00    -0.004 C 
HETATM   30  C20 UNL     1      18.288  17.450  26.613  1.00  0.00     0.032 C 
HETATM   31  C21 UNL     1      19.349  18.450  26.700  1.00  0.00    -0.021 C 
HETATM   32  C22 UNL     1      19.570  19.313  25.737  1.00  0.00    -0.059 C 
HETATM   33  C23 UNL     1      20.653  20.329  25.838  1.00  0.00     0.046 C 
HETATM   34  C24 UNL     1      18.711  19.246  24.523  1.00  0.00     0.150 C 
HETATM   35  C25 UNL     1      18.625  17.750  24.149  1.00  0.00     0.019 C 
HETATM   36  C26 UNL     1      19.998  17.240  23.917  1.00  0.00     0.013 C 
BRANCH  34  37
HETATM   37  O7  UNL     1      19.253  19.944  23.461  1.00  0.00    -0.391 OA
ATOM     38  H7  UNL     1      18.772  20.741  23.271  1.00  0.00     0.210 HD
ENDBRANCH  34  37
ENDBRANCH  28  29
ENDBRANCH  26  28
ENDBRANCH  24  26
ENDBRANCH  22  24
ENDBRANCH   1  22
TORSDOF 16
ENDMDL
MODEL 3
REMARK VINA RESULT: -6.183002666      1.102      2.271
REMARK  16 active torsions:
REMARK  status: ('A' for Active; 'I' for Inactive)
REMARK    1  A    between atoms: O1_2  and  C2_3 
REMARK    2  A    between atoms: C2_3  and  C3_4 
REMARK    3  A    between atoms: C4_5  and  O2_6 
REMARK    4  A    between atoms: C6_9  and  O3_10 
REMARK    5  A    between atoms: C7_12  and  C8_13 
REMARK    6  A    between atoms: C9_14  and  C10_15 
REMARK    7  A    between atoms: C10_15  and  C11_16 
REMARK    8  A    between atoms: C11_16  and  O4_17 
REMARK    9  A    between atoms: C11_16  and  C12_19 
REMARK   10  A    between atoms: C12_19  and  O5_20 
REMARK   11  A    between atoms: C12_19  and  C13_22 
REMARK   12  A    between atoms: C13_22  and  C14_24 
REMARK   13  A    between atoms: C14_24  and  C16_26 
REMARK   14  A    between atoms: C16_26  and  C18_28 
REMARK   15  A    between atoms: C18_28  and  C19_29 
REMARK   16  A    between atoms: C24_34  and  O7_35 
ROOT
HETATM    1  C12 UNL     1      17.259  21.397  20.680  1.00  0.00     0.216 C 
ENDROOT
BRANCH   1   2
HETATM    2  C11 UNL     1      16.093  20.437  20.495  1.00  0.00     0.157 C 
BRANCH   2   3
HETATM    3  C10 UNL     1      15.818  19.590  21.693  1.00  0.00     0.061 C 
BRANCH   3   4
HETATM    4  C9  UNL     1      15.837  18.141  21.440  1.00  0.00    -0.027 C 
HETATM    5  C8  UNL     1      16.316  17.263  22.310  1.00  0.00    -0.023 C 
BRANCH   5   6
HETATM    6  C7  UNL     1      16.332  15.812  22.047  1.00  0.00     0.045 C 
HETATM    7  C3  UNL     1      14.932  15.274  22.178  1.00  0.00     0.048 C 
HETATM    8  C4  UNL     1      14.694  15.318  23.668  1.00  0.00     0.127 C 
HETATM    9  C5  UNL     1      16.027  15.014  24.283  1.00  0.00     0.064 C 
HETATM   10  C6  UNL     1      17.054  15.132  23.189  1.00  0.00     0.128 C 
BRANCH   7  11
HETATM   11  C2  UNL     1      14.907  13.821  21.747  1.00  0.00     0.174 C 
BRANCH  11  12
HETATM   12  O1  UNL     1      13.591  13.482  21.418  1.00  0.00    -0.395 OA
HETATM   13  C1  UNL     1      13.569  12.363  20.594  1.00  0.00     0.201 C 
ENDBRANCH  11  12
ENDBRANCH   7  11
BRANCH   8  14
HETATM   14  O2  UNL     1      13.733  14.352  24.045  1.00  0.00    -0.395 OA
ATOM     15  H2  UNL     1      14.107  13.730  24.657  1.00  0.00     0.210 HD
ENDBRANCH   8  14
BRANCH  10  16
HETATM   16  O3  UNL     1      18.090  16.013  23.570  1.00  0.00    -0.395 OA
ATOM     17  H3  UNL     1      18.936  15.588  23.497  1.00  0.00     0.210 HD
ENDBRANCH  10  16
ENDBRANCH   5   6
ENDBRANCH   3   4
ENDBRANCH   2   3
BRANCH   2  18
HETATM   18  O4  UNL     1      14.991  21.071  19.962  1.00  0.00    -0.392 OA
ATOM     19  H4  UNL     1      14.927  21.038  19.015  1.00  0.00     0.210 HD
ENDBRANCH   2  18
ENDBRANCH   1   2
BRANCH   1  20
HETATM   20  O5  UNL     1      16.821  22.722  20.488  1.00  0.00    -0.385 OA
ATOM     21  H5  UNL     1      17.382  23.158  19.857  1.00  0.00     0.210 HD
ENDBRANCH   1  20
BRANCH   1  22
HETATM   22  C13 UNL     1      18.275  21.022  19.693  1.00  0.00     0.162 C 
HETATM   23  O6  UNL     1      18.009  21.301  18.510  1.00  0.00    -0.295 OA
BRANCH  22  24
HETATM   24  C14 UNL     1      19.533  20.368  19.980  1.00  0.00     0.058 C 
HETATM   25  C15 UNL     1      20.624  21.456  20.178  1.00  0.00     0.018 C 
BRANCH  24  26
HETATM   26  C16 UNL     1      19.587  19.494  21.214  1.00  0.00    -0.007 C 
HETATM   27  C17 UNL     1      19.685  18.044  20.981  1.00  0.00     0.011 C 
BRANCH  26  28
HETATM   28  C18 UNL     1      20.604  20.070  22.146  1.00  0.00     0.010 C 
BRANCH  28  29
HETATM   29  C19 UNL     1      20.187  20.291  23.565  1.00  0.00    -0.004 C 
HETATM   30  C20 UNL     1      18.738  19.881  23.675  1.00  0.00     0.032 C 
HETATM   31  C21 UNL     1      18.410  18.950  24.752  1.00  0.00    -0.021 C 
HETATM   32  C22 UNL     1      19.139  18.862  25.838  1.00  0.00    -0.059 C 
HETATM   33  C23 UNL     1      18.795  17.911  26.931  1.00  0.00     0.046 C 
HETATM   34  C24 UNL     1      20.339  19.737  25.952  1.00  0.00     0.150 C 
HETATM   35  C25 UNL     1      21.058  19.646  24.588  1.00  0.00     0.019 C 
HETATM   36  C26 UNL     1      21.398  18.227  24.325  1.00  0.00     0.013 C 
BRANCH  34  37
HETATM   37  O7  UNL     1      21.202  19.313  26.944  1.00  0.00    -0.391 OA
ATOM     38  H7  UNL     1      20.749  19.118  27.756  1.00  0.00     0.210 HD
ENDBRANCH  34  37
ENDBRANCH  28  29
ENDBRANCH  26  28
ENDBRANCH  24  26
ENDBRANCH  22  24
ENDBRANCH   1  22
TORSDOF 16
ENDMDL
MODEL 4
REMARK VINA RESULT: -6.097418131      1.958      6.022
REMARK  16 active torsions:
REMARK  status: ('A' for Active; 'I' for Inactive)
REMARK    1  A    between atoms: O1_2  and  C2_3 
REMARK    2  A    between atoms: C2_3  and  C3_4 
REMARK    3  A    between atoms: C4_5  and  O2_6 
REMARK    4  A    between atoms: C6_9  and  O3_10 
REMARK    5  A    between atoms: C7_12  and  C8_13 
REMARK    6  A    between atoms: C9_14  and  C10_15 
REMARK    7  A    between atoms: C10_15  and  C11_16 
REMARK    8  A    between atoms: C11_16  and  O4_17 
REMARK    9  A    between atoms: C11_16  and  C12_19 
REMARK   10  A    between atoms: C12_19  and  O5_20 
REMARK   11  A    between atoms: C12_19  and  C13_22 
REMARK   12  A    between atoms: C13_22  and  C14_24 
REMARK   13  A    between atoms: C14_24  and  C16_26 
REMARK   14  A    between atoms: C16_26  and  C18_28 
REMARK   15  A    between atoms: C18_28  and  C19_29 
REMARK   16  A    between atoms: C24_34  and  O7_35 
ROOT
HETATM    1  C12 UNL     1      19.775  18.845  22.189  1.00  0.00     0.216 C 
ENDROOT
BRANCH   1   2
HETATM    2  C11 UNL     1      19.657  17.355  21.902  1.00  0.00     0.157 C 
BRANCH   2   3
HETATM    3  C10 UNL     1      18.285  16.930  21.492  1.00  0.00     0.061 C 
BRANCH   3   4
HETATM    4  C9  UNL     1      17.534  17.934  20.723  1.00  0.00    -0.027 C 
HETATM    5  C8  UNL     1      16.449  18.536  21.190  1.00  0.00    -0.023 C 
BRANCH   5   6
HETATM    6  C7  UNL     1      15.702  19.542  20.411  1.00  0.00     0.045 C 
HETATM    7  C3  UNL     1      16.671  20.549  19.851  1.00  0.00     0.048 C 
HETATM    8  C4  UNL     1      17.077  21.338  21.072  1.00  0.00     0.127 C 
HETATM    9  C5  UNL     1      15.848  21.388  21.929  1.00  0.00     0.064 C 
HETATM   10  C6  UNL     1      14.883  20.374  21.375  1.00  0.00     0.128 C 
BRANCH   7  11
HETATM   11  C2  UNL     1      15.937  21.487  18.914  1.00  0.00     0.174 C 
BRANCH  11  12
HETATM   12  O1  UNL     1      16.883  22.147  18.123  1.00  0.00    -0.395 OA
HETATM   13  C1  UNL     1      16.799  21.716  16.805  1.00  0.00     0.201 C 
ENDBRANCH  11  12
ENDBRANCH   7  11
BRANCH   8  14
HETATM   14  O2  UNL     1      17.488  22.641  20.705  1.00  0.00    -0.395 OA
ATOM     15  H2  UNL     1      17.074  23.289  21.262  1.00  0.00     0.210 HD
ENDBRANCH   8  14
BRANCH  10  16
HETATM   16  O3  UNL     1      14.458  19.485  22.386  1.00  0.00    -0.395 OA
ATOM     17  H3  UNL     1      14.319  18.615  22.032  1.00  0.00     0.210 HD
ENDBRANCH  10  16
ENDBRANCH   5   6
ENDBRANCH   3   4
ENDBRANCH   2   3
BRANCH   2  18
HETATM   18  O4  UNL     1      20.674  16.912  21.085  1.00  0.00    -0.392 OA
ATOM     19  H4  UNL     1      21.158  17.596  20.638  1.00  0.00     0.210 HD
ENDBRANCH   2  18
ENDBRANCH   1   2
BRANCH   1  20
HETATM   20  O5  UNL     1      20.509  19.471  21.163  1.00  0.00    -0.385 OA
ATOM     21  H5  UNL     1      21.332  19.797  21.509  1.00  0.00     0.210 HD
ENDBRANCH   1  20
BRANCH   1  22
HETATM   22  C13 UNL     1      20.449  18.974  23.483  1.00  0.00     0.162 C 
HETATM   23  O6  UNL     1      21.607  18.521  23.537  1.00  0.00    -0.295 OA
BRANCH  22  24
HETATM   24  C14 UNL     1      19.887  19.571  24.675  1.00  0.00     0.058 C 
HETATM   25  C15 UNL     1      18.337  19.530  24.566  1.00  0.00     0.018 C 
BRANCH  24  26
HETATM   26  C16 UNL     1      20.229  18.920  25.997  1.00  0.00    -0.007 C 
HETATM   27  C17 UNL     1      20.592  19.829  27.097  1.00  0.00     0.011 C 
BRANCH  26  28
HETATM   28  C18 UNL     1      19.166  17.917  26.309  1.00  0.00     0.010 C 
BRANCH  28  29
HETATM   29  C19 UNL     1      19.471  16.482  26.024  1.00  0.00    -0.004 C 
HETATM   30  C20 UNL     1      19.455  15.749  27.345  1.00  0.00     0.032 C 
HETATM   31  C21 UNL     1      18.629  14.546  27.405  1.00  0.00    -0.021 C 
HETATM   32  C22 UNL     1      18.340  13.849  26.333  1.00  0.00    -0.059 C 
HETATM   33  C23 UNL     1      17.499  12.622  26.406  1.00  0.00     0.046 C 
HETATM   34  C24 UNL     1      18.868  14.322  25.023  1.00  0.00     0.150 C 
HETATM   35  C25 UNL     1      18.608  15.844  24.990  1.00  0.00     0.019 C 
HETATM   36  C26 UNL     1      17.153  16.081  25.148  1.00  0.00     0.013 C 
BRANCH  34  37
HETATM   37  O7  UNL     1      18.220  13.732  23.955  1.00  0.00    -0.391 OA
ATOM     38  H7  UNL     1      18.756  13.723  23.170  1.00  0.00     0.210 HD
ENDBRANCH  34  37
ENDBRANCH  28  29
ENDBRANCH  26  28
ENDBRANCH  24  26
ENDBRANCH  22  24
ENDBRANCH   1  22
TORSDOF 16
ENDMDL
MODEL 5
REMARK VINA RESULT: -6.095547346      1.871      6.835
REMARK  16 active torsions:
REMARK  status: ('A' for Active; 'I' for Inactive)
REMARK    1  A    between atoms: O1_2  and  C2_3 
REMARK    2  A    between atoms: C2_3  and  C3_4 
REMARK    3  A    between atoms: C4_5  and  O2_6 
REMARK    4  A    between atoms: C6_9  and  O3_10 
REMARK    5  A    between atoms: C7_12  and  C8_13 
REMARK    6  A    between atoms: C9_14  and  C10_15 
REMARK    7  A    between atoms: C10_15  and  C11_16 
REMARK    8  A    between atoms: C11_16  and  O4_17 
REMARK    9  A    between atoms: C11_16  and  C12_19 
REMARK   10  A    between atoms: C12_19  and  O5_20 
REMARK   11  A    between atoms: C12_19  and  C13_22 
REMARK   12  A    between atoms: C13_22  and  C14_24 
REMARK   13  A    between atoms: C14_24  and  C16_26 
REMARK   14  A    between atoms: C16_26  and  C18_28 
REMARK   15  A    between atoms: C18_28  and  C19_29 
REMARK   16  A    between atoms: C24_34  and  O7_35 
ROOT
HETATM    1  C12 UNL     1      21.731  18.649  24.375  1.00  0.00     0.216 C 
ENDROOT
BRANCH   1   2
HETATM    2  C11 UNL     1      20.794  18.592  23.176  1.00  0.00     0.157 C 
BRANCH   2   3
HETATM    3  C10 UNL     1      20.710  19.876  22.419  1.00  0.00     0.061 C 
BRANCH   3   4
HETATM    4  C9  UNL     1      19.687  19.902  21.362  1.00  0.00    -0.027 C 
HETATM    5  C8  UNL     1      18.396  19.732  21.605  1.00  0.00    -0.023 C 
BRANCH   5   6
HETATM    6  C7  UNL     1      17.377  19.759  20.538  1.00  0.00     0.045 C 
HETATM    7  C3  UNL     1      17.367  21.123  19.902  1.00  0.00     0.048 C 
HETATM    8  C4  UNL     1      16.728  21.983  20.965  1.00  0.00     0.127 C 
HETATM    9  C5  UNL     1      15.717  21.097  21.627  1.00  0.00     0.064 C 
HETATM   10  C6  UNL     1      16.011  19.688  21.186  1.00  0.00     0.128 C 
BRANCH   7  11
HETATM   11  C2  UNL     1      16.447  21.112  18.698  1.00  0.00     0.174 C 
BRANCH  11  12
HETATM   12  O1  UNL     1      16.766  22.208  17.891  1.00  0.00    -0.395 OA
HETATM   13  C1  UNL     1      16.791  21.834  16.552  1.00  0.00     0.201 C 
ENDBRANCH  11  12
ENDBRANCH   7  11
BRANCH   8  14
HETATM   14  O2  UNL     1      16.105  23.111  20.381  1.00  0.00    -0.395 OA
ATOM     15  H2  UNL     1      15.161  23.051  20.466  1.00  0.00     0.210 HD
ENDBRANCH   8  14
BRANCH  10  16
HETATM   16  O3  UNL     1      16.158  18.836  22.303  1.00  0.00    -0.395 OA
ATOM     17  H3  UNL     1      15.761  17.990  22.134  1.00  0.00     0.210 HD
ENDBRANCH  10  16
ENDBRANCH   5   6
ENDBRANCH   3   4
ENDBRANCH   2   3
BRANCH   2  18
HETATM   18  O4  UNL     1      21.023  17.473  22.405  1.00  0.00    -0.392 OA
ATOM     19  H4  UNL     1      21.846  17.473  21.929  1.00  0.00     0.210 HD
ENDBRANCH   2  18
ENDBRANCH   1   2
BRANCH   1  20
HETATM   20  O5  UNL     1      23.018  18.223  23.994  1.00  0.00    -0.385 OA
ATOM     21  H5  UNL     1      23.562  18.113  24.766  1.00  0.00     0.210 HD
ENDBRANCH   1  20
BRANCH   1  22
HETATM   22  C13 UNL     1      21.159  17.772  25.399  1.00  0.00     0.162 C 
HETATM   23  O6  UNL     1      21.491  16.575  25.333  1.00  0.00    -0.295 OA
BRANCH  22  24
HETATM   24  C14 UNL     1      20.258  18.179  26.456  1.00  0.00     0.058 C 
HETATM   25  C15 UNL     1      20.542  19.667  26.803  1.00  0.00     0.018 C 
BRANCH  24  26
HETATM   26  C16 UNL     1      18.776  18.094  26.166  1.00  0.00    -0.007 C 
HETATM   27  C17 UNL     1      18.235  19.098  25.235  1.00  0.00     0.011 C 
BRANCH  26  28
HETATM   28  C18 UNL     1      18.446  16.672  25.849  1.00  0.00     0.010 C 
BRANCH  28  29
HETATM   29  C19 UNL     1      17.502  16.422  24.717  1.00  0.00    -0.004 C 
HETATM   30  C20 UNL     1      18.279  15.708  23.635  1.00  0.00     0.032 C 
HETATM   31  C21 UNL     1      17.682  14.481  23.115  1.00  0.00    -0.021 C 
HETATM   32  C22 UNL     1      16.390  14.263  23.164  1.00  0.00    -0.059 C 
HETATM   33  C23 UNL     1      15.792  13.009  22.629  1.00  0.00     0.046 C 
HETATM   34  C24 UNL     1      15.525  15.305  23.783  1.00  0.00     0.150 C 
HETATM   35  C25 UNL     1      16.238  15.725  25.087  1.00  0.00     0.019 C 
HETATM   36  C26 UNL     1      16.406  14.526  25.944  1.00  0.00     0.013 C 
BRANCH  34  37
HETATM   37  O7  UNL     1      14.268  14.822  24.095  1.00  0.00    -0.391 OA
ATOM     38  H7  UNL     1      13.891  15.262  24.848  1.00  0.00     0.210 HD
ENDBRANCH  34  37
ENDBRANCH  28  29
ENDBRANCH  26  28
ENDBRANCH  24  26
ENDBRANCH  22  24
ENDBRANCH   1  22
TORSDOF 16
ENDMDL
