MODEL 1
REMARK VINA RESULT: -8.707166316      0.000      0.000
REMARK  17 active torsions:
REMARK  status: ('A' for Active; 'I' for Inactive)
REMARK    1  A    between atoms: C2_2  and  C4_4 
REMARK    2  A    between atoms: C5_5  and  C6_6 
REMARK    3  A    between atoms: C6_6  and  C22_34 
REMARK    4  A    between atoms: C7_7  and  C8_8 
REMARK    5  A    between atoms: C9_9  and  C10_10 
REMARK    6  A    between atoms: C10_10  and  C12_12 
REMARK    7  A    between atoms: C12_12  and  C13_13 
REMARK    8  A    between atoms: C13_13  and  C14_14 
REMARK    9  A    between atoms: C14_14  and  C15_15 
REMARK       I    between atoms: C15_15  and  N1_17 
REMARK   10  A    between atoms: N1_17  and  C16_19 
REMARK   11  A    between atoms: C17_20  and  O2_21 
REMARK   12  A    between atoms: C18_24  and  C19_25 
REMARK   13  A    between atoms: C19_25  and  O4_26 
REMARK   14  A    between atoms: C20_28  and  O5_29 
REMARK   15  A    between atoms: C21_31  and  O6_32 
REMARK   16  A    between atoms: C22_34  and  O7_35 
REMARK   17  A    between atoms: C22_34  and  C23_37 
ROOT
HETATM    1  C14 UNL     1      15.997  20.276  19.784  1.00  0.00     0.106 C 
ENDROOT
BRANCH   1   2
HETATM    2  C13 UNL     1      16.856  21.285  19.037  1.00  0.00     0.037 C 
BRANCH   2   3
HETATM    3  C12 UNL     1      18.090  21.484  19.765  1.00  0.00    -0.020 C 
BRANCH   3   4
HETATM    4  C10 UNL     1      19.353  21.260  19.342  1.00  0.00    -0.066 C 
HETATM    5  C11 UNL     1      19.737  21.468  17.947  1.00  0.00     0.048 C 
BRANCH   4   6
HETATM    6  C9  UNL     1      20.293  20.819  20.347  1.00  0.00     0.006 C 
HETATM    7  C8  UNL     1      20.191  20.001  21.314  1.00  0.00     0.001 C 
BRANCH   7   8
HETATM    8  C7  UNL     1      19.151  19.201  21.814  1.00  0.00     0.014 C 
HETATM    9  C6  UNL     1      18.922  18.901  23.151  1.00  0.00    -0.007 C 
BRANCH   9  10
HETATM   10  C5  UNL     1      19.827  19.435  24.084  1.00  0.00     0.014 C 
HETATM   11  C4  UNL     1      19.738  19.655  25.361  1.00  0.00     0.007 C 
BRANCH  11  12
HETATM   12  C2  UNL     1      20.915  20.237  26.074  1.00  0.00    -0.071 C 
HETATM   13  C1  UNL     1      20.926  20.513  27.316  1.00  0.00     0.018 C 
HETATM   14  C3  UNL     1      22.144  20.456  25.221  1.00  0.00     0.047 C 
ENDBRANCH  11  12
ENDBRANCH   9  10
BRANCH   9  15
HETATM   15  C22 UNL     1      17.806  18.017  23.383  1.00  0.00     0.057 C 
BRANCH  15  16
HETATM   16  O7  UNL     1      16.613  18.517  23.127  1.00  0.00    -0.364 OA
ATOM     17  H7  UNL     1      15.878  17.935  23.276  1.00  0.00     0.217 HD
ENDBRANCH  15  16
BRANCH  15  18
HETATM   18  C23 UNL     1      17.752  16.643  23.848  1.00  0.00     0.035 C 
HETATM   19  C24 UNL     1      17.728  16.496  25.355  1.00  0.00     0.016 C 
HETATM   20  C25 UNL     1      18.976  15.852  23.355  1.00  0.00     0.016 C 
ENDBRANCH  15  18
ENDBRANCH   9  15
ENDBRANCH   7   8
ENDBRANCH   4   6
ENDBRANCH   3   4
ENDBRANCH   2   3
ENDBRANCH   1   2
BRANCH   1  21
HETATM   21  C15 UNL     1      15.347  20.828  20.974  1.00  0.00     0.218 C 
HETATM   22  O1  UNL     1      15.994  21.049  22.019  1.00  0.00    -0.274 OA
HETATM   23  N1  UNL     1      13.959  21.118  20.959  1.00  0.00    -0.349 N 
ATOM     24  H1  UNL     1      13.432  20.964  20.100  1.00  0.00     0.163 HD
BRANCH  23  25
HETATM   25  C16 UNL     1      13.263  21.626  22.125  1.00  0.00     0.170 C 
HETATM   26  C17 UNL     1      13.055  23.116  22.005  1.00  0.00     0.282 C 
HETATM   27  O3  UNL     1      12.306  23.668  22.991  1.00  0.00    -0.349 OA
HETATM   28  C18 UNL     1      11.836  22.884  23.990  1.00  0.00     0.179 C 
HETATM   29  C20 UNL     1      11.476  21.478  23.719  1.00  0.00     0.180 C 
HETATM   30  C21 UNL     1      11.916  20.998  22.344  1.00  0.00     0.177 C 
BRANCH  26  31
HETATM   31  O2  UNL     1      14.339  23.698  22.015  1.00  0.00    -0.369 OA
ATOM     32  H2  UNL     1      14.559  23.846  22.927  1.00  0.00     0.212 HD
ENDBRANCH  26  31
BRANCH  28  33
HETATM   33  C19 UNL     1      10.598  23.590  24.573  1.00  0.00     0.198 C 
BRANCH  33  34
HETATM   34  O4  UNL     1      10.927  24.847  25.058  1.00  0.00    -0.398 OA
ATOM     35  H4  UNL     1      10.318  25.120  25.733  1.00  0.00     0.209 HD
ENDBRANCH  33  34
ENDBRANCH  28  33
BRANCH  29  36
HETATM   36  O5  UNL     1      10.121  21.171  23.841  1.00  0.00    -0.390 OA
ATOM     37  H5  UNL     1       9.676  20.955  23.030  1.00  0.00     0.210 HD
ENDBRANCH  29  36
BRANCH  30  38
HETATM   38  O6  UNL     1      11.929  19.626  22.300  1.00  0.00    -0.391 OA
ATOM     39  H6  UNL     1      12.314  19.271  21.507  1.00  0.00     0.210 HD
ENDBRANCH  30  38
ENDBRANCH  23  25
ENDBRANCH   1  21
TORSDOF 17
ENDMDL
MODEL 2
REMARK VINA RESULT: -8.635383973      1.682      4.041
REMARK  17 active torsions:
REMARK  status: ('A' for Active; 'I' for Inactive)
REMARK    1  A    between atoms: C2_2  and  C4_4 
REMARK    2  A    between atoms: C5_5  and  C6_6 
REMARK    3  A    between atoms: C6_6  and  C22_34 
REMARK    4  A    between atoms: C7_7  and  C8_8 
REMARK    5  A    between atoms: C9_9  and  C10_10 
REMARK    6  A    between atoms: C10_10  and  C12_12 
REMARK    7  A    between atoms: C12_12  and  C13_13 
REMARK    8  A    between atoms: C13_13  and  C14_14 
REMARK    9  A    between atoms: C14_14  and  C15_15 
REMARK       I    between atoms: C15_15  and  N1_17 
REMARK   10  A    between atoms: N1_17  and  C16_19 
REMARK   11  A    between atoms: C17_20  and  O2_21 
REMARK   12  A    between atoms: C18_24  and  C19_25 
REMARK   13  A    between atoms: C19_25  and  O4_26 
REMARK   14  A    between atoms: C20_28  and  O5_29 
REMARK   15  A    between atoms: C21_31  and  O6_32 
REMARK   16  A    between atoms: C22_34  and  O7_35 
REMARK   17  A    between atoms: C22_34  and  C23_37 
ROOT
HETATM    1  C14 UNL     1      15.762  20.206  18.824  1.00  0.00     0.106 C 
ENDROOT
BRANCH   1   2
HETATM    2  C13 UNL     1      15.813  18.819  19.447  1.00  0.00     0.037 C 
BRANCH   2   3
HETATM    3  C12 UNL     1      17.037  18.687  20.206  1.00  0.00    -0.020 C 
BRANCH   3   4
HETATM    4  C10 UNL     1      17.219  18.065  21.391  1.00  0.00    -0.066 C 
HETATM    5  C11 UNL     1      17.779  16.717  21.465  1.00  0.00     0.048 C 
BRANCH   4   6
HETATM    6  C9  UNL     1      16.844  18.814  22.569  1.00  0.00     0.006 C 
HETATM    7  C8  UNL     1      17.492  19.158  23.607  1.00  0.00     0.001 C 
BRANCH   7   8
HETATM    8  C7  UNL     1      18.810  18.960  24.048  1.00  0.00     0.014 C 
HETATM    9  C6  UNL     1      19.955  19.484  23.460  1.00  0.00    -0.007 C 
BRANCH   9  10
HETATM   10  C5  UNL     1      19.774  20.268  22.308  1.00  0.00     0.014 C 
HETATM   11  C4  UNL     1      20.155  20.114  21.077  1.00  0.00     0.007 C 
BRANCH  11  12
HETATM   12  C2  UNL     1      19.779  21.153  20.072  1.00  0.00    -0.071 C 
HETATM   13  C1  UNL     1      20.376  21.313  18.959  1.00  0.00     0.018 C 
HETATM   14  C3  UNL     1      18.591  22.011  20.443  1.00  0.00     0.047 C 
ENDBRANCH  11  12
ENDBRANCH   9  10
BRANCH   9  15
HETATM   15  C22 UNL     1      21.188  19.084  24.093  1.00  0.00     0.057 C 
BRANCH  15  16
HETATM   16  O7  UNL     1      21.846  18.104  23.504  1.00  0.00    -0.364 OA
ATOM     17  H7  UNL     1      22.428  18.360  22.798  1.00  0.00     0.217 HD
ENDBRANCH  15  16
BRANCH  15  18
HETATM   18  C23 UNL     1      21.860  19.578  25.281  1.00  0.00     0.035 C 
HETATM   19  C24 UNL     1      21.136  20.710  25.981  1.00  0.00     0.016 C 
HETATM   20  C25 UNL     1      23.261  20.109  24.934  1.00  0.00     0.016 C 
ENDBRANCH  15  18
ENDBRANCH   9  15
ENDBRANCH   7   8
ENDBRANCH   4   6
ENDBRANCH   3   4
ENDBRANCH   2   3
ENDBRANCH   1   2
BRANCH   1  21
HETATM   21  C15 UNL     1      14.797  21.101  19.465  1.00  0.00     0.218 C 
HETATM   22  O1  UNL     1      14.450  22.172  18.923  1.00  0.00    -0.274 OA
HETATM   23  N1  UNL     1      14.242  20.766  20.726  1.00  0.00    -0.349 N 
ATOM     24  H1  UNL     1      14.503  19.881  21.160  1.00  0.00     0.163 HD
BRANCH  23  25
HETATM   25  C16 UNL     1      13.316  21.639  21.419  1.00  0.00     0.170 C 
HETATM   26  C17 UNL     1      12.508  20.856  22.425  1.00  0.00     0.282 C 
HETATM   27  O3  UNL     1      11.696  21.605  23.211  1.00  0.00    -0.349 OA
HETATM   28  C18 UNL     1      11.645  22.946  23.032  1.00  0.00     0.179 C 
HETATM   29  C20 UNL     1      12.850  23.679  22.594  1.00  0.00     0.180 C 
HETATM   30  C21 UNL     1      13.984  22.765  22.156  1.00  0.00     0.177 C 
BRANCH  26  31
HETATM   31  O2  UNL     1      11.728  19.945  21.685  1.00  0.00    -0.369 OA
ATOM     32  H2  UNL     1      10.875  20.350  21.575  1.00  0.00     0.212 HD
ENDBRANCH  26  31
BRANCH  28  33
HETATM   33  C19 UNL     1      11.169  23.561  24.361  1.00  0.00     0.198 C 
BRANCH  33  34
HETATM   34  O4  UNL     1      10.511  22.617  25.136  1.00  0.00    -0.398 OA
ATOM     35  H4  UNL     1      10.278  22.977  25.983  1.00  0.00     0.209 HD
ENDBRANCH  33  34
ENDBRANCH  28  33
BRANCH  29  36
HETATM   36  O5  UNL     1      13.383  24.569  23.526  1.00  0.00    -0.390 OA
ATOM     37  H5  UNL     1      12.966  25.421  23.563  1.00  0.00     0.210 HD
ENDBRANCH  29  36
BRANCH  30  38
HETATM   38  O6  UNL     1      14.893  23.462  21.398  1.00  0.00    -0.391 OA
ATOM     39  H6  UNL     1      15.611  23.828  21.900  1.00  0.00     0.210 HD
ENDBRANCH  30  38
ENDBRANCH  23  25
ENDBRANCH   1  21
TORSDOF 17
ENDMDL
MODEL 3
REMARK VINA RESULT: -8.628283328      1.304      2.225
REMARK  17 active torsions:
REMARK  status: ('A' for Active; 'I' for Inactive)
REMARK    1  A    between atoms: C2_2  and  C4_4 
REMARK    2  A    between atoms: C5_5  and  C6_6 
REMARK    3  A    between atoms: C6_6  and  C22_34 
REMARK    4  A    between atoms: C7_7  and  C8_8 
REMARK    5  A    between atoms: C9_9  and  C10_10 
REMARK    6  A    between atoms: C10_10  and  C12_12 
REMARK    7  A    between atoms: C12_12  and  C13_13 
REMARK    8  A    between atoms: C13_13  and  C14_14 
REMARK    9  A    between atoms: C14_14  and  C15_15 
REMARK       I    between atoms: C15_15  and  N1_17 
REMARK   10  A    between atoms: N1_17  and  C16_19 
REMARK   11  A    between atoms: C17_20  and  O2_21 
REMARK   12  A    between atoms: C18_24  and  C19_25 
REMARK   13  A    between atoms: C19_25  and  O4_26 
REMARK   14  A    between atoms: C20_28  and  O5_29 
REMARK   15  A    between atoms: C21_31  and  O6_32 
REMARK   16  A    between atoms: C22_34  and  O7_35 
REMARK   17  A    between atoms: C22_34  and  C23_37 
ROOT
HETATM    1  C14 UNL     1      15.311  20.810  18.437  1.00  0.00     0.106 C 
ENDROOT
BRANCH   1   2
HETATM    2  C13 UNL     1      16.514  20.308  19.221  1.00  0.00     0.037 C 
BRANCH   2   3
HETATM    3  C12 UNL     1      17.644  21.172  18.955  1.00  0.00    -0.020 C 
BRANCH   3   4
HETATM    4  C10 UNL     1      18.788  21.287  19.662  1.00  0.00    -0.066 C 
HETATM    5  C11 UNL     1      20.092  21.055  19.043  1.00  0.00     0.048 C 
BRANCH   4   6
HETATM    6  C9  UNL     1      18.646  21.665  21.049  1.00  0.00     0.006 C 
HETATM    7  C8  UNL     1      18.342  21.001  22.090  1.00  0.00     0.001 C 
BRANCH   7   8
HETATM    8  C7  UNL     1      18.017  19.657  22.333  1.00  0.00     0.014 C 
HETATM    9  C6  UNL     1      18.549  18.857  23.337  1.00  0.00    -0.007 C 
BRANCH   9  10
HETATM   10  C5  UNL     1      19.513  19.446  24.172  1.00  0.00     0.014 C 
HETATM   11  C4  UNL     1      19.672  19.444  25.461  1.00  0.00     0.007 C 
BRANCH  11  12
HETATM   12  C2  UNL     1      20.836  20.177  26.044  1.00  0.00    -0.071 C 
HETATM   13  C1  UNL     1      20.883  20.592  27.246  1.00  0.00     0.018 C 
HETATM   14  C3  UNL     1      22.007  20.377  25.110  1.00  0.00     0.047 C 
ENDBRANCH  11  12
ENDBRANCH   9  10
BRANCH   9  15
HETATM   15  C22 UNL     1      18.072  17.496  23.333  1.00  0.00     0.057 C 
BRANCH  15  16
HETATM   16  O7  UNL     1      17.198  17.190  24.272  1.00  0.00    -0.364 OA
ATOM     17  H7  UNL     1      16.692  17.914  24.620  1.00  0.00     0.217 HD
ENDBRANCH  15  16
BRANCH  15  18
HETATM   18  C23 UNL     1      18.375  16.376  22.460  1.00  0.00     0.035 C 
HETATM   19  C24 UNL     1      17.414  16.212  21.301  1.00  0.00     0.016 C 
HETATM   20  C25 UNL     1      18.341  15.052  23.242  1.00  0.00     0.016 C 
ENDBRANCH  15  18
ENDBRANCH   9  15
ENDBRANCH   7   8
ENDBRANCH   4   6
ENDBRANCH   3   4
ENDBRANCH   2   3
ENDBRANCH   1   2
BRANCH   1  21
HETATM   21  C15 UNL     1      14.359  21.571  19.248  1.00  0.00     0.218 C 
HETATM   22  O1  UNL     1      13.849  22.629  18.821  1.00  0.00    -0.274 OA
HETATM   23  N1  UNL     1      14.005  21.120  20.545  1.00  0.00    -0.349 N 
ATOM     24  H1  UNL     1      14.400  20.244  20.886  1.00  0.00     0.163 HD
BRANCH  23  25
HETATM   25  C16 UNL     1      13.101  21.861  21.401  1.00  0.00     0.170 C 
HETATM   26  C17 UNL     1      12.421  20.932  22.376  1.00  0.00     0.282 C 
HETATM   27  O3  UNL     1      11.644  21.547  23.302  1.00  0.00    -0.349 OA
HETATM   28  C18 UNL     1      11.514  22.895  23.275  1.00  0.00     0.179 C 
HETATM   29  C20 UNL     1      12.640  23.737  22.825  1.00  0.00     0.180 C 
HETATM   30  C21 UNL     1      13.775  22.940  22.201  1.00  0.00     0.177 C 
BRANCH  26  31
HETATM   31  O2  UNL     1      11.624  20.061  21.605  1.00  0.00    -0.369 OA
ATOM     32  H2  UNL     1      12.023  19.202  21.675  1.00  0.00     0.212 HD
ENDBRANCH  26  31
BRANCH  28  33
HETATM   33  C19 UNL     1      11.124  23.339  24.697  1.00  0.00     0.198 C 
BRANCH  33  34
HETATM   34  O4  UNL     1      10.630  22.271  25.432  1.00  0.00    -0.398 OA
ATOM     35  H4  UNL     1      11.011  22.253  26.301  1.00  0.00     0.209 HD
ENDBRANCH  33  34
ENDBRANCH  28  33
BRANCH  29  36
HETATM   36  O5  UNL     1      13.208  24.553  23.803  1.00  0.00    -0.390 OA
ATOM     37  H5  UNL     1      13.861  24.138  24.354  1.00  0.00     0.210 HD
ENDBRANCH  29  36
BRANCH  30  38
HETATM   38  O6  UNL     1      14.581  23.763  21.453  1.00  0.00    -0.391 OA
ATOM     39  H6  UNL     1      15.510  23.635  21.607  1.00  0.00     0.210 HD
ENDBRANCH  30  38
ENDBRANCH  23  25
ENDBRANCH   1  21
TORSDOF 17
ENDMDL
MODEL 4
REMARK VINA RESULT: -8.610826449      1.446      3.809
REMARK  17 active torsions:
REMARK  status: ('A' for Active; 'I' for Inactive)
REMARK    1  A    between atoms: C2_2  and  C4_4 
REMARK    2  A    between atoms: C5_5  and  C6_6 
REMARK    3  A    between atoms: C6_6  and  C22_34 
REMARK    4  A    between atoms: C7_7  and  C8_8 
REMARK    5  A    between atoms: C9_9  and  C10_10 
REMARK    6  A    between atoms: C10_10  and  C12_12 
REMARK    7  A    between atoms: C12_12  and  C13_13 
REMARK    8  A    between atoms: C13_13  and  C14_14 
REMARK    9  A    between atoms: C14_14  and  C15_15 
REMARK       I    between atoms: C15_15  and  N1_17 
REMARK   10  A    between atoms: N1_17  and  C16_19 
REMARK   11  A    between atoms: C17_20  and  O2_21 
REMARK   12  A    between atoms: C18_24  and  C19_25 
REMARK   13  A    between atoms: C19_25  and  O4_26 
REMARK   14  A    between atoms: C20_28  and  O5_29 
REMARK   15  A    between atoms: C21_31  and  O6_32 
REMARK   16  A    between atoms: C22_34  and  O7_35 
REMARK   17  A    between atoms: C22_34  and  C23_37 
ROOT
HETATM    1  C14 UNL     1      16.474  18.828  20.693  1.00  0.00     0.106 C 
ENDROOT
BRANCH   1   2
HETATM    2  C13 UNL     1      15.973  17.392  20.697  1.00  0.00     0.037 C 
BRANCH   2   3
HETATM    3  C12 UNL     1      17.109  16.496  20.707  1.00  0.00    -0.020 C 
BRANCH   3   4
HETATM    4  C10 UNL     1      17.945  16.223  21.732  1.00  0.00    -0.066 C 
HETATM    5  C11 UNL     1      17.451  15.663  22.989  1.00  0.00     0.048 C 
BRANCH   4   6
HETATM    6  C9  UNL     1      19.344  16.502  21.505  1.00  0.00     0.006 C 
HETATM    7  C8  UNL     1      20.209  17.147  22.178  1.00  0.00     0.001 C 
BRANCH   7   8
HETATM    8  C7  UNL     1      20.176  17.853  23.391  1.00  0.00     0.014 C 
HETATM    9  C6  UNL     1      19.901  19.206  23.541  1.00  0.00    -0.007 C 
BRANCH   9  10
HETATM   10  C5  UNL     1      19.651  19.936  22.367  1.00  0.00     0.014 C 
HETATM   11  C4  UNL     1      20.435  20.404  21.444  1.00  0.00     0.007 C 
BRANCH  11  12
HETATM   12  C2  UNL     1      19.832  21.144  20.295  1.00  0.00    -0.071 C 
HETATM   13  C1  UNL     1      20.308  21.130  19.114  1.00  0.00     0.018 C 
HETATM   14  C3  UNL     1      18.566  21.908  20.610  1.00  0.00     0.047 C 
ENDBRANCH  11  12
ENDBRANCH   9  10
BRANCH   9  15
HETATM   15  C22 UNL     1      19.979  19.685  24.900  1.00  0.00     0.057 C 
BRANCH  15  16
HETATM   16  O7  UNL     1      19.029  19.265  25.713  1.00  0.00    -0.364 OA
ATOM     17  H7  UNL     1      18.146  19.537  25.495  1.00  0.00     0.217 HD
ENDBRANCH  15  16
BRANCH  15  18
HETATM   18  C23 UNL     1      20.936  20.557  25.556  1.00  0.00     0.035 C 
HETATM   19  C24 UNL     1      22.375  20.325  25.145  1.00  0.00     0.016 C 
HETATM   20  C25 UNL     1      20.886  20.371  27.082  1.00  0.00     0.016 C 
ENDBRANCH  15  18
ENDBRANCH   9  15
ENDBRANCH   7   8
ENDBRANCH   4   6
ENDBRANCH   3   4
ENDBRANCH   2   3
ENDBRANCH   1   2
BRANCH   1  21
HETATM   21  C15 UNL     1      15.751  19.702  21.620  1.00  0.00     0.218 C 
HETATM   22  O1  UNL     1      16.228  19.993  22.737  1.00  0.00    -0.274 OA
HETATM   23  N1  UNL     1      14.485  20.230  21.262  1.00  0.00    -0.349 N 
ATOM     24  H1  UNL     1      14.104  20.016  20.341  1.00  0.00     0.163 HD
BRANCH  23  25
HETATM   25  C16 UNL     1      13.714  21.065  22.162  1.00  0.00     0.170 C 
HETATM   26  C17 UNL     1      13.592  22.463  21.607  1.00  0.00     0.282 C 
HETATM   27  O3  UNL     1      12.786  23.290  22.318  1.00  0.00    -0.349 OA
HETATM   28  C18 UNL     1      12.190  22.834  23.445  1.00  0.00     0.179 C 
HETATM   29  C20 UNL     1      11.786  21.418  23.546  1.00  0.00     0.180 C 
HETATM   30  C21 UNL     1      12.323  20.557  22.413  1.00  0.00     0.177 C 
BRANCH  26  31
HETATM   31  O2  UNL     1      14.898  22.995  21.582  1.00  0.00    -0.369 OA
ATOM     32  H2  UNL     1      14.979  23.466  20.760  1.00  0.00     0.212 HD
ENDBRANCH  26  31
BRANCH  28  33
HETATM   33  C19 UNL     1      10.942  23.705  23.679  1.00  0.00     0.198 C 
BRANCH  33  34
HETATM   34  O4  UNL     1      10.572  23.691  25.016  1.00  0.00    -0.398 OA
ATOM     35  H4  UNL     1       9.665  23.952  25.120  1.00  0.00     0.209 HD
ENDBRANCH  33  34
ENDBRANCH  28  33
BRANCH  29  36
HETATM   36  O5  UNL     1      10.412  21.188  23.613  1.00  0.00    -0.390 OA
ATOM     37  H5  UNL     1      10.150  20.276  23.637  1.00  0.00     0.210 HD
ENDBRANCH  29  36
BRANCH  30  38
HETATM   38  O6  UNL     1      12.271  19.228  22.758  1.00  0.00    -0.391 OA
ATOM     39  H6  UNL     1      12.297  19.074  23.695  1.00  0.00     0.210 HD
ENDBRANCH  30  38
ENDBRANCH  23  25
ENDBRANCH   1  21
TORSDOF 17
ENDMDL
MODEL 5
REMARK VINA RESULT: -8.404525094      1.270      2.291
REMARK  17 active torsions:
REMARK  status: ('A' for Active; 'I' for Inactive)
REMARK    1  A    between atoms: C2_2  and  C4_4 
REMARK    2  A    between atoms: C5_5  and  C6_6 
REMARK    3  A    between atoms: C6_6  and  C22_34 
REMARK    4  A    between atoms: C7_7  and  C8_8 
REMARK    5  A    between atoms: C9_9  and  C10_10 
REMARK    6  A    between atoms: C10_10  and  C12_12 
REMARK    7  A    between atoms: C12_12  and  C13_13 
REMARK    8  A    between atoms: C13_13  and  C14_14 
REMARK    9  A    between atoms: C14_14  and  C15_15 
REMARK       I    between atoms: C15_15  and  N1_17 
REMARK   10  A    between atoms: N1_17  and  C16_19 
REMARK   11  A    between atoms: C17_20  and  O2_21 
REMARK   12  A    between atoms: C18_24  and  C19_25 
REMARK   13  A    between atoms: C19_25  and  O4_26 
REMARK   14  A    between atoms: C20_28  and  O5_29 
REMARK   15  A    between atoms: C21_31  and  O6_32 
REMARK   16  A    between atoms: C22_34  and  O7_35 
REMARK   17  A    between atoms: C22_34  and  C23_37 
ROOT
HETATM    1  C14 UNL     1      15.396  20.697  18.502  1.00  0.00     0.106 C 
ENDROOT
BRANCH   1   2
HETATM    2  C13 UNL     1      16.436  19.983  19.353  1.00  0.00     0.037 C 
BRANCH   2   3
HETATM    3  C12 UNL     1      17.694  20.690  19.252  1.00  0.00    -0.020 C 
BRANCH   3   4
HETATM    4  C10 UNL     1      18.570  20.978  20.238  1.00  0.00    -0.066 C 
HETATM    5  C11 UNL     1      18.443  22.195  21.038  1.00  0.00     0.048 C 
BRANCH   4   6
HETATM    6  C9  UNL     1      19.620  20.011  20.461  1.00  0.00     0.006 C 
HETATM    7  C8  UNL     1      19.652  18.914  21.102  1.00  0.00     0.001 C 
BRANCH   7   8
HETATM    8  C7  UNL     1      18.711  18.193  21.855  1.00  0.00     0.014 C 
HETATM    9  C6  UNL     1      18.688  18.081  23.240  1.00  0.00    -0.007 C 
BRANCH   9  10
HETATM   10  C5  UNL     1      19.711  18.736  23.946  1.00  0.00     0.014 C 
HETATM   11  C4  UNL     1      19.691  19.659  24.859  1.00  0.00     0.007 C 
BRANCH  11  12
HETATM   12  C2  UNL     1      20.987  20.140  25.425  1.00  0.00    -0.071 C 
HETATM   13  C1  UNL     1      22.071  20.204  24.761  1.00  0.00     0.018 C 
HETATM   14  C3  UNL     1      20.933  20.595  26.866  1.00  0.00     0.047 C 
ENDBRANCH  11  12
ENDBRANCH   9  10
BRANCH   9  15
HETATM   15  C22 UNL     1      17.634  17.240  23.754  1.00  0.00     0.057 C 
BRANCH  15  16
HETATM   16  O7  UNL     1      16.426  17.477  23.280  1.00  0.00    -0.364 OA
ATOM     17  H7  UNL     1      15.730  17.522  23.924  1.00  0.00     0.217 HD
ENDBRANCH  15  16
BRANCH  15  18
HETATM   18  C23 UNL     1      17.659  16.150  24.712  1.00  0.00     0.035 C 
HETATM   19  C24 UNL     1      16.377  15.345  24.774  1.00  0.00     0.016 C 
HETATM   20  C25 UNL     1      17.905  16.681  26.135  1.00  0.00     0.016 C 
ENDBRANCH  15  18
ENDBRANCH   9  15
ENDBRANCH   7   8
ENDBRANCH   4   6
ENDBRANCH   3   4
ENDBRANCH   2   3
ENDBRANCH   1   2
BRANCH   1  21
HETATM   21  C15 UNL     1      14.440  21.483  19.285  1.00  0.00     0.218 C 
HETATM   22  O1  UNL     1      13.942  22.534  18.828  1.00  0.00    -0.274 OA
HETATM   23  N1  UNL     1      14.068  21.064  20.587  1.00  0.00    -0.349 N 
ATOM     24  H1  UNL     1      14.452  20.193  20.953  1.00  0.00     0.163 HD
BRANCH  23  25
HETATM   25  C16 UNL     1      13.159  21.831  21.415  1.00  0.00     0.170 C 
HETATM   26  C17 UNL     1      12.465  20.930  22.408  1.00  0.00     0.282 C 
HETATM   27  O3  UNL     1      11.682  21.572  23.310  1.00  0.00    -0.349 OA
HETATM   28  C18 UNL     1      11.559  22.919  23.247  1.00  0.00     0.179 C 
HETATM   29  C20 UNL     1      12.693  23.745  22.787  1.00  0.00     0.180 C 
HETATM   30  C21 UNL     1      13.830  22.927  22.194  1.00  0.00     0.177 C 
BRANCH  26  31
HETATM   31  O2  UNL     1      11.673  20.043  21.652  1.00  0.00    -0.369 OA
ATOM     32  H2  UNL     1      12.266  19.586  21.067  1.00  0.00     0.212 HD
ENDBRANCH  26  31
BRANCH  28  33
HETATM   33  C19 UNL     1      11.157  23.401  24.654  1.00  0.00     0.198 C 
BRANCH  33  34
HETATM   34  O4  UNL     1      10.559  22.379  25.376  1.00  0.00    -0.398 OA
ATOM     35  H4  UNL     1      10.474  21.595  24.846  1.00  0.00     0.209 HD
ENDBRANCH  33  34
ENDBRANCH  28  33
BRANCH  29  36
HETATM   36  O5  UNL     1      13.255  24.583  23.749  1.00  0.00    -0.390 OA
ATOM     37  H5  UNL     1      12.763  24.669  24.556  1.00  0.00     0.210 HD
ENDBRANCH  29  36
BRANCH  30  38
HETATM   38  O6  UNL     1      14.647  23.728  21.433  1.00  0.00    -0.391 OA
ATOM     39  H6  UNL     1      15.315  23.251  20.956  1.00  0.00     0.210 HD
ENDBRANCH  30  38
ENDBRANCH  23  25
ENDBRANCH   1  21
TORSDOF 17
ENDMDL
