MODEL 1
REMARK VINA RESULT: -8.596648976      0.000      0.000
REMARK  14 active torsions:
REMARK  status: ('A' for Active; 'I' for Inactive)
REMARK    1  A    between atoms: S1_2  and  N1_4 
REMARK    2  A    between atoms: S1_2  and  C19_32 
REMARK    3  A    between atoms: N1_4  and  C1_6 
REMARK    4  A    between atoms: C1_6  and  O3_7 
REMARK    5  A    between atoms: C1_6  and  C2_9 
REMARK    6  A    between atoms: C2_9  and  O4_10 
REMARK    7  A    between atoms: C2_9  and  C3_12 
REMARK    8  A    between atoms: C3_12  and  O5_13 
REMARK    9  A    between atoms: C3_12  and  C4_15 
REMARK   10  A    between atoms: C4_15  and  O6_16 
REMARK   11  A    between atoms: C4_15  and  C5_18 
REMARK   12  A    between atoms: C5_18  and  C6_19 
REMARK   13  A    between atoms: C6_19  and  C7_20 
REMARK   14  A    between atoms: C6_19  and  C13_26 
ROOT
HETATM    1  C3  UNL     1      17.504  20.630  21.536  1.00  0.00     0.179 C 
ENDROOT
BRANCH   1   2
HETATM    2  C2  UNL     1      16.399  20.630  20.539  1.00  0.00     0.198 C 
BRANCH   2   3
HETATM    3  C1  UNL     1      16.094  22.086  20.152  1.00  0.00     0.259 C 
BRANCH   3   4
HETATM    4  N1  UNL     1      15.289  22.654  21.182  1.00  0.00    -0.285 N 
ATOM      5  H1  UNL     1      15.677  23.017  22.052  1.00  0.00     0.175 HD
BRANCH   4   6
HETATM    6  S1  UNL     1      13.614  22.671  20.831  1.00  0.00     0.267 S 
HETATM    7  O1  UNL     1      13.141  21.482  20.082  1.00  0.00    -0.200 OA
HETATM    8  O2  UNL     1      13.327  23.894  19.999  1.00  0.00    -0.200 OA
BRANCH   6   9
HETATM    9  C19 UNL     1      12.653  22.848  22.308  1.00  0.00     0.120 A 
HETATM   10  C20 UNL     1      12.664  23.932  23.145  1.00  0.00     0.033 A 
HETATM   11  C21 UNL     1      11.864  23.886  24.222  1.00  0.00     0.009 A 
HETATM   12  C22 UNL     1      11.105  22.755  24.391  1.00  0.00     0.051 A 
HETATM   13  S2  UNL     1      11.535  21.802  23.045  1.00  0.00    -0.088 SA
ENDBRANCH   6   9
ENDBRANCH   4   6
ENDBRANCH   3   4
BRANCH   3  14
HETATM   14  O3  UNL     1      15.515  22.157  18.890  1.00  0.00    -0.373 OA
ATOM     15  H3  UNL     1      16.031  22.650  18.262  1.00  0.00     0.212 HD
ENDBRANCH   3  14
ENDBRANCH   2   3
BRANCH   2  16
HETATM   16  O4  UNL     1      16.814  19.910  19.426  1.00  0.00    -0.388 OA
ATOM     17  H4  UNL     1      17.755  19.780  19.447  1.00  0.00     0.210 HD
ENDBRANCH   2  16
ENDBRANCH   1   2
BRANCH   1  18
HETATM   18  O5  UNL     1      18.160  21.822  21.710  1.00  0.00    -0.390 OA
ATOM     19  H5  UNL     1      19.098  21.766  21.850  1.00  0.00     0.210 HD
ENDBRANCH   1  18
BRANCH   1  20
HETATM   20  C4  UNL     1      17.049  20.152  22.930  1.00  0.00     0.150 C 
BRANCH  20  21
HETATM   21  O6  UNL     1      15.715  19.923  22.832  1.00  0.00    -0.393 OA
ATOM     22  H6  UNL     1      15.459  19.506  23.646  1.00  0.00     0.210 HD
ENDBRANCH  20  21
BRANCH  20  23
HETATM   23  C5  UNL     1      17.950  19.060  23.322  1.00  0.00     0.048 C 
BRANCH  23  24
HETATM   24  C6  UNL     1      18.543  19.025  24.671  1.00  0.00     0.054 C 
BRANCH  24  25
HETATM   25  C7  UNL     1      19.905  19.486  24.867  1.00  0.00    -0.050 A 
HETATM   26  C8  UNL     1      20.355  20.231  25.933  1.00  0.00     0.008 A 
HETATM   27  C9  UNL     1      21.657  20.624  26.042  1.00  0.00     0.001 A 
HETATM   28  C10 UNL     1      22.607  20.303  25.096  1.00  0.00     0.000 A 
HETATM   29  C11 UNL     1      22.186  19.563  24.030  1.00  0.00     0.001 A 
HETATM   30  C12 UNL     1      20.851  19.158  23.916  1.00  0.00     0.008 A 
ENDBRANCH  24  25
BRANCH  24  31
HETATM   31  C13 UNL     1      18.373  17.696  25.339  1.00  0.00    -0.050 A 
HETATM   32  C14 UNL     1      18.913  17.403  26.585  1.00  0.00     0.008 A 
HETATM   33  C15 UNL     1      18.762  16.188  27.187  1.00  0.00     0.001 A 
HETATM   34  C16 UNL     1      18.056  15.182  26.577  1.00  0.00     0.000 A 
HETATM   35  C17 UNL     1      17.506  15.438  25.341  1.00  0.00     0.001 A 
HETATM   36  C18 UNL     1      17.670  16.672  24.747  1.00  0.00     0.008 A 
ENDBRANCH  24  31
ENDBRANCH  23  24
ENDBRANCH  20  23
ENDBRANCH   1  20
TORSDOF 14
ENDMDL
MODEL 2
REMARK VINA RESULT: -8.488319833      0.514      1.235
REMARK  14 active torsions:
REMARK  status: ('A' for Active; 'I' for Inactive)
REMARK    1  A    between atoms: S1_2  and  N1_4 
REMARK    2  A    between atoms: S1_2  and  C19_32 
REMARK    3  A    between atoms: N1_4  and  C1_6 
REMARK    4  A    between atoms: C1_6  and  O3_7 
REMARK    5  A    between atoms: C1_6  and  C2_9 
REMARK    6  A    between atoms: C2_9  and  O4_10 
REMARK    7  A    between atoms: C2_9  and  C3_12 
REMARK    8  A    between atoms: C3_12  and  O5_13 
REMARK    9  A    between atoms: C3_12  and  C4_15 
REMARK   10  A    between atoms: C4_15  and  O6_16 
REMARK   11  A    between atoms: C4_15  and  C5_18 
REMARK   12  A    between atoms: C5_18  and  C6_19 
REMARK   13  A    between atoms: C6_19  and  C7_20 
REMARK   14  A    between atoms: C6_19  and  C13_26 
ROOT
HETATM    1  C3  UNL     1      17.034  20.307  21.005  1.00  0.00     0.179 C 
ENDROOT
BRANCH   1   2
HETATM    2  C2  UNL     1      17.433  21.667  20.551  1.00  0.00     0.198 C 
BRANCH   2   3
HETATM    3  C1  UNL     1      16.164  22.435  20.144  1.00  0.00     0.259 C 
BRANCH   3   4
HETATM    4  N1  UNL     1      15.316  22.516  21.287  1.00  0.00    -0.285 N 
ATOM      5  H1  UNL     1      15.673  22.558  22.241  1.00  0.00     0.175 HD
BRANCH   4   6
HETATM    6  S1  UNL     1      13.645  22.538  20.917  1.00  0.00     0.267 S 
HETATM    7  O1  UNL     1      13.170  21.332  20.198  1.00  0.00    -0.200 OA
HETATM    8  O2  UNL     1      13.378  23.739  20.047  1.00  0.00    -0.200 OA
BRANCH   6   9
HETATM    9  C19 UNL     1      12.670  22.766  22.378  1.00  0.00     0.120 A 
HETATM   10  C20 UNL     1      12.638  23.897  23.150  1.00  0.00     0.033 A 
HETATM   11  C21 UNL     1      11.834  23.884  24.225  1.00  0.00     0.009 A 
HETATM   12  C22 UNL     1      11.114  22.739  24.457  1.00  0.00     0.051 A 
HETATM   13  S2  UNL     1      11.585  21.726  23.170  1.00  0.00    -0.088 SA
ENDBRANCH   6   9
ENDBRANCH   4   6
ENDBRANCH   3   4
BRANCH   3  14
HETATM   14  O3  UNL     1      15.556  21.848  19.040  1.00  0.00    -0.373 OA
ATOM     15  H3  UNL     1      16.080  21.165  18.636  1.00  0.00     0.212 HD
ENDBRANCH   3  14
ENDBRANCH   2   3
BRANCH   2  16
HETATM   16  O4  UNL     1      18.071  22.310  21.604  1.00  0.00    -0.388 OA
ATOM     17  H4  UNL     1      18.931  21.934  21.750  1.00  0.00     0.210 HD
ENDBRANCH   2  16
ENDBRANCH   1   2
BRANCH   1  18
HETATM   18  O5  UNL     1      17.794  19.267  20.533  1.00  0.00    -0.390 OA
ATOM     19  H5  UNL     1      18.696  19.240  20.831  1.00  0.00     0.210 HD
ENDBRANCH   1  18
BRANCH   1  20
HETATM   20  C4  UNL     1      16.989  20.180  22.541  1.00  0.00     0.150 C 
BRANCH  20  21
HETATM   21  O6  UNL     1      15.689  19.956  22.861  1.00  0.00    -0.393 OA
ATOM     22  H6  UNL     1      15.563  20.332  23.725  1.00  0.00     0.210 HD
ENDBRANCH  20  21
BRANCH  20  23
HETATM   23  C5  UNL     1      18.013  19.196  22.918  1.00  0.00     0.048 C 
BRANCH  23  24
HETATM   24  C6  UNL     1      18.499  19.116  24.307  1.00  0.00     0.054 C 
BRANCH  24  25
HETATM   25  C7  UNL     1      19.849  19.549  24.620  1.00  0.00    -0.050 A 
HETATM   26  C8  UNL     1      20.224  20.268  25.732  1.00  0.00     0.008 A 
HETATM   27  C9  UNL     1      21.520  20.636  25.952  1.00  0.00     0.001 A 
HETATM   28  C10 UNL     1      22.537  20.314  25.079  1.00  0.00     0.000 A 
HETATM   29  C11 UNL     1      22.190  19.600  23.969  1.00  0.00     0.001 A 
HETATM   30  C12 UNL     1      20.863  19.221  23.741  1.00  0.00     0.008 A 
ENDBRANCH  24  25
BRANCH  24  31
HETATM   31  C13 UNL     1      18.259  17.774  24.924  1.00  0.00    -0.050 A 
HETATM   32  C14 UNL     1      17.677  16.719  24.233  1.00  0.00     0.008 A 
HETATM   33  C15 UNL     1      17.453  15.499  24.800  1.00  0.00     0.001 A 
HETATM   34  C16 UNL     1      17.799  15.255  26.106  1.00  0.00     0.000 A 
HETATM   35  C17 UNL     1      18.379  16.278  26.821  1.00  0.00     0.001 A 
HETATM   36  C18 UNL     1      18.597  17.506  26.230  1.00  0.00     0.008 A 
ENDBRANCH  24  31
ENDBRANCH  23  24
ENDBRANCH  20  23
ENDBRANCH   1  20
TORSDOF 14
ENDMDL
MODEL 3
REMARK VINA RESULT: -8.473824179      1.625      2.800
REMARK  14 active torsions:
REMARK  status: ('A' for Active; 'I' for Inactive)
REMARK    1  A    between atoms: S1_2  and  N1_4 
REMARK    2  A    between atoms: S1_2  and  C19_32 
REMARK    3  A    between atoms: N1_4  and  C1_6 
REMARK    4  A    between atoms: C1_6  and  O3_7 
REMARK    5  A    between atoms: C1_6  and  C2_9 
REMARK    6  A    between atoms: C2_9  and  O4_10 
REMARK    7  A    between atoms: C2_9  and  C3_12 
REMARK    8  A    between atoms: C3_12  and  O5_13 
REMARK    9  A    between atoms: C3_12  and  C4_15 
REMARK   10  A    between atoms: C4_15  and  O6_16 
REMARK   11  A    between atoms: C4_15  and  C5_18 
REMARK   12  A    between atoms: C5_18  and  C6_19 
REMARK   13  A    between atoms: C6_19  and  C7_20 
REMARK   14  A    between atoms: C6_19  and  C13_26 
ROOT
HETATM    1  C3  UNL     1      17.600  20.587  21.580  1.00  0.00     0.179 C 
ENDROOT
BRANCH   1   2
HETATM    2  C2  UNL     1      16.443  20.621  20.645  1.00  0.00     0.198 C 
BRANCH   2   3
HETATM    3  C1  UNL     1      16.126  22.090  20.318  1.00  0.00     0.259 C 
BRANCH   3   4
HETATM    4  N1  UNL     1      15.274  22.593  21.343  1.00  0.00    -0.285 N 
ATOM      5  H1  UNL     1      15.623  22.924  22.242  1.00  0.00     0.175 HD
BRANCH   4   6
HETATM    6  S1  UNL     1      13.611  22.592  20.935  1.00  0.00     0.267 S 
HETATM    7  O1  UNL     1      13.187  21.419  20.134  1.00  0.00    -0.200 OA
HETATM    8  O2  UNL     1      13.331  23.835  20.131  1.00  0.00    -0.200 OA
BRANCH   6   9
HETATM    9  C19 UNL     1      12.598  22.706  22.382  1.00  0.00     0.120 A 
HETATM   10  C20 UNL     1      12.494  23.798  23.203  1.00  0.00     0.033 A 
HETATM   11  C21 UNL     1      11.671  23.698  24.258  1.00  0.00     0.009 A 
HETATM   12  C22 UNL     1      11.004  22.510  24.423  1.00  0.00     0.051 A 
HETATM   13  S2  UNL     1      11.549  21.580  23.103  1.00  0.00    -0.088 SA
ENDBRANCH   6   9
ENDBRANCH   4   6
ENDBRANCH   3   4
BRANCH   3  14
HETATM   14  O3  UNL     1      15.592  22.213  19.040  1.00  0.00    -0.373 OA
ATOM     15  H3  UNL     1      14.929  22.891  18.968  1.00  0.00     0.212 HD
ENDBRANCH   3  14
ENDBRANCH   2   3
BRANCH   2  16
HETATM   16  O4  UNL     1      16.793  19.932  19.491  1.00  0.00    -0.388 OA
ATOM     17  H4  UNL     1      16.684  20.488  18.727  1.00  0.00     0.210 HD
ENDBRANCH   2  16
ENDBRANCH   1   2
BRANCH   1  18
HETATM   18  O5  UNL     1      18.213  21.789  21.826  1.00  0.00    -0.390 OA
ATOM     19  H5  UNL     1      18.556  21.912  22.703  1.00  0.00     0.210 HD
ENDBRANCH   1  18
BRANCH   1  20
HETATM   20  C4  UNL     1      17.243  19.970  22.948  1.00  0.00     0.150 C 
BRANCH  20  21
HETATM   21  O6  UNL     1      15.888  19.949  23.009  1.00  0.00    -0.393 OA
ATOM     22  H6  UNL     1      15.660  20.236  23.885  1.00  0.00     0.210 HD
ENDBRANCH  20  21
BRANCH  20  23
HETATM   23  C5  UNL     1      17.998  18.714  23.059  1.00  0.00     0.048 C 
BRANCH  23  24
HETATM   24  C6  UNL     1      19.467  18.731  23.182  1.00  0.00     0.054 C 
BRANCH  24  25
HETATM   25  C7  UNL     1      20.229  17.549  22.820  1.00  0.00    -0.050 A 
HETATM   26  C8  UNL     1      21.193  16.947  23.596  1.00  0.00     0.008 A 
HETATM   27  C9  UNL     1      21.864  15.834  23.180  1.00  0.00     0.001 A 
HETATM   28  C10 UNL     1      21.624  15.240  21.959  1.00  0.00     0.000 A 
HETATM   29  C11 UNL     1      20.672  15.819  21.172  1.00  0.00     0.001 A 
HETATM   30  C12 UNL     1      19.982  16.959  21.596  1.00  0.00     0.008 A 
ENDBRANCH  24  25
BRANCH  24  31
HETATM   31  C13 UNL     1      19.927  19.222  24.518  1.00  0.00    -0.050 A 
HETATM   32  C14 UNL     1      20.885  20.216  24.669  1.00  0.00     0.008 A 
HETATM   33  C15 UNL     1      21.307  20.656  25.888  1.00  0.00     0.001 A 
HETATM   34  C16 UNL     1      20.794  20.125  27.045  1.00  0.00     0.000 A 
HETATM   35  C17 UNL     1      19.842  19.137  26.934  1.00  0.00     0.001 A 
HETATM   36  C18 UNL     1      19.427  18.704  25.691  1.00  0.00     0.008 A 
ENDBRANCH  24  31
ENDBRANCH  23  24
ENDBRANCH  20  23
ENDBRANCH   1  20
TORSDOF 14
ENDMDL
MODEL 4
REMARK VINA RESULT: -8.398809439      0.847      3.420
REMARK  14 active torsions:
REMARK  status: ('A' for Active; 'I' for Inactive)
REMARK    1  A    between atoms: S1_2  and  N1_4 
REMARK    2  A    between atoms: S1_2  and  C19_32 
REMARK    3  A    between atoms: N1_4  and  C1_6 
REMARK    4  A    between atoms: C1_6  and  O3_7 
REMARK    5  A    between atoms: C1_6  and  C2_9 
REMARK    6  A    between atoms: C2_9  and  O4_10 
REMARK    7  A    between atoms: C2_9  and  C3_12 
REMARK    8  A    between atoms: C3_12  and  O5_13 
REMARK    9  A    between atoms: C3_12  and  C4_15 
REMARK   10  A    between atoms: C4_15  and  O6_16 
REMARK   11  A    between atoms: C4_15  and  C5_18 
REMARK   12  A    between atoms: C5_18  and  C6_19 
REMARK   13  A    between atoms: C6_19  and  C7_20 
REMARK   14  A    between atoms: C6_19  and  C13_26 
ROOT
HETATM    1  C3  UNL     1      16.630  20.215  21.487  1.00  0.00     0.179 C 
ENDROOT
BRANCH   1   2
HETATM    2  C2  UNL     1      17.248  21.359  20.762  1.00  0.00     0.198 C 
BRANCH   2   3
HETATM    3  C1  UNL     1      16.136  22.352  20.383  1.00  0.00     0.259 C 
BRANCH   3   4
HETATM    4  N1  UNL     1      15.250  22.461  21.494  1.00  0.00    -0.285 N 
ATOM      5  H1  UNL     1      15.574  22.493  22.460  1.00  0.00     0.175 HD
BRANCH   4   6
HETATM    6  S1  UNL     1      13.595  22.534  21.064  1.00  0.00     0.267 S 
HETATM    7  O1  UNL     1      13.120  21.364  20.289  1.00  0.00    -0.200 OA
HETATM    8  O2  UNL     1      13.388  23.769  20.225  1.00  0.00    -0.200 OA
BRANCH   6   9
HETATM    9  C19 UNL     1      12.571  22.738  22.495  1.00  0.00     0.120 A 
HETATM   10  C20 UNL     1      12.504  23.860  23.278  1.00  0.00     0.033 A 
HETATM   11  C21 UNL     1      11.667  23.829  24.326  1.00  0.00     0.009 A 
HETATM   12  C22 UNL     1      10.950  22.675  24.523  1.00  0.00     0.051 A 
HETATM   13  S2  UNL     1      11.470  21.680  23.241  1.00  0.00    -0.088 SA
ENDBRANCH   6   9
ENDBRANCH   4   6
ENDBRANCH   3   4
BRANCH   3  14
HETATM   14  O3  UNL     1      15.505  21.971  19.204  1.00  0.00    -0.373 OA
ATOM     15  H3  UNL     1      14.725  22.478  19.009  1.00  0.00     0.212 HD
ENDBRANCH   3  14
ENDBRANCH   2   3
BRANCH   2  16
HETATM   16  O4  UNL     1      18.171  21.964  21.604  1.00  0.00    -0.388 OA
ATOM     17  H4  UNL     1      18.155  22.908  21.490  1.00  0.00     0.210 HD
ENDBRANCH   2  16
ENDBRANCH   1   2
BRANCH   1  18
HETATM   18  O5  UNL     1      15.533  19.645  20.892  1.00  0.00    -0.390 OA
ATOM     19  H5  UNL     1      15.654  18.770  20.544  1.00  0.00     0.210 HD
ENDBRANCH   1  18
BRANCH   1  20
HETATM   20  C4  UNL     1      17.634  19.080  21.775  1.00  0.00     0.150 C 
BRANCH  20  21
HETATM   21  O6  UNL     1      18.712  19.323  20.987  1.00  0.00    -0.393 OA
ATOM     22  H6  UNL     1      18.462  20.037  20.413  1.00  0.00     0.210 HD
ENDBRANCH  20  21
BRANCH  20  23
HETATM   23  C5  UNL     1      17.796  19.014  23.234  1.00  0.00     0.048 C 
BRANCH  23  24
HETATM   24  C6  UNL     1      18.858  18.187  23.833  1.00  0.00     0.054 C 
BRANCH  24  25
HETATM   25  C7  UNL     1      18.506  17.149  24.785  1.00  0.00    -0.050 A 
HETATM   26  C8  UNL     1      19.270  16.753  25.859  1.00  0.00     0.008 A 
HETATM   27  C9  UNL     1      18.864  15.766  26.710  1.00  0.00     0.001 A 
HETATM   28  C10 UNL     1      17.666  15.102  26.553  1.00  0.00     0.000 A 
HETATM   29  C11 UNL     1      16.890  15.478  25.495  1.00  0.00     0.001 A 
HETATM   30  C12 UNL     1      17.304  16.490  24.622  1.00  0.00     0.008 A 
ENDBRANCH  24  25
BRANCH  24  31
HETATM   31  C13 UNL     1      19.979  19.006  24.391  1.00  0.00    -0.050 A 
HETATM   32  C14 UNL     1      19.831  19.838  25.493  1.00  0.00     0.008 A 
HETATM   33  C15 UNL     1      20.853  20.589  25.994  1.00  0.00     0.001 A 
HETATM   34  C16 UNL     1      22.099  20.556  25.420  1.00  0.00     0.000 A 
HETATM   35  C17 UNL     1      22.283  19.741  24.326  1.00  0.00     0.001 A 
HETATM   36  C18 UNL     1      21.236  18.989  23.832  1.00  0.00     0.008 A 
ENDBRANCH  24  31
ENDBRANCH  23  24
ENDBRANCH  20  23
ENDBRANCH   1  20
TORSDOF 14
ENDMDL
MODEL 5
REMARK VINA RESULT: -8.347557362      1.264      1.848
REMARK  14 active torsions:
REMARK  status: ('A' for Active; 'I' for Inactive)
REMARK    1  A    between atoms: S1_2  and  N1_4 
REMARK    2  A    between atoms: S1_2  and  C19_32 
REMARK    3  A    between atoms: N1_4  and  C1_6 
REMARK    4  A    between atoms: C1_6  and  O3_7 
REMARK    5  A    between atoms: C1_6  and  C2_9 
REMARK    6  A    between atoms: C2_9  and  O4_10 
REMARK    7  A    between atoms: C2_9  and  C3_12 
REMARK    8  A    between atoms: C3_12  and  O5_13 
REMARK    9  A    between atoms: C3_12  and  C4_15 
REMARK   10  A    between atoms: C4_15  and  O6_16 
REMARK   11  A    between atoms: C4_15  and  C5_18 
REMARK   12  A    between atoms: C5_18  and  C6_19 
REMARK   13  A    between atoms: C6_19  and  C7_20 
REMARK   14  A    between atoms: C6_19  and  C13_26 
ROOT
HETATM    1  C3  UNL     1      17.321  21.377  20.645  1.00  0.00     0.179 C 
ENDROOT
BRANCH   1   2
HETATM    2  C2  UNL     1      16.033  21.650  19.952  1.00  0.00     0.198 C 
BRANCH   2   3
HETATM    3  C1  UNL     1      15.167  22.534  20.865  1.00  0.00     0.259 C 
BRANCH   3   4
HETATM    4  N1  UNL     1      13.801  22.215  20.616  1.00  0.00    -0.285 N 
ATOM      5  H1  UNL     1      13.332  22.432  19.737  1.00  0.00     0.175 HD
BRANCH   4   6
HETATM    6  S1  UNL     1      13.015  21.436  21.922  1.00  0.00     0.267 S 
HETATM    7  O1  UNL     1      13.871  20.473  22.654  1.00  0.00    -0.200 OA
HETATM    8  O2  UNL     1      11.831  20.686  21.370  1.00  0.00    -0.200 OA
BRANCH   6   9
HETATM    9  C19 UNL     1      12.357  22.616  23.067  1.00  0.00     0.120 A 
HETATM   10  C20 UNL     1      12.781  23.910  23.215  1.00  0.00     0.033 A 
HETATM   11  C21 UNL     1      12.158  24.659  24.139  1.00  0.00     0.009 A 
HETATM   12  C22 UNL     1      11.150  24.062  24.855  1.00  0.00     0.051 A 
HETATM   13  S2  UNL     1      11.110  22.484  24.213  1.00  0.00    -0.088 SA
ENDBRANCH   6   9
ENDBRANCH   4   6
ENDBRANCH   3   4
BRANCH   3  14
HETATM   14  O3  UNL     1      15.466  23.881  20.686  1.00  0.00    -0.373 OA
ATOM     15  H3  UNL     1      14.772  24.371  20.260  1.00  0.00     0.212 HD
ENDBRANCH   3  14
ENDBRANCH   2   3
BRANCH   2  16
HETATM   16  O4  UNL     1      16.308  22.307  18.760  1.00  0.00    -0.388 OA
ATOM     17  H4  UNL     1      16.723  23.145  18.931  1.00  0.00     0.210 HD
ENDBRANCH   2  16
ENDBRANCH   1   2
BRANCH   1  18
HETATM   18  O5  UNL     1      17.993  22.473  21.123  1.00  0.00    -0.390 OA
ATOM     19  H5  UNL     1      18.276  23.105  20.473  1.00  0.00     0.210 HD
ENDBRANCH   1  18
BRANCH   1  20
HETATM   20  C4  UNL     1      17.168  20.388  21.819  1.00  0.00     0.150 C 
BRANCH  20  21
HETATM   21  O6  UNL     1      16.282  19.448  21.405  1.00  0.00    -0.393 OA
ATOM     22  H6  UNL     1      16.499  18.654  21.881  1.00  0.00     0.210 HD
ENDBRANCH  20  21
BRANCH  20  23
HETATM   23  C5  UNL     1      18.524  19.987  22.219  1.00  0.00     0.048 C 
BRANCH  23  24
HETATM   24  C6  UNL     1      18.789  19.495  23.582  1.00  0.00     0.054 C 
BRANCH  24  25
HETATM   25  C7  UNL     1      20.068  19.774  24.209  1.00  0.00    -0.050 A 
HETATM   26  C8  UNL     1      20.249  20.244  25.490  1.00  0.00     0.008 A 
HETATM   27  C9  UNL     1      21.490  20.481  26.005  1.00  0.00     0.001 A 
HETATM   28  C10 UNL     1      22.643  20.265  25.280  1.00  0.00     0.000 A 
HETATM   29  C11 UNL     1      22.490  19.798  24.007  1.00  0.00     0.001 A 
HETATM   30  C12 UNL     1      21.218  19.554  23.477  1.00  0.00     0.008 A 
ENDBRANCH  24  25
BRANCH  24  31
HETATM   31  C13 UNL     1      18.471  18.041  23.740  1.00  0.00    -0.050 A 
HETATM   32  C14 UNL     1      18.614  17.121  22.711  1.00  0.00     0.008 A 
HETATM   33  C15 UNL     1      18.316  15.798  22.856  1.00  0.00     0.001 A 
HETATM   34  C16 UNL     1      17.853  15.307  24.051  1.00  0.00     0.000 A 
HETATM   35  C17 UNL     1      17.700  16.191  25.095  1.00  0.00     0.001 A 
HETATM   36  C18 UNL     1      18.005  17.527  24.928  1.00  0.00     0.008 A 
ENDBRANCH  24  31
ENDBRANCH  23  24
ENDBRANCH  20  23
ENDBRANCH   1  20
TORSDOF 14
ENDMDL
