MODEL 1
REMARK VINA RESULT: -7.320153213      0.000      0.000
REMARK  16 active torsions:
REMARK  status: ('A' for Active; 'I' for Inactive)
REMARK    1  A    between atoms: C2_2  and  C3_3 
REMARK    2  A    between atoms: C3_3  and  C4_4 
REMARK    3  A    between atoms: C3_3  and  C23_35 
REMARK    4  A    between atoms: C4_4  and  O1_5 
REMARK    5  A    between atoms: C5_7  and  C6_8 
REMARK    6  A    between atoms: C6_8  and  C8_10 
REMARK    7  A    between atoms: C8_10  and  C9_11 
REMARK    8  A    between atoms: C9_11  and  C10_12 
REMARK    9  A    between atoms: C9_11  and  C12_15 
REMARK   10  A    between atoms: C10_12  and  O2_13 
REMARK   11  A    between atoms: C15_18  and  C17_20 
REMARK   12  A    between atoms: C17_20  and  C18_21 
REMARK   13  A    between atoms: C18_21  and  O3_22 
REMARK   14  A    between atoms: C19_24  and  O4_25 
REMARK   15  A    between atoms: C21_28  and  O5_29 
REMARK   16  A    between atoms: C22_31  and  O6_32 
ROOT
HETATM    1  C12 UNL     1      15.305  20.024  21.155  1.00  0.00     0.132 C 
HETATM    2  C13 UNL     1      14.273  20.865  20.509  1.00  0.00     0.036 C 
HETATM    3  C14 UNL     1      13.314  19.831  19.956  1.00  0.00     0.041 C 
HETATM    4  C15 UNL     1      14.081  18.559  19.958  1.00  0.00     0.072 C 
HETATM    5  C16 UNL     1      14.507  18.205  18.558  1.00  0.00     0.047 C 
HETATM    6  O7  UNL     1      15.248  18.756  20.682  1.00  0.00    -0.373 OA
ENDROOT
BRANCH   1   7
HETATM    7  C9  UNL     1      16.715  20.634  21.169  1.00  0.00     0.061 C 
BRANCH   7   8
HETATM    8  C8  UNL     1      17.742  19.639  20.890  1.00  0.00    -0.011 C 
BRANCH   8   9
HETATM    9  C6  UNL     1      19.094  19.710  21.457  1.00  0.00    -0.063 C 
HETATM   10  C7  UNL     1      20.088  20.538  20.691  1.00  0.00     0.048 C 
BRANCH   9  11
HETATM   11  C5  UNL     1      19.190  19.790  22.924  1.00  0.00     0.038 C 
HETATM   12  C4  UNL     1      19.978  19.070  23.641  1.00  0.00     0.048 C 
BRANCH  12  13
HETATM   13  C3  UNL     1      20.131  19.099  25.156  1.00  0.00     0.045 C 
BRANCH  13  14
HETATM   14  C2  UNL     1      18.677  18.986  25.630  1.00  0.00     0.007 C 
HETATM   15  C1  UNL     1      18.387  17.909  26.593  1.00  0.00     0.006 C 
ENDBRANCH  13  14
BRANCH  13  16
HETATM   16  C23 UNL     1      20.833  20.317  25.607  1.00  0.00    -0.012 C 
HETATM   17  C24 UNL     1      22.339  20.126  25.322  1.00  0.00     0.010 C 
HETATM   18  C25 UNL     1      20.765  20.643  27.074  1.00  0.00     0.010 C 
ENDBRANCH  13  16
ENDBRANCH  12  13
BRANCH  12  19
HETATM   19  O1  UNL     1      20.829  18.128  23.071  1.00  0.00    -0.365 OA
ATOM     20  H1  UNL     1      20.338  17.466  22.599  1.00  0.00     0.217 HD
ENDBRANCH  12  19
ENDBRANCH   9  11
ENDBRANCH   8   9
ENDBRANCH   7   8
BRANCH   7  21
HETATM   21  C10 UNL     1      16.655  21.881  20.377  1.00  0.00     0.178 C 
BRANCH  21  22
HETATM   22  O2  UNL     1      17.365  21.875  19.185  1.00  0.00    -0.395 OA
HETATM   23  C11 UNL     1      16.624  21.731  18.049  1.00  0.00     0.201 C 
ENDBRANCH  21  22
ENDBRANCH   7  21
ENDBRANCH   1   7
BRANCH   4  24
HETATM   24  C17 UNL     1      13.298  17.471  20.633  1.00  0.00     0.066 C 
HETATM   25  C19 UNL     1      14.158  16.450  21.309  1.00  0.00     0.137 C 
HETATM   26  C20 UNL     1      13.404  15.171  21.182  1.00  0.00     0.067 C 
HETATM   27  C21 UNL     1      12.645  15.288  19.892  1.00  0.00     0.150 C 
HETATM   28  C22 UNL     1      12.335  16.766  19.720  1.00  0.00     0.163 C 
BRANCH  24  29
HETATM   29  C18 UNL     1      12.460  18.101  21.730  1.00  0.00     0.181 C 
BRANCH  29  30
HETATM   30  O3  UNL     1      13.198  18.025  22.942  1.00  0.00    -0.400 OA
ATOM     31  H3  UNL     1      12.779  18.597  23.575  1.00  0.00     0.209 HD
ENDBRANCH  29  30
ENDBRANCH  24  29
BRANCH  25  32
HETATM   32  O4  UNL     1      15.409  16.271  20.759  1.00  0.00    -0.394 OA
ATOM     33  H4  UNL     1      15.975  15.661  21.219  1.00  0.00     0.210 HD
ENDBRANCH  25  32
BRANCH  27  34
HETATM   34  O5  UNL     1      11.483  14.517  19.890  1.00  0.00    -0.393 OA
ATOM     35  H5  UNL     1      10.932  14.694  20.644  1.00  0.00     0.210 HD
ENDBRANCH  27  34
BRANCH  28  36
HETATM   36  O6  UNL     1      12.383  17.167  18.411  1.00  0.00    -0.392 OA
ATOM     37  H6  UNL     1      12.343  18.107  18.280  1.00  0.00     0.210 HD
ENDBRANCH  28  36
ENDBRANCH   4  24
TORSDOF 16
ENDMDL
MODEL 2
REMARK VINA RESULT: -7.085812709      1.347      2.012
REMARK  16 active torsions:
REMARK  status: ('A' for Active; 'I' for Inactive)
REMARK    1  A    between atoms: C2_2  and  C3_3 
REMARK    2  A    between atoms: C3_3  and  C4_4 
REMARK    3  A    between atoms: C3_3  and  C23_35 
REMARK    4  A    between atoms: C4_4  and  O1_5 
REMARK    5  A    between atoms: C5_7  and  C6_8 
REMARK    6  A    between atoms: C6_8  and  C8_10 
REMARK    7  A    between atoms: C8_10  and  C9_11 
REMARK    8  A    between atoms: C9_11  and  C10_12 
REMARK    9  A    between atoms: C9_11  and  C12_15 
REMARK   10  A    between atoms: C10_12  and  O2_13 
REMARK   11  A    between atoms: C15_18  and  C17_20 
REMARK   12  A    between atoms: C17_20  and  C18_21 
REMARK   13  A    between atoms: C18_21  and  O3_22 
REMARK   14  A    between atoms: C19_24  and  O4_25 
REMARK   15  A    between atoms: C21_28  and  O5_29 
REMARK   16  A    between atoms: C22_31  and  O6_32 
ROOT
HETATM    1  C12 UNL     1      15.850  21.013  21.047  1.00  0.00     0.132 C 
HETATM    2  C13 UNL     1      14.587  21.777  21.144  1.00  0.00     0.036 C 
HETATM    3  C14 UNL     1      13.546  20.722  20.832  1.00  0.00     0.041 C 
HETATM    4  C15 UNL     1      14.302  19.619  20.188  1.00  0.00     0.072 C 
HETATM    5  C16 UNL     1      14.052  19.611  18.703  1.00  0.00     0.047 C 
HETATM    6  O7  UNL     1      15.658  19.865  20.353  1.00  0.00    -0.373 OA
ENDROOT
BRANCH   1   7
HETATM    7  C9  UNL     1      17.066  21.834  20.592  1.00  0.00     0.061 C 
BRANCH   7   8
HETATM    8  C8  UNL     1      18.209  21.653  21.476  1.00  0.00    -0.011 C 
BRANCH   8   9
HETATM    9  C6  UNL     1      18.807  20.340  21.747  1.00  0.00    -0.063 C 
HETATM   10  C7  UNL     1      19.677  19.774  20.659  1.00  0.00     0.048 C 
BRANCH   9  11
HETATM   11  C5  UNL     1      19.264  20.096  23.124  1.00  0.00     0.038 C 
HETATM   12  C4  UNL     1      18.579  19.476  24.020  1.00  0.00     0.048 C 
BRANCH  12  13
HETATM   13  C3  UNL     1      18.988  19.187  25.457  1.00  0.00     0.045 C 
BRANCH  13  14
HETATM   14  C2  UNL     1      20.395  19.794  25.521  1.00  0.00     0.007 C 
HETATM   15  C1  UNL     1      20.717  20.568  26.733  1.00  0.00     0.006 C 
ENDBRANCH  13  14
BRANCH  13  16
HETATM   16  C23 UNL     1      18.925  17.744  25.760  1.00  0.00    -0.012 C 
HETATM   17  C24 UNL     1      18.176  17.576  27.100  1.00  0.00     0.010 C 
HETATM   18  C25 UNL     1      20.233  17.030  25.966  1.00  0.00     0.010 C 
ENDBRANCH  13  16
ENDBRANCH  12  13
BRANCH  12  19
HETATM   19  O1  UNL     1      17.311  18.972  23.750  1.00  0.00    -0.365 OA
ATOM     20  H1  UNL     1      16.707  19.670  23.523  1.00  0.00     0.217 HD
ENDBRANCH  12  19
ENDBRANCH   9  11
ENDBRANCH   8   9
ENDBRANCH   7   8
BRANCH   7  21
HETATM   21  C10 UNL     1      17.211  21.620  19.137  1.00  0.00     0.178 C 
BRANCH  21  22
HETATM   22  O2  UNL     1      16.442  22.443  18.324  1.00  0.00    -0.395 OA
HETATM   23  C11 UNL     1      16.346  22.068  17.016  1.00  0.00     0.201 C 
ENDBRANCH  21  22
ENDBRANCH   7  21
ENDBRANCH   1   7
BRANCH   4  24
HETATM   24  C17 UNL     1      13.989  18.308  20.849  1.00  0.00     0.066 C 
HETATM   25  C19 UNL     1      14.900  17.197  20.430  1.00  0.00     0.137 C 
HETATM   26  C20 UNL     1      14.051  15.972  20.469  1.00  0.00     0.067 C 
HETATM   27  C21 UNL     1      12.666  16.443  20.134  1.00  0.00     0.150 C 
HETATM   28  C22 UNL     1      12.565  17.864  20.662  1.00  0.00     0.163 C 
BRANCH  24  29
HETATM   29  C18 UNL     1      14.191  18.471  22.344  1.00  0.00     0.181 C 
BRANCH  29  30
HETATM   30  O3  UNL     1      12.926  18.318  22.975  1.00  0.00    -0.400 OA
ATOM     31  H3  UNL     1      13.026  17.689  23.680  1.00  0.00     0.209 HD
ENDBRANCH  29  30
ENDBRANCH  24  29
BRANCH  25  32
HETATM   32  O4  UNL     1      15.434  17.313  19.165  1.00  0.00    -0.394 OA
ATOM     33  H4  UNL     1      15.612  16.492  18.720  1.00  0.00     0.210 HD
ENDBRANCH  25  32
BRANCH  27  34
HETATM   34  O5  UNL     1      11.681  15.621  20.681  1.00  0.00    -0.393 OA
ATOM     35  H5  UNL     1      10.818  16.017  20.641  1.00  0.00     0.210 HD
ENDBRANCH  27  34
BRANCH  28  36
HETATM   36  O6  UNL     1      11.809  18.674  19.858  1.00  0.00    -0.392 OA
ATOM     37  H6  UNL     1      11.556  18.289  19.027  1.00  0.00     0.210 HD
ENDBRANCH  28  36
ENDBRANCH   4  24
TORSDOF 16
ENDMDL
MODEL 3
REMARK VINA RESULT: -6.981886576      1.971      2.846
REMARK  16 active torsions:
REMARK  status: ('A' for Active; 'I' for Inactive)
REMARK    1  A    between atoms: C2_2  and  C3_3 
REMARK    2  A    between atoms: C3_3  and  C4_4 
REMARK    3  A    between atoms: C3_3  and  C23_35 
REMARK    4  A    between atoms: C4_4  and  O1_5 
REMARK    5  A    between atoms: C5_7  and  C6_8 
REMARK    6  A    between atoms: C6_8  and  C8_10 
REMARK    7  A    between atoms: C8_10  and  C9_11 
REMARK    8  A    between atoms: C9_11  and  C10_12 
REMARK    9  A    between atoms: C9_11  and  C12_15 
REMARK   10  A    between atoms: C10_12  and  O2_13 
REMARK   11  A    between atoms: C15_18  and  C17_20 
REMARK   12  A    between atoms: C17_20  and  C18_21 
REMARK   13  A    between atoms: C18_21  and  O3_22 
REMARK   14  A    between atoms: C19_24  and  O4_25 
REMARK   15  A    between atoms: C21_28  and  O5_29 
REMARK   16  A    between atoms: C22_31  and  O6_32 
ROOT
HETATM    1  C12 UNL     1      15.698  19.137  21.459  1.00  0.00     0.132 C 
HETATM    2  C13 UNL     1      15.832  18.698  20.052  1.00  0.00     0.036 C 
HETATM    3  C14 UNL     1      15.880  17.190  20.187  1.00  0.00     0.041 C 
HETATM    4  C15 UNL     1      16.196  16.944  21.617  1.00  0.00     0.072 C 
HETATM    5  C16 UNL     1      17.632  16.517  21.769  1.00  0.00     0.047 C 
HETATM    6  O7  UNL     1      16.071  18.144  22.303  1.00  0.00    -0.373 OA
ENDROOT
BRANCH   1   7
HETATM    7  C9  UNL     1      16.327  20.503  21.769  1.00  0.00     0.061 C 
BRANCH   7   8
HETATM    8  C8  UNL     1      17.585  20.699  21.061  1.00  0.00    -0.011 C 
BRANCH   8   9
HETATM    9  C6  UNL     1      18.857  20.133  21.525  1.00  0.00    -0.063 C 
HETATM   10  C7  UNL     1      20.070  20.472  20.704  1.00  0.00     0.048 C 
BRANCH   9  11
HETATM   11  C5  UNL     1      19.063  20.083  22.982  1.00  0.00     0.038 C 
HETATM   12  C4  UNL     1      19.839  19.249  23.579  1.00  0.00     0.048 C 
BRANCH  12  13
HETATM   13  C3  UNL     1      20.102  19.142  25.075  1.00  0.00     0.045 C 
BRANCH  13  14
HETATM   14  C2  UNL     1      18.686  18.977  25.640  1.00  0.00     0.007 C 
HETATM   15  C1  UNL     1      18.503  17.911  26.642  1.00  0.00     0.006 C 
ENDBRANCH  13  14
BRANCH  13  16
HETATM   16  C23 UNL     1      20.834  20.318  25.583  1.00  0.00    -0.012 C 
HETATM   17  C24 UNL     1      22.337  20.092  25.310  1.00  0.00     0.010 C 
HETATM   18  C25 UNL     1      20.756  20.588  27.061  1.00  0.00     0.010 C 
ENDBRANCH  13  16
ENDBRANCH  12  13
BRANCH  12  19
HETATM   19  O1  UNL     1      20.569  18.297  22.874  1.00  0.00    -0.365 OA
ATOM     20  H1  UNL     1      21.482  18.549  22.804  1.00  0.00     0.217 HD
ENDBRANCH  12  19
ENDBRANCH   9  11
ENDBRANCH   8   9
ENDBRANCH   7   8
BRANCH   7  21
HETATM   21  C10 UNL     1      15.250  21.510  21.661  1.00  0.00     0.178 C 
BRANCH  21  22
HETATM   22  O2  UNL     1      14.096  21.241  22.384  1.00  0.00    -0.395 OA
HETATM   23  C11 UNL     1      13.039  22.071  22.151  1.00  0.00     0.201 C 
ENDBRANCH  21  22
ENDBRANCH   7  21
ENDBRANCH   1   7
BRANCH   4  24
HETATM   24  C17 UNL     1      15.221  15.971  22.214  1.00  0.00     0.066 C 
HETATM   25  C19 UNL     1      15.147  16.041  23.707  1.00  0.00     0.137 C 
HETATM   26  C20 UNL     1      14.863  14.643  24.141  1.00  0.00     0.067 C 
HETATM   27  C21 UNL     1      15.520  13.770  23.113  1.00  0.00     0.150 C 
HETATM   28  C22 UNL     1      15.467  14.545  21.807  1.00  0.00     0.163 C 
BRANCH  24  29
HETATM   29  C18 UNL     1      13.833  16.322  21.712  1.00  0.00     0.181 C 
BRANCH  29  30
HETATM   30  O3  UNL     1      13.263  17.256  22.620  1.00  0.00    -0.400 OA
ATOM     31  H3  UNL     1      12.916  17.981  22.114  1.00  0.00     0.209 HD
ENDBRANCH  29  30
ENDBRANCH  24  29
BRANCH  25  32
HETATM   32  O4  UNL     1      16.298  16.463  24.338  1.00  0.00    -0.394 OA
ATOM     33  H4  UNL     1      16.448  16.096  25.202  1.00  0.00     0.210 HD
ENDBRANCH  25  32
BRANCH  27  34
HETATM   34  O5  UNL     1      14.898  12.528  22.997  1.00  0.00    -0.393 OA
ATOM     35  H5  UNL     1      14.825  12.244  22.093  1.00  0.00     0.210 HD
ENDBRANCH  27  34
BRANCH  28  36
HETATM   36  O6  UNL     1      16.579  14.351  21.031  1.00  0.00    -0.392 OA
ATOM     37  H6  UNL     1      16.710  13.458  20.736  1.00  0.00     0.210 HD
ENDBRANCH  28  36
ENDBRANCH   4  24
TORSDOF 16
ENDMDL
MODEL 4
REMARK VINA RESULT: -6.934046752      1.526      2.711
REMARK  16 active torsions:
REMARK  status: ('A' for Active; 'I' for Inactive)
REMARK    1  A    between atoms: C2_2  and  C3_3 
REMARK    2  A    between atoms: C3_3  and  C4_4 
REMARK    3  A    between atoms: C3_3  and  C23_35 
REMARK    4  A    between atoms: C4_4  and  O1_5 
REMARK    5  A    between atoms: C5_7  and  C6_8 
REMARK    6  A    between atoms: C6_8  and  C8_10 
REMARK    7  A    between atoms: C8_10  and  C9_11 
REMARK    8  A    between atoms: C9_11  and  C10_12 
REMARK    9  A    between atoms: C9_11  and  C12_15 
REMARK   10  A    between atoms: C10_12  and  O2_13 
REMARK   11  A    between atoms: C15_18  and  C17_20 
REMARK   12  A    between atoms: C17_20  and  C18_21 
REMARK   13  A    between atoms: C18_21  and  O3_22 
REMARK   14  A    between atoms: C19_24  and  O4_25 
REMARK   15  A    between atoms: C21_28  and  O5_29 
REMARK   16  A    between atoms: C22_31  and  O6_32 
ROOT
HETATM    1  C12 UNL     1      16.016  19.225  20.592  1.00  0.00     0.132 C 
HETATM    2  C13 UNL     1      16.631  18.070  21.283  1.00  0.00     0.036 C 
HETATM    3  C14 UNL     1      15.476  17.092  21.368  1.00  0.00     0.041 C 
HETATM    4  C15 UNL     1      14.263  17.913  21.125  1.00  0.00     0.072 C 
HETATM    5  C16 UNL     1      13.524  18.149  22.416  1.00  0.00     0.047 C 
HETATM    6  O7  UNL     1      14.665  19.162  20.673  1.00  0.00    -0.373 OA
ENDROOT
BRANCH   1   7
HETATM    7  C9  UNL     1      16.612  20.590  20.968  1.00  0.00     0.061 C 
BRANCH   7   8
HETATM    8  C8  UNL     1      17.686  20.983  20.066  1.00  0.00    -0.011 C 
BRANCH   8   9
HETATM    9  C6  UNL     1      19.092  20.635  20.303  1.00  0.00    -0.063 C 
HETATM   10  C7  UNL     1      20.095  21.277  19.384  1.00  0.00     0.048 C 
BRANCH   9  11
HETATM   11  C5  UNL     1      19.509  20.496  21.707  1.00  0.00     0.038 C 
HETATM   12  C4  UNL     1      19.998  19.421  22.218  1.00  0.00     0.048 C 
BRANCH  12  13
HETATM   13  C3  UNL     1      20.450  19.206  23.656  1.00  0.00     0.045 C 
BRANCH  13  14
HETATM   14  C2  UNL     1      20.591  17.681  23.726  1.00  0.00     0.007 C 
HETATM   15  C1  UNL     1      21.858  17.167  24.277  1.00  0.00     0.006 C 
ENDBRANCH  13  14
BRANCH  13  16
HETATM   16  C23 UNL     1      19.491  19.781  24.619  1.00  0.00    -0.012 C 
HETATM   17  C24 UNL     1      20.273  20.154  25.897  1.00  0.00     0.010 C 
HETATM   18  C25 UNL     1      18.384  18.884  25.101  1.00  0.00     0.010 C 
ENDBRANCH  13  16
ENDBRANCH  12  13
BRANCH  12  19
HETATM   19  O1  UNL     1      20.176  18.268  21.460  1.00  0.00    -0.365 OA
ATOM     20  H1  UNL     1      19.385  18.046  20.984  1.00  0.00     0.217 HD
ENDBRANCH  12  19
ENDBRANCH   9  11
ENDBRANCH   8   9
ENDBRANCH   7   8
BRANCH   7  21
HETATM   21  C10 UNL     1      15.478  21.504  21.215  1.00  0.00     0.178 C 
BRANCH  21  22
HETATM   22  O2  UNL     1      15.126  22.331  20.157  1.00  0.00    -0.395 OA
HETATM   23  C11 UNL     1      13.791  22.431  19.896  1.00  0.00     0.201 C 
ENDBRANCH  21  22
ENDBRANCH   7  21
ENDBRANCH   1   7
BRANCH   4  24
HETATM   24  C17 UNL     1      13.409  17.291  20.059  1.00  0.00     0.066 C 
HETATM   25  C19 UNL     1      12.420  18.240  19.458  1.00  0.00     0.137 C 
HETATM   26  C20 UNL     1      11.240  17.396  19.117  1.00  0.00     0.067 C 
HETATM   27  C21 UNL     1      11.229  16.301  20.143  1.00  0.00     0.150 C 
HETATM   28  C22 UNL     1      12.683  16.056  20.512  1.00  0.00     0.163 C 
BRANCH  24  29
HETATM   29  C18 UNL     1      14.314  16.858  18.920  1.00  0.00     0.181 C 
BRANCH  29  30
HETATM   30  O3  UNL     1      14.330  17.900  17.954  1.00  0.00    -0.400 OA
ATOM     31  H3  UNL     1      15.238  18.116  17.772  1.00  0.00     0.209 HD
ENDBRANCH  29  30
ENDBRANCH  24  29
BRANCH  25  32
HETATM   32  O4  UNL     1      11.998  19.259  20.286  1.00  0.00    -0.394 OA
ATOM     33  H4  UNL     1      11.136  19.143  20.669  1.00  0.00     0.210 HD
ENDBRANCH  25  32
BRANCH  27  34
HETATM   34  O5  UNL     1      10.617  15.140  19.671  1.00  0.00    -0.393 OA
ATOM     35  H5  UNL     1      10.579  14.459  20.333  1.00  0.00     0.210 HD
ENDBRANCH  27  34
BRANCH  28  36
HETATM   36  O6  UNL     1      12.847  15.744  21.835  1.00  0.00    -0.392 OA
ATOM     37  H6  UNL     1      13.058  16.481  22.396  1.00  0.00     0.210 HD
ENDBRANCH  28  36
ENDBRANCH   4  24
TORSDOF 16
ENDMDL
MODEL 5
REMARK VINA RESULT: -6.930785288      1.550      2.536
REMARK  16 active torsions:
REMARK  status: ('A' for Active; 'I' for Inactive)
REMARK    1  A    between atoms: C2_2  and  C3_3 
REMARK    2  A    between atoms: C3_3  and  C4_4 
REMARK    3  A    between atoms: C3_3  and  C23_35 
REMARK    4  A    between atoms: C4_4  and  O1_5 
REMARK    5  A    between atoms: C5_7  and  C6_8 
REMARK    6  A    between atoms: C6_8  and  C8_10 
REMARK    7  A    between atoms: C8_10  and  C9_11 
REMARK    8  A    between atoms: C9_11  and  C10_12 
REMARK    9  A    between atoms: C9_11  and  C12_15 
REMARK   10  A    between atoms: C10_12  and  O2_13 
REMARK   11  A    between atoms: C15_18  and  C17_20 
REMARK   12  A    between atoms: C17_20  and  C18_21 
REMARK   13  A    between atoms: C18_21  and  O3_22 
REMARK   14  A    between atoms: C19_24  and  O4_25 
REMARK   15  A    between atoms: C21_28  and  O5_29 
REMARK   16  A    between atoms: C22_31  and  O6_32 
ROOT
HETATM    1  C12 UNL     1      15.976  19.024  20.718  1.00  0.00     0.132 C 
HETATM    2  C13 UNL     1      16.502  17.917  21.548  1.00  0.00     0.036 C 
HETATM    3  C14 UNL     1      15.327  16.961  21.593  1.00  0.00     0.041 C 
HETATM    4  C15 UNL     1      14.157  17.774  21.176  1.00  0.00     0.072 C 
HETATM    5  C16 UNL     1      13.304  18.114  22.369  1.00  0.00     0.047 C 
HETATM    6  O7  UNL     1      14.622  18.982  20.673  1.00  0.00    -0.373 OA
ENDROOT
BRANCH   1   7
HETATM    7  C9  UNL     1      16.557  20.407  21.047  1.00  0.00     0.061 C 
BRANCH   7   8
HETATM    8  C8  UNL     1      17.794  20.666  20.323  1.00  0.00    -0.011 C 
BRANCH   8   9
HETATM    9  C6  UNL     1      19.121  20.417  20.898  1.00  0.00    -0.063 C 
HETATM   10  C7  UNL     1      20.260  21.189  20.290  1.00  0.00     0.048 C 
BRANCH   9  11
HETATM   11  C5  UNL     1      19.183  20.228  22.356  1.00  0.00     0.038 C 
HETATM   12  C4  UNL     1      19.771  19.243  22.938  1.00  0.00     0.048 C 
BRANCH  12  13
HETATM   13  C3  UNL     1      19.876  18.986  24.435  1.00  0.00     0.045 C 
BRANCH  13  14
HETATM   14  C2  UNL     1      18.403  18.869  24.846  1.00  0.00     0.007 C 
HETATM   15  C1  UNL     1      17.888  17.503  25.050  1.00  0.00     0.006 C 
ENDBRANCH  13  14
BRANCH  13  16
HETATM   16  C23 UNL     1      20.623  20.059  25.119  1.00  0.00    -0.012 C 
HETATM   17  C24 UNL     1      22.130  19.773  24.938  1.00  0.00     0.010 C 
HETATM   18  C25 UNL     1      20.438  20.180  26.607  1.00  0.00     0.010 C 
ENDBRANCH  13  16
ENDBRANCH  12  13
BRANCH  12  19
HETATM   19  O1  UNL     1      20.415  18.245  22.213  1.00  0.00    -0.365 OA
ATOM     20  H1  UNL     1      21.346  18.424  22.140  1.00  0.00     0.217 HD
ENDBRANCH  12  19
ENDBRANCH   9  11
ENDBRANCH   8   9
ENDBRANCH   7   8
BRANCH   7  21
HETATM   21  C10 UNL     1      15.441  21.373  20.980  1.00  0.00     0.178 C 
BRANCH  21  22
HETATM   22  O2  UNL     1      14.750  21.583  22.166  1.00  0.00    -0.395 OA
HETATM   23  C11 UNL     1      13.452  21.982  22.038  1.00  0.00     0.201 C 
ENDBRANCH  21  22
ENDBRANCH   7  21
ENDBRANCH   1   7
BRANCH   4  24
HETATM   24  C17 UNL     1      13.398  17.083  20.081  1.00  0.00     0.066 C 
HETATM   25  C19 UNL     1      12.469  17.990  19.335  1.00  0.00     0.137 C 
HETATM   26  C20 UNL     1      11.320  17.123  18.947  1.00  0.00     0.067 C 
HETATM   27  C21 UNL     1      11.215  16.097  20.037  1.00  0.00     0.150 C 
HETATM   28  C22 UNL     1      12.629  15.879  20.547  1.00  0.00     0.163 C 
BRANCH  24  29
HETATM   29  C18 UNL     1      14.397  16.579  19.056  1.00  0.00     0.181 C 
BRANCH  29  30
HETATM   30  O3  UNL     1      14.506  17.558  18.032  1.00  0.00    -0.400 OA
ATOM     31  H3  UNL     1      14.993  17.175  17.312  1.00  0.00     0.209 HD
ENDBRANCH  29  30
ENDBRANCH  24  29
BRANCH  25  32
HETATM   32  O4  UNL     1      11.980  19.059  20.055  1.00  0.00    -0.394 OA
ATOM     33  H4  UNL     1      11.309  19.572  19.620  1.00  0.00     0.210 HD
ENDBRANCH  25  32
BRANCH  27  34
HETATM   34  O5  UNL     1      10.642  14.907  19.590  1.00  0.00    -0.393 OA
ATOM     35  H5  UNL     1      10.589  14.252  20.277  1.00  0.00     0.210 HD
ENDBRANCH  27  34
BRANCH  28  36
HETATM   36  O6  UNL     1      12.676  15.654  21.897  1.00  0.00    -0.392 OA
ATOM     37  H6  UNL     1      12.538  14.750  22.156  1.00  0.00     0.210 HD
ENDBRANCH  28  36
ENDBRANCH   4  24
TORSDOF 16
ENDMDL
