MODEL 1
REMARK VINA RESULT: -8.062742598      0.000      0.000
REMARK  13 active torsions:
REMARK  status: ('A' for Active; 'I' for Inactive)
REMARK    1  A    between atoms: C2_2  and  C3_3 
REMARK    2  A    between atoms: C3_3  and  C4_4 
REMARK    3  A    between atoms: C4_4  and  C5_5 
REMARK    4  A    between atoms: N1_10  and  C9_11 
REMARK    5  A    between atoms: C9_11  and  C10_12 
REMARK    6  A    between atoms: C10_12  and  N2_13 
REMARK    7  A    between atoms: N2_13  and  C11_15 
REMARK    8  A    between atoms: C12_18  and  N4_19 
REMARK    9  A    between atoms: C15_27  and  C16_28 
REMARK   10  A    between atoms: C16_28  and  C17_29 
REMARK   11  A    between atoms: C17_29  and  C18_30 
REMARK   12  A    between atoms: C18_30  and  O3_32 
REMARK   13  A    between atoms: O3_32  and  C19_33 
ROOT
HETATM    1  C11 UNL     1      19.071  18.814  22.002  1.00  0.00     0.681 A 
HETATM    2  N3  UNL     1      19.266  20.010  21.431  1.00  0.00    -0.176 N 
ATOM      3  H3  UNL     1      20.224  20.306  21.238  1.00  0.00     0.186 HD
HETATM    4  C12 UNL     1      18.247  20.852  21.093  1.00  0.00     0.131 A 
HETATM    5  C13 UNL     1      16.951  20.484  21.339  1.00  0.00     0.079 A 
HETATM    6  C14 UNL     1      15.856  21.296  21.021  1.00  0.00     0.051 A 
HETATM    7  N5  UNL     1      15.973  22.407  20.496  1.00  0.00    -0.398 N 
ATOM      8  H51 UNL     1      15.175  22.999  20.264  1.00  0.00     0.156 HD
ATOM      9  H52 UNL     1      16.909  22.751  20.282  1.00  0.00     0.156 HD
HETATM   10  C15 UNL     1      14.558  20.819  21.318  1.00  0.00    -0.008 A 
HETATM   11  C21 UNL     1      14.406  19.592  21.902  1.00  0.00     0.015 A 
HETATM   12  C22 UNL     1      13.015  19.141  22.189  1.00  0.00     0.069 C 
HETATM   13  N6  UNL     1      15.481  18.855  22.185  1.00  0.00    -0.344 N 
ATOM     14  H6  UNL     1      15.347  17.942  22.619  1.00  0.00     0.167 HD
HETATM   15  C23 UNL     1      16.742  19.270  21.920  1.00  0.00     0.137 A 
HETATM   16  N7  UNL     1      17.800  18.463  22.238  1.00  0.00    -0.176 N 
ATOM     17  H7  UNL     1      17.614  17.559  22.672  1.00  0.00     0.186 HD
ENDROOT
BRANCH   1  18
HETATM   18  N2  UNL     1      20.091  18.091  22.283  1.00  0.00    -0.224 N 
ATOM     19  H2  UNL     1      20.971  18.361  21.844  1.00  0.00     0.177 HD
BRANCH  18  20
HETATM   20  C10 UNL     1      20.133  16.952  23.141  1.00  0.00     0.168 C 
BRANCH  20  21
HETATM   21  C9  UNL     1      20.963  17.293  24.357  1.00  0.00     0.296 C 
BRANCH  21  22
HETATM   22  N1  UNL     1      20.288  17.166  25.601  1.00  0.00     0.121 N 
HETATM   23  C5  UNL     1      19.017  17.827  25.699  1.00  0.00     0.359 C 
HETATM   24  O1  UNL     1      18.561  17.361  26.935  1.00  0.00    -0.350 OA
HETATM   25  C6  UNL     1      18.884  16.008  26.981  1.00  0.00     0.148 C 
HETATM   26  C7  UNL     1      17.727  15.198  26.457  1.00  0.00     0.041 C 
HETATM   27  C8  UNL     1      20.134  15.841  26.107  1.00  0.00     0.307 C 
BRANCH  23  28
HETATM   28  C4  UNL     1      19.221  19.315  25.701  1.00  0.00     0.064 C 
BRANCH  28  29
HETATM   29  C3  UNL     1      20.050  19.779  26.879  1.00  0.00     0.004 C 
BRANCH  29  30
HETATM   30  C2  UNL     1      21.018  20.861  26.518  1.00  0.00    -0.004 C 
HETATM   31  C1  UNL     1      22.158  20.403  25.659  1.00  0.00     0.005 C 
ENDBRANCH  29  30
ENDBRANCH  28  29
ENDBRANCH  23  28
ENDBRANCH  21  22
ENDBRANCH  20  21
ENDBRANCH  18  20
ENDBRANCH   1  18
BRANCH   4  32
HETATM   32  N4  UNL     1      18.506  21.971  20.554  1.00  0.00    -0.384 N 
ATOM     33  H42 UNL     1      19.028  22.683  21.066  1.00  0.00     0.157 HD
ATOM     34  H41 UNL     1      18.190  22.161  19.604  1.00  0.00     0.157 HD
ENDBRANCH   4  32
BRANCH  10  35
HETATM   35  C16 UNL     1      13.402  21.695  20.972  1.00  0.00     0.053 C 
BRANCH  35  36
HETATM   36  C17 UNL     1      12.963  22.447  22.185  1.00  0.00     0.116 C 
BRANCH  36  37
HETATM   37  C18 UNL     1      13.272  23.913  22.056  1.00  0.00     0.259 C 
HETATM   38  O2  UNL     1      13.678  24.412  20.986  1.00  0.00    -0.265 OA
BRANCH  37  39
HETATM   39  O3  UNL     1      13.111  24.765  23.138  1.00  0.00    -0.322 OA
BRANCH  39  40
HETATM   40  C19 UNL     1      12.048  24.593  24.063  1.00  0.00     0.174 C 
HETATM   41  C20 UNL     1      11.938  25.888  24.847  1.00  0.00     0.034 C 
ENDBRANCH  39  40
ENDBRANCH  37  39
ENDBRANCH  36  37
ENDBRANCH  35  36
ENDBRANCH  10  35
TORSDOF 13
ENDMDL
MODEL 2
REMARK VINA RESULT: -7.931078028      1.806      2.573
REMARK  13 active torsions:
REMARK  status: ('A' for Active; 'I' for Inactive)
REMARK    1  A    between atoms: C2_2  and  C3_3 
REMARK    2  A    between atoms: C3_3  and  C4_4 
REMARK    3  A    between atoms: C4_4  and  C5_5 
REMARK    4  A    between atoms: N1_10  and  C9_11 
REMARK    5  A    between atoms: C9_11  and  C10_12 
REMARK    6  A    between atoms: C10_12  and  N2_13 
REMARK    7  A    between atoms: N2_13  and  C11_15 
REMARK    8  A    between atoms: C12_18  and  N4_19 
REMARK    9  A    between atoms: C15_27  and  C16_28 
REMARK   10  A    between atoms: C16_28  and  C17_29 
REMARK   11  A    between atoms: C17_29  and  C18_30 
REMARK   12  A    between atoms: C18_30  and  O3_32 
REMARK   13  A    between atoms: O3_32  and  C19_33 
ROOT
HETATM    1  C11 UNL     1      19.382  18.986  22.278  1.00  0.00     0.681 A 
HETATM    2  N3  UNL     1      19.526  20.176  21.680  1.00  0.00    -0.176 N 
ATOM      3  H3  UNL     1      20.470  20.522  21.507  1.00  0.00     0.186 HD
HETATM    4  C12 UNL     1      18.471  20.949  21.290  1.00  0.00     0.131 A 
HETATM    5  C13 UNL     1      17.192  20.513  21.509  1.00  0.00     0.079 A 
HETATM    6  C14 UNL     1      16.063  21.252  21.137  1.00  0.00     0.051 A 
HETATM    7  N5  UNL     1      16.132  22.354  20.585  1.00  0.00    -0.398 N 
ATOM      8  H51 UNL     1      15.309  22.893  20.314  1.00  0.00     0.156 HD
ATOM      9  H52 UNL     1      17.053  22.745  20.389  1.00  0.00     0.156 HD
HETATM   10  C15 UNL     1      14.785  20.709  21.410  1.00  0.00    -0.008 A 
HETATM   11  C21 UNL     1      14.685  19.491  22.022  1.00  0.00     0.015 A 
HETATM   12  C22 UNL     1      13.314  18.968  22.283  1.00  0.00     0.069 C 
HETATM   13  N6  UNL     1      15.791  18.824  22.357  1.00  0.00    -0.344 N 
ATOM     14  H6  UNL     1      15.697  17.917  22.812  1.00  0.00     0.167 HD
HETATM   15  C23 UNL     1      17.034  19.304  22.117  1.00  0.00     0.137 A 
HETATM   16  N7  UNL     1      18.126  18.569  22.487  1.00  0.00    -0.176 N 
ATOM     17  H7  UNL     1      17.979  17.667  22.940  1.00  0.00     0.186 HD
ENDROOT
BRANCH   1  18
HETATM   18  N2  UNL     1      20.432  18.330  22.608  1.00  0.00    -0.224 N 
ATOM     19  H2  UNL     1      21.323  18.808  22.477  1.00  0.00     0.177 HD
BRANCH  18  20
HETATM   20  C10 UNL     1      20.495  17.008  23.139  1.00  0.00     0.168 C 
BRANCH  20  21
HETATM   21  C9  UNL     1      21.353  17.025  24.382  1.00  0.00     0.296 C 
BRANCH  21  22
HETATM   22  N1  UNL     1      22.677  17.507  24.194  1.00  0.00     0.121 N 
HETATM   23  C5  UNL     1      23.228  18.274  25.275  1.00  0.00     0.359 C 
HETATM   24  O1  UNL     1      24.553  18.424  24.857  1.00  0.00    -0.350 OA
HETATM   25  C6  UNL     1      24.935  17.193  24.332  1.00  0.00     0.148 C 
HETATM   26  C7  UNL     1      25.568  16.361  25.416  1.00  0.00     0.041 C 
HETATM   27  C8  UNL     1      23.652  16.545  23.796  1.00  0.00     0.307 C 
BRANCH  23  28
HETATM   28  C4  UNL     1      22.517  19.592  25.373  1.00  0.00     0.064 C 
BRANCH  28  29
HETATM   29  C3  UNL     1      21.955  19.840  26.756  1.00  0.00     0.004 C 
BRANCH  29  30
HETATM   30  C2  UNL     1      20.626  20.525  26.729  1.00  0.00    -0.004 C 
HETATM   31  C1  UNL     1      19.624  19.884  25.817  1.00  0.00     0.005 C 
ENDBRANCH  29  30
ENDBRANCH  28  29
ENDBRANCH  23  28
ENDBRANCH  21  22
ENDBRANCH  20  21
ENDBRANCH  18  20
ENDBRANCH   1  18
BRANCH   4  32
HETATM   32  N4  UNL     1      18.682  22.067  20.728  1.00  0.00    -0.384 N 
ATOM     33  H42 UNL     1      18.605  22.934  21.259  1.00  0.00     0.157 HD
ATOM     34  H41 UNL     1      18.932  22.098  19.740  1.00  0.00     0.157 HD
ENDBRANCH   4  32
BRANCH  10  35
HETATM   35  C16 UNL     1      13.592  21.508  21.006  1.00  0.00     0.053 C 
BRANCH  35  36
HETATM   36  C17 UNL     1      13.088  22.282  22.180  1.00  0.00     0.116 C 
BRANCH  36  37
HETATM   37  C18 UNL     1      13.315  23.756  21.995  1.00  0.00     0.259 C 
HETATM   38  O2  UNL     1      13.672  24.239  20.901  1.00  0.00    -0.265 OA
BRANCH  37  39
HETATM   39  O3  UNL     1      13.131  24.635  23.051  1.00  0.00    -0.322 OA
BRANCH  39  40
HETATM   40  C19 UNL     1      12.038  24.498  23.946  1.00  0.00     0.174 C 
HETATM   41  C20 UNL     1      11.998  25.762  24.785  1.00  0.00     0.034 C 
ENDBRANCH  39  40
ENDBRANCH  37  39
ENDBRANCH  36  37
ENDBRANCH  35  36
ENDBRANCH  10  35
TORSDOF 13
ENDMDL
MODEL 3
REMARK VINA RESULT: -7.794009214      1.011      1.226
REMARK  13 active torsions:
REMARK  status: ('A' for Active; 'I' for Inactive)
REMARK    1  A    between atoms: C2_2  and  C3_3 
REMARK    2  A    between atoms: C3_3  and  C4_4 
REMARK    3  A    between atoms: C4_4  and  C5_5 
REMARK    4  A    between atoms: N1_10  and  C9_11 
REMARK    5  A    between atoms: C9_11  and  C10_12 
REMARK    6  A    between atoms: C10_12  and  N2_13 
REMARK    7  A    between atoms: N2_13  and  C11_15 
REMARK    8  A    between atoms: C12_18  and  N4_19 
REMARK    9  A    between atoms: C15_27  and  C16_28 
REMARK   10  A    between atoms: C16_28  and  C17_29 
REMARK   11  A    between atoms: C17_29  and  C18_30 
REMARK   12  A    between atoms: C18_30  and  O3_32 
REMARK   13  A    between atoms: O3_32  and  C19_33 
ROOT
HETATM    1  C11 UNL     1      18.962  19.060  22.428  1.00  0.00     0.681 A 
HETATM    2  N3  UNL     1      19.175  20.222  21.798  1.00  0.00    -0.176 N 
ATOM      3  H3  UNL     1      20.138  20.528  21.654  1.00  0.00     0.186 HD
HETATM    4  C12 UNL     1      18.167  21.019  21.338  1.00  0.00     0.131 A 
HETATM    5  C13 UNL     1      16.864  20.638  21.516  1.00  0.00     0.079 A 
HETATM    6  C14 UNL     1      15.780  21.403  21.072  1.00  0.00     0.051 A 
HETATM    7  N5  UNL     1      15.914  22.483  20.488  1.00  0.00    -0.398 N 
ATOM      8  H51 UNL     1      15.124  23.041  20.164  1.00  0.00     0.156 HD
ATOM      9  H52 UNL     1      16.856  22.834  20.319  1.00  0.00     0.156 HD
HETATM   10  C15 UNL     1      14.473  20.916  21.308  1.00  0.00    -0.008 A 
HETATM   11  C21 UNL     1      14.302  19.725  21.955  1.00  0.00     0.015 A 
HETATM   12  C22 UNL     1      12.903  19.261  22.173  1.00  0.00     0.069 C 
HETATM   13  N6  UNL     1      15.368  19.031  22.359  1.00  0.00    -0.344 N 
ATOM     14  H6  UNL     1      15.220  18.143  22.839  1.00  0.00     0.167 HD
HETATM   15  C23 UNL     1      16.636  19.457  22.156  1.00  0.00     0.137 A 
HETATM   16  N7  UNL     1      17.684  18.695  22.597  1.00  0.00    -0.176 N 
ATOM     17  H7  UNL     1      17.484  17.815  23.072  1.00  0.00     0.186 HD
ENDROOT
BRANCH   1  18
HETATM   18  N2  UNL     1      19.972  18.378  22.824  1.00  0.00    -0.224 N 
ATOM     19  H2  UNL     1      20.761  18.911  23.189  1.00  0.00     0.177 HD
BRANCH  18  20
HETATM   20  C10 UNL     1      20.117  16.959  22.811  1.00  0.00     0.168 C 
BRANCH  20  21
HETATM   21  C9  UNL     1      20.341  16.483  24.228  1.00  0.00     0.296 C 
BRANCH  21  22
HETATM   22  N1  UNL     1      19.192  15.953  24.874  1.00  0.00     0.121 N 
HETATM   23  C5  UNL     1      18.294  16.914  25.450  1.00  0.00     0.359 C 
HETATM   24  O1  UNL     1      17.222  16.098  25.823  1.00  0.00    -0.350 OA
HETATM   25  C6  UNL     1      17.038  15.200  24.776  1.00  0.00     0.148 C 
HETATM   26  C7  UNL     1      16.031  15.760  23.805  1.00  0.00     0.041 C 
HETATM   27  C8  UNL     1      18.415  15.021  24.124  1.00  0.00     0.307 C 
BRANCH  23  28
HETATM   28  C4  UNL     1      18.944  17.564  26.637  1.00  0.00     0.064 C 
BRANCH  28  29
HETATM   29  C3  UNL     1      19.176  19.044  26.426  1.00  0.00     0.004 C 
BRANCH  29  30
HETATM   30  C2  UNL     1      20.613  19.434  26.572  1.00  0.00    -0.004 C 
HETATM   31  C1  UNL     1      20.838  20.911  26.691  1.00  0.00     0.005 C 
ENDBRANCH  29  30
ENDBRANCH  28  29
ENDBRANCH  23  28
ENDBRANCH  21  22
ENDBRANCH  20  21
ENDBRANCH  18  20
ENDBRANCH   1  18
BRANCH   4  32
HETATM   32  N4  UNL     1      18.443  22.109  20.750  1.00  0.00    -0.384 N 
ATOM     33  H42 UNL     1      18.817  22.103  19.800  1.00  0.00     0.157 HD
ATOM     34  H41 UNL     1      18.290  22.996  21.228  1.00  0.00     0.157 HD
ENDBRANCH   4  32
BRANCH  10  35
HETATM   35  C16 UNL     1      13.328  21.744  20.828  1.00  0.00     0.053 C 
BRANCH  35  36
HETATM   36  C17 UNL     1      12.755  22.516  21.970  1.00  0.00     0.116 C 
BRANCH  36  37
HETATM   37  C18 UNL     1      13.242  23.938  21.962  1.00  0.00     0.259 C 
HETATM   38  O2  UNL     1      13.771  24.451  20.954  1.00  0.00    -0.265 OA
BRANCH  37  39
HETATM   39  O3  UNL     1      13.115  24.733  23.091  1.00  0.00    -0.322 OA
BRANCH  39  40
HETATM   40  C19 UNL     1      12.053  24.543  24.013  1.00  0.00     0.174 C 
HETATM   41  C20 UNL     1      11.954  25.816  24.835  1.00  0.00     0.034 C 
ENDBRANCH  39  40
ENDBRANCH  37  39
ENDBRANCH  36  37
ENDBRANCH  35  36
ENDBRANCH  10  35
TORSDOF 13
ENDMDL
MODEL 4
REMARK VINA RESULT: -7.670628792      0.870      2.454
REMARK  13 active torsions:
REMARK  status: ('A' for Active; 'I' for Inactive)
REMARK    1  A    between atoms: C2_2  and  C3_3 
REMARK    2  A    between atoms: C3_3  and  C4_4 
REMARK    3  A    between atoms: C4_4  and  C5_5 
REMARK    4  A    between atoms: N1_10  and  C9_11 
REMARK    5  A    between atoms: C9_11  and  C10_12 
REMARK    6  A    between atoms: C10_12  and  N2_13 
REMARK    7  A    between atoms: N2_13  and  C11_15 
REMARK    8  A    between atoms: C12_18  and  N4_19 
REMARK    9  A    between atoms: C15_27  and  C16_28 
REMARK   10  A    between atoms: C16_28  and  C17_29 
REMARK   11  A    between atoms: C17_29  and  C18_30 
REMARK   12  A    between atoms: C18_30  and  O3_32 
REMARK   13  A    between atoms: O3_32  and  C19_33 
ROOT
HETATM    1  C11 UNL     1      19.065  18.644  21.252  1.00  0.00     0.681 A 
HETATM    2  N3  UNL     1      19.318  19.945  21.054  1.00  0.00    -0.176 N 
ATOM      3  H3  UNL     1      20.289  20.258  21.068  1.00  0.00     0.186 HD
HETATM    4  C12 UNL     1      18.341  20.871  20.834  1.00  0.00     0.131 A 
HETATM    5  C13 UNL     1      17.028  20.482  20.811  1.00  0.00     0.079 A 
HETATM    6  C14 UNL     1      15.974  21.377  20.592  1.00  0.00     0.051 A 
HETATM    7  N5  UNL     1      16.144  22.585  20.406  1.00  0.00    -0.398 N 
ATOM      8  H51 UNL     1      15.376  23.237  20.246  1.00  0.00     0.156 HD
ATOM      9  H52 UNL     1      17.096  22.951  20.410  1.00  0.00     0.156 HD
HETATM   10  C15 UNL     1      14.653  20.869  20.587  1.00  0.00    -0.008 A 
HETATM   11  C21 UNL     1      14.441  19.535  20.793  1.00  0.00     0.015 A 
HETATM   12  C22 UNL     1      13.030  19.057  20.775  1.00  0.00     0.069 C 
HETATM   13  N6  UNL     1      15.479  18.722  20.997  1.00  0.00    -0.344 N 
ATOM     14  H6  UNL     1      15.301  17.729  21.148  1.00  0.00     0.167 HD
HETATM   15  C23 UNL     1      16.759  19.162  21.011  1.00  0.00     0.137 A 
HETATM   16  N7  UNL     1      17.777  18.274  21.226  1.00  0.00    -0.176 N 
ATOM     17  H7  UNL     1      17.548  17.291  21.372  1.00  0.00     0.186 HD
ENDROOT
BRANCH   1  18
HETATM   18  N2  UNL     1      20.048  17.847  21.450  1.00  0.00    -0.224 N 
ATOM     19  H2  UNL     1      20.813  17.897  20.777  1.00  0.00     0.177 HD
BRANCH  18  20
HETATM   20  C10 UNL     1      20.194  16.899  22.505  1.00  0.00     0.168 C 
BRANCH  20  21
HETATM   21  C9  UNL     1      20.956  17.548  23.637  1.00  0.00     0.296 C 
BRANCH  21  22
HETATM   22  N1  UNL     1      20.148  18.151  24.639  1.00  0.00     0.121 N 
HETATM   23  C5  UNL     1      20.384  17.714  25.986  1.00  0.00     0.359 C 
HETATM   24  O1  UNL     1      19.586  18.607  26.707  1.00  0.00    -0.350 OA
HETATM   25  C6  UNL     1      19.767  19.853  26.114  1.00  0.00     0.148 C 
HETATM   26  C7  UNL     1      20.887  20.582  26.810  1.00  0.00     0.041 C 
HETATM   27  C8  UNL     1      20.100  19.577  24.642  1.00  0.00     0.307 C 
BRANCH  23  28
HETATM   28  C4  UNL     1      19.922  16.294  26.145  1.00  0.00     0.064 C 
BRANCH  28  29
HETATM   29  C3  UNL     1      18.654  16.191  26.964  1.00  0.00     0.004 C 
BRANCH  29  30
HETATM   30  C2  UNL     1      17.545  15.502  26.235  1.00  0.00    -0.004 C 
HETATM   31  C1  UNL     1      17.068  16.230  25.014  1.00  0.00     0.005 C 
ENDBRANCH  29  30
ENDBRANCH  28  29
ENDBRANCH  23  28
ENDBRANCH  21  22
ENDBRANCH  20  21
ENDBRANCH  18  20
ENDBRANCH   1  18
BRANCH   4  32
HETATM   32  N4  UNL     1      18.654  22.088  20.655  1.00  0.00    -0.384 N 
ATOM     33  H42 UNL     1      18.457  22.546  19.765  1.00  0.00     0.157 HD
ATOM     34  H41 UNL     1      19.105  22.610  21.405  1.00  0.00     0.157 HD
ENDBRANCH   4  32
BRANCH  10  35
HETATM   35  C16 UNL     1      13.541  21.835  20.352  1.00  0.00     0.053 C 
BRANCH  35  36
HETATM   36  C17 UNL     1      13.062  22.375  21.659  1.00  0.00     0.116 C 
BRANCH  36  37
HETATM   37  C18 UNL     1      13.350  23.845  21.777  1.00  0.00     0.259 C 
HETATM   38  O2  UNL     1      13.717  24.528  20.798  1.00  0.00    -0.265 OA
BRANCH  37  39
HETATM   39  O3  UNL     1      13.214  24.495  22.994  1.00  0.00    -0.322 OA
BRANCH  39  40
HETATM   40  C19 UNL     1      12.041  24.354  23.780  1.00  0.00     0.174 C 
HETATM   41  C20 UNL     1      11.986  25.558  24.703  1.00  0.00     0.034 C 
ENDBRANCH  39  40
ENDBRANCH  37  39
ENDBRANCH  36  37
ENDBRANCH  35  36
ENDBRANCH  10  35
TORSDOF 13
ENDMDL
MODEL 5
REMARK VINA RESULT: -7.533447724      1.880      2.819
REMARK  13 active torsions:
REMARK  status: ('A' for Active; 'I' for Inactive)
REMARK    1  A    between atoms: C2_2  and  C3_3 
REMARK    2  A    between atoms: C3_3  and  C4_4 
REMARK    3  A    between atoms: C4_4  and  C5_5 
REMARK    4  A    between atoms: N1_10  and  C9_11 
REMARK    5  A    between atoms: C9_11  and  C10_12 
REMARK    6  A    between atoms: C10_12  and  N2_13 
REMARK    7  A    between atoms: N2_13  and  C11_15 
REMARK    8  A    between atoms: C12_18  and  N4_19 
REMARK    9  A    between atoms: C15_27  and  C16_28 
REMARK   10  A    between atoms: C16_28  and  C17_29 
REMARK   11  A    between atoms: C17_29  and  C18_30 
REMARK   12  A    between atoms: C18_30  and  O3_32 
REMARK   13  A    between atoms: O3_32  and  C19_33 
ROOT
HETATM    1  C11 UNL     1      18.863  19.263  22.468  1.00  0.00     0.681 A 
HETATM    2  N3  UNL     1      18.931  20.517  22.002  1.00  0.00    -0.176 N 
ATOM      3  H3  UNL     1      19.849  20.956  21.920  1.00  0.00     0.186 HD
HETATM    4  C12 UNL     1      17.833  21.237  21.630  1.00  0.00     0.131 A 
HETATM    5  C13 UNL     1      16.588  20.677  21.729  1.00  0.00     0.079 A 
HETATM    6  C14 UNL     1      15.418  21.355  21.367  1.00  0.00     0.051 A 
HETATM    7  N5  UNL     1      15.417  22.511  20.934  1.00  0.00    -0.398 N 
ATOM      8  H51 UNL     1      14.565  23.005  20.670  1.00  0.00     0.156 HD
ATOM      9  H52 UNL     1      16.309  22.995  20.833  1.00  0.00     0.156 HD
HETATM   10  C15 UNL     1      14.181  20.682  21.508  1.00  0.00    -0.008 A 
HETATM   11  C21 UNL     1      14.158  19.403  21.989  1.00  0.00     0.015 A 
HETATM   12  C22 UNL     1      12.828  18.744  22.114  1.00  0.00     0.069 C 
HETATM   13  N6  UNL     1      15.301  18.798  22.319  1.00  0.00    -0.344 N 
ATOM     14  H6  UNL     1      15.264  17.843  22.674  1.00  0.00     0.167 HD
HETATM   15  C23 UNL     1      16.507  19.402  22.202  1.00  0.00     0.137 A 
HETATM   16  N7  UNL     1      17.640  18.724  22.560  1.00  0.00    -0.176 N 
ATOM     17  H7  UNL     1      17.550  17.770  22.910  1.00  0.00     0.186 HD
ENDROOT
BRANCH   1  18
HETATM   18  N2  UNL     1      19.949  18.665  22.792  1.00  0.00    -0.224 N 
ATOM     19  H2  UNL     1      20.810  19.052  22.406  1.00  0.00     0.177 HD
BRANCH  18  20
HETATM   20  C10 UNL     1      20.089  17.520  23.630  1.00  0.00     0.168 C 
BRANCH  20  21
HETATM   21  C9  UNL     1      21.557  17.304  23.914  1.00  0.00     0.296 C 
BRANCH  21  22
HETATM   22  N1  UNL     1      22.086  18.083  24.979  1.00  0.00     0.121 N 
HETATM   23  C5  UNL     1      22.655  19.348  24.611  1.00  0.00     0.359 C 
HETATM   24  O1  UNL     1      22.899  19.914  25.866  1.00  0.00    -0.350 OA
HETATM   25  C6  UNL     1      21.787  19.613  26.648  1.00  0.00     0.148 C 
HETATM   26  C7  UNL     1      20.785  20.732  26.546  1.00  0.00     0.041 C 
HETATM   27  C8  UNL     1      21.225  18.296  26.097  1.00  0.00     0.307 C 
BRANCH  23  28
HETATM   28  C4  UNL     1      23.924  19.126  23.839  1.00  0.00     0.064 C 
BRANCH  28  29
HETATM   29  C3  UNL     1      24.854  18.155  24.531  1.00  0.00     0.004 C 
BRANCH  29  30
HETATM   30  C2  UNL     1      25.684  17.361  23.573  1.00  0.00    -0.004 C 
HETATM   31  C1  UNL     1      24.950  16.228  22.919  1.00  0.00     0.005 C 
ENDBRANCH  29  30
ENDBRANCH  28  29
ENDBRANCH  23  28
ENDBRANCH  21  22
ENDBRANCH  20  21
ENDBRANCH  18  20
ENDBRANCH   1  18
BRANCH   4  32
HETATM   32  N4  UNL     1      17.973  22.421  21.197  1.00  0.00    -0.384 N 
ATOM     33  H42 UNL     1      18.842  22.931  21.357  1.00  0.00     0.157 HD
ATOM     34  H41 UNL     1      17.212  22.866  20.685  1.00  0.00     0.157 HD
ENDBRANCH   4  32
BRANCH  10  35
HETATM   35  C16 UNL     1      12.944  21.419  21.118  1.00  0.00     0.053 C 
BRANCH  35  36
HETATM   36  C17 UNL     1      12.264  21.938  22.342  1.00  0.00     0.116 C 
BRANCH  36  37
HETATM   37  C18 UNL     1      12.315  23.440  22.394  1.00  0.00     0.259 C 
HETATM   38  O2  UNL     1      13.171  24.095  21.764  1.00  0.00    -0.265 OA
BRANCH  37  39
HETATM   39  O3  UNL     1      11.400  24.150  23.155  1.00  0.00    -0.322 OA
BRANCH  39  40
HETATM   40  C19 UNL     1      11.566  24.306  24.556  1.00  0.00     0.174 C 
HETATM   41  C20 UNL     1      12.016  25.737  24.787  1.00  0.00     0.034 C 
ENDBRANCH  39  40
ENDBRANCH  37  39
ENDBRANCH  36  37
ENDBRANCH  35  36
ENDBRANCH  10  35
TORSDOF 13
ENDMDL
