MODEL 1
REMARK VINA RESULT: -6.086678921      0.000      0.000
REMARK  14 active torsions:
REMARK  status: ('A' for Active; 'I' for Inactive)
REMARK    1  A    between atoms: O1_2  and  C2_3 
REMARK       I    between atoms: C2_3  and  N1_5 
REMARK    2  A    between atoms: N1_5  and  C3_7 
REMARK    3  A    between atoms: C3_7  and  C4_8 
REMARK    4  A    between atoms: C3_7  and  C6_12 
REMARK    5  A    between atoms: C3_7  and  C8_16 
REMARK    6  A    between atoms: C4_8  and  O4_10 
REMARK    7  A    between atoms: C6_12  and  O6_14 
REMARK    8  A    between atoms: C9_17  and  O7_18 
REMARK    9  A    between atoms: C10_20  and  C11_21 
REMARK   10  A    between atoms: C11_21  and  O8_22 
REMARK   11  A    between atoms: C11_21  and  N2_24 
REMARK   12  A    between atoms: N2_24  and  N3_25 
REMARK   13  A    between atoms: C12_31  and  N5_32 
REMARK       I    between atoms: N5_32  and  C13_34 
REMARK   14  A    between atoms: N7_36  and  O10_38 
ROOT
HETATM    1  C8  UNL     1      37.833  -0.371  13.156  1.00  0.00     0.079 A 
HETATM    2  C9  UNL     1      37.043  -0.819  12.092  1.00  0.00     0.108 A 
HETATM    3  C10 UNL     1      36.306  -1.946  12.143  1.00  0.00     0.112 A 
HETATM    4  N4  UNL     1      36.321  -2.703  13.272  1.00  0.00    -0.257 N 
ATOM      5  H4  UNL     1      35.774  -3.562  13.335  1.00  0.00     0.195 HD
HETATM    6  O9  UNL     1      37.036  -2.311  14.247  1.00  0.00    -0.219 OA
HETATM    7  C12 UNL     1      37.777  -1.219  14.269  1.00  0.00     0.185 A 
ENDROOT
BRANCH   1   8
HETATM    8  C3  UNL     1      38.520   0.911  13.235  1.00  0.00     0.246 C 
BRANCH   8   9
HETATM    9  N1  UNL     1      37.835   2.119  13.043  1.00  0.00    -0.306 N 
HETATM   10  C2  UNL     1      36.565   2.646  13.146  1.00  0.00     0.361 C 
HETATM   11  O2  UNL     1      35.502   2.114  13.484  1.00  0.00    -0.238 OA
ATOM     12  H1  UNL     1      38.483   2.839  12.724  1.00  0.00     0.167 HD
BRANCH  10  13
HETATM   13  O1  UNL     1      36.345   4.044  12.826  1.00  0.00    -0.309 OA
HETATM   14  C1  UNL     1      35.904   4.902  13.855  1.00  0.00     0.215 C 
ENDBRANCH  10  13
ENDBRANCH   8   9
BRANCH   8  15
HETATM   15  C4  UNL     1      39.651   0.825  12.159  1.00  0.00     0.302 C 
HETATM   16  O3  UNL     1      40.230   1.871  11.891  1.00  0.00    -0.261 OA
BRANCH  15  17
HETATM   17  O4  UNL     1      39.940  -0.359  11.580  1.00  0.00    -0.324 OA
HETATM   18  C5  UNL     1      41.002  -0.625  10.708  1.00  0.00     0.213 C 
ENDBRANCH  15  17
ENDBRANCH   8  15
BRANCH   8  19
HETATM   19  C6  UNL     1      39.378   0.996  14.472  1.00  0.00     0.302 C 
HETATM   20  O5  UNL     1      38.983   1.719  15.415  1.00  0.00    -0.261 OA
BRANCH  19  21
HETATM   21  O6  UNL     1      40.589   0.317  14.586  1.00  0.00    -0.324 OA
HETATM   22  C7  UNL     1      41.643   0.808  15.360  1.00  0.00     0.213 C 
ENDBRANCH  19  21
ENDBRANCH   8  19
ENDBRANCH   1   8
BRANCH   2  23
HETATM   23  O7  UNL     1      37.056  -0.064  10.971  1.00  0.00    -0.358 OA
ATOM     24  H7  UNL     1      36.865  -0.513  10.156  1.00  0.00     0.217 HD
ENDBRANCH   2  23
BRANCH   7  25
HETATM   25  N5  UNL     1      38.406  -1.015  15.362  1.00  0.00    -0.307 N 
HETATM   26  C13 UNL     1      38.776  -2.019  16.268  1.00  0.00     0.214 C 
HETATM   27  N6  UNL     1      38.652  -1.865  17.694  1.00  0.00    -0.061 NA
HETATM   28  N7  UNL     1      39.254  -3.136  15.838  1.00  0.00    -0.241 N 
ATOM     29  H7  UNL     1      39.358  -3.280  14.833  1.00  0.00     0.197 HD
ATOM     30  H5  UNL     1      38.656  -0.053  15.593  1.00  0.00     0.170 HD
BRANCH  28  31
HETATM   31  O10 UNL     1      39.623  -4.131  16.697  1.00  0.00    -0.287 OA
ATOM     32  H10 UNL     1      39.020  -4.472  17.348  1.00  0.00     0.244 HD
ENDBRANCH  28  31
ENDBRANCH   7  25
BRANCH   3  33
HETATM   33  C11 UNL     1      35.420  -2.350  11.020  1.00  0.00     0.285 C 
BRANCH  33  34
HETATM   34  O8  UNL     1      34.358  -1.484  10.864  1.00  0.00    -0.372 OA
ATOM     35  H8  UNL     1      34.545  -0.804  10.228  1.00  0.00     0.212 HD
ENDBRANCH  33  34
BRANCH  33  36
HETATM   36  N2  UNL     1      34.926  -3.706  11.182  1.00  0.00    -0.110 NA
BRANCH  36  37
HETATM   37  N3  UNL     1      35.489  -4.458  10.116  1.00  0.00    -0.346 N 
ATOM     38  H32 UNL     1      36.428  -4.350   9.732  1.00  0.00     0.172 HD
ATOM     39  H31 UNL     1      34.767  -5.116   9.823  1.00  0.00     0.172 HD
ENDBRANCH  36  37
ENDBRANCH  33  36
ENDBRANCH   3  33
TORSDOF 14
ENDMDL
MODEL 2
REMARK VINA RESULT: -5.686779698      1.996      4.888
REMARK  14 active torsions:
REMARK  status: ('A' for Active; 'I' for Inactive)
REMARK    1  A    between atoms: O1_2  and  C2_3 
REMARK       I    between atoms: C2_3  and  N1_5 
REMARK    2  A    between atoms: N1_5  and  C3_7 
REMARK    3  A    between atoms: C3_7  and  C4_8 
REMARK    4  A    between atoms: C3_7  and  C6_12 
REMARK    5  A    between atoms: C3_7  and  C8_16 
REMARK    6  A    between atoms: C4_8  and  O4_10 
REMARK    7  A    between atoms: C6_12  and  O6_14 
REMARK    8  A    between atoms: C9_17  and  O7_18 
REMARK    9  A    between atoms: C10_20  and  C11_21 
REMARK   10  A    between atoms: C11_21  and  O8_22 
REMARK   11  A    between atoms: C11_21  and  N2_24 
REMARK   12  A    between atoms: N2_24  and  N3_25 
REMARK   13  A    between atoms: C12_31  and  N5_32 
REMARK       I    between atoms: N5_32  and  C13_34 
REMARK   14  A    between atoms: N7_36  and  O10_38 
ROOT
HETATM    1  C8  UNL     1      38.109  -0.939  13.290  1.00  0.00     0.079 A 
HETATM    2  C9  UNL     1      37.382  -2.128  13.173  1.00  0.00     0.108 A 
HETATM    3  C10 UNL     1      36.124  -2.180  12.692  1.00  0.00     0.112 A 
HETATM    4  N4  UNL     1      35.511  -1.031  12.302  1.00  0.00    -0.257 N 
ATOM      5  H4  UNL     1      34.559  -1.043  11.937  1.00  0.00     0.195 HD
HETATM    6  O9  UNL     1      36.158   0.058  12.405  1.00  0.00    -0.219 OA
HETATM    7  C12 UNL     1      37.390   0.182  12.861  1.00  0.00     0.185 A 
ENDROOT
BRANCH   1   8
HETATM    8  C3  UNL     1      39.519  -0.826  13.643  1.00  0.00     0.246 C 
BRANCH   8   9
HETATM    9  N1  UNL     1      40.524  -1.311  12.793  1.00  0.00    -0.306 N 
HETATM   10  C2  UNL     1      40.944  -1.214  11.484  1.00  0.00     0.361 C 
HETATM   11  O2  UNL     1      40.471  -0.578  10.537  1.00  0.00    -0.238 OA
ATOM     12  H1  UNL     1      41.143  -1.935  13.310  1.00  0.00     0.167 HD
BRANCH  10  13
HETATM   13  O1  UNL     1      42.122  -1.945  11.057  1.00  0.00    -0.309 OA
HETATM   14  C1  UNL     1      43.376  -1.306  11.159  1.00  0.00     0.215 C 
ENDBRANCH  10  13
ENDBRANCH   8   9
BRANCH   8  15
HETATM   15  C4  UNL     1      39.649  -1.569  15.012  1.00  0.00     0.302 C 
HETATM   16  O3  UNL     1      40.661  -2.240  15.176  1.00  0.00    -0.261 OA
BRANCH  15  17
HETATM   17  O4  UNL     1      38.674  -1.450  15.937  1.00  0.00    -0.324 OA
HETATM   18  C5  UNL     1      38.421  -2.324  17.001  1.00  0.00     0.213 C 
ENDBRANCH  15  17
ENDBRANCH   8  15
BRANCH   8  19
HETATM   19  C6  UNL     1      39.857   0.570  14.098  1.00  0.00     0.302 C 
HETATM   20  O5  UNL     1      40.619   1.257  13.380  1.00  0.00    -0.261 OA
BRANCH  19  21
HETATM   21  O6  UNL     1      39.368   1.104  15.289  1.00  0.00    -0.324 OA
HETATM   22  C7  UNL     1      39.765   2.360  15.755  1.00  0.00     0.213 C 
ENDBRANCH  19  21
ENDBRANCH   8  19
ENDBRANCH   1   8
BRANCH   2  23
HETATM   23  O7  UNL     1      38.000  -3.257  13.584  1.00  0.00    -0.358 OA
ATOM     24  H7  UNL     1      37.647  -4.077  13.258  1.00  0.00     0.217 HD
ENDBRANCH   2  23
BRANCH   7  25
HETATM   25  N5  UNL     1      37.847   1.376  12.864  1.00  0.00    -0.307 N 
HETATM   26  C13 UNL     1      37.055   2.532  12.845  1.00  0.00     0.214 C 
HETATM   27  N6  UNL     1      37.373   3.680  12.037  1.00  0.00    -0.061 NA
HETATM   28  N7  UNL     1      35.993   2.603  13.572  1.00  0.00    -0.241 N 
ATOM     29  H7  UNL     1      35.737   1.809  14.160  1.00  0.00     0.197 HD
ATOM     30  H5  UNL     1      38.860   1.495  12.882  1.00  0.00     0.170 HD
BRANCH  28  31
HETATM   31  O10 UNL     1      35.203   3.717  13.573  1.00  0.00    -0.287 OA
ATOM     32  H10 UNL     1      35.542   4.564  13.838  1.00  0.00     0.244 HD
ENDBRANCH  28  31
ENDBRANCH   7  25
BRANCH   3  33
HETATM   33  C11 UNL     1      35.411  -3.471  12.511  1.00  0.00     0.285 C 
BRANCH  33  34
HETATM   34  O8  UNL     1      35.255  -4.147  13.702  1.00  0.00    -0.372 OA
ATOM     35  H8  UNL     1      34.924  -5.028  13.570  1.00  0.00     0.212 HD
ENDBRANCH  33  34
BRANCH  33  36
HETATM   36  N2  UNL     1      36.079  -4.327  11.546  1.00  0.00    -0.110 NA
BRANCH  36  37
HETATM   37  N3  UNL     1      35.412  -4.120  10.309  1.00  0.00    -0.346 N 
ATOM     38  H32 UNL     1      34.878  -3.293  10.044  1.00  0.00     0.172 HD
ATOM     39  H31 UNL     1      35.580  -4.960   9.755  1.00  0.00     0.172 HD
ENDBRANCH  36  37
ENDBRANCH  33  36
ENDBRANCH   3  33
TORSDOF 14
ENDMDL
MODEL 3
REMARK VINA RESULT: -5.602384217      2.705      5.126
REMARK  14 active torsions:
REMARK  status: ('A' for Active; 'I' for Inactive)
REMARK    1  A    between atoms: O1_2  and  C2_3 
REMARK       I    between atoms: C2_3  and  N1_5 
REMARK    2  A    between atoms: N1_5  and  C3_7 
REMARK    3  A    between atoms: C3_7  and  C4_8 
REMARK    4  A    between atoms: C3_7  and  C6_12 
REMARK    5  A    between atoms: C3_7  and  C8_16 
REMARK    6  A    between atoms: C4_8  and  O4_10 
REMARK    7  A    between atoms: C6_12  and  O6_14 
REMARK    8  A    between atoms: C9_17  and  O7_18 
REMARK    9  A    between atoms: C10_20  and  C11_21 
REMARK   10  A    between atoms: C11_21  and  O8_22 
REMARK   11  A    between atoms: C11_21  and  N2_24 
REMARK   12  A    between atoms: N2_24  and  N3_25 
REMARK   13  A    between atoms: C12_31  and  N5_32 
REMARK       I    between atoms: N5_32  and  C13_34 
REMARK   14  A    between atoms: N7_36  and  O10_38 
ROOT
HETATM    1  C8  UNL     1      38.085   2.504  13.387  1.00  0.00     0.079 A 
HETATM    2  C9  UNL     1      37.887   1.285  12.730  1.00  0.00     0.108 A 
HETATM    3  C10 UNL     1      36.666   0.761  12.499  1.00  0.00     0.112 A 
HETATM    4  N4  UNL     1      35.562   1.431  12.922  1.00  0.00    -0.257 N 
ATOM      5  H4  UNL     1      34.627   1.054  12.762  1.00  0.00     0.195 HD
HETATM    6  O9  UNL     1      35.725   2.539  13.523  1.00  0.00    -0.219 OA
HETATM    7  C12 UNL     1      36.886   3.112  13.778  1.00  0.00     0.185 A 
ENDROOT
BRANCH   1   8
HETATM    8  C3  UNL     1      39.353   3.208  13.525  1.00  0.00     0.246 C 
BRANCH   8   9
HETATM    9  N1  UNL     1      39.904   3.935  12.459  1.00  0.00    -0.306 N 
HETATM   10  C2  UNL     1      39.581   4.961  11.597  1.00  0.00     0.361 C 
HETATM   11  O2  UNL     1      38.546   5.629  11.498  1.00  0.00    -0.238 OA
ATOM     12  H1  UNL     1      40.844   3.597  12.259  1.00  0.00     0.167 HD
BRANCH  10  13
HETATM   13  O1  UNL     1      40.551   5.393  10.608  1.00  0.00    -0.309 OA
HETATM   14  C1  UNL     1      41.203   4.407   9.838  1.00  0.00     0.215 C 
ENDBRANCH  10  13
ENDBRANCH   8   9
BRANCH   8  15
HETATM   15  C4  UNL     1      40.381   2.103  13.933  1.00  0.00     0.302 C 
HETATM   16  O3  UNL     1      41.421   2.060  13.287  1.00  0.00    -0.261 OA
BRANCH  15  17
HETATM   17  O4  UNL     1      40.096   1.262  14.947  1.00  0.00    -0.324 OA
HETATM   18  C5  UNL     1      41.017   0.619  15.784  1.00  0.00     0.213 C 
ENDBRANCH  15  17
ENDBRANCH   8  15
BRANCH   8  19
HETATM   19  C6  UNL     1      39.384   4.036  14.785  1.00  0.00     0.302 C 
HETATM   20  O5  UNL     1      39.807   5.212  14.708  1.00  0.00    -0.261 OA
BRANCH  19  21
HETATM   21  O6  UNL     1      38.978   3.529  16.018  1.00  0.00    -0.324 OA
HETATM   22  C7  UNL     1      39.374   4.112  17.224  1.00  0.00     0.213 C 
ENDBRANCH  19  21
ENDBRANCH   8  19
ENDBRANCH   1   8
BRANCH   2  23
HETATM   23  O7  UNL     1      38.997   0.625  12.334  1.00  0.00    -0.358 OA
ATOM     24  H7  UNL     1      39.514   1.035  11.651  1.00  0.00     0.217 HD
ENDBRANCH   2  23
BRANCH   7  25
HETATM   25  N5  UNL     1      36.812   4.234  14.385  1.00  0.00    -0.307 N 
HETATM   26  C13 UNL     1      36.047   5.325  13.952  1.00  0.00     0.214 C 
HETATM   27  N6  UNL     1      36.529   6.681  13.997  1.00  0.00    -0.061 NA
HETATM   28  N7  UNL     1      34.857   5.141  13.491  1.00  0.00    -0.241 N 
ATOM     29  H7  UNL     1      34.481   4.194  13.446  1.00  0.00     0.197 HD
ATOM     30  H5  UNL     1      37.348   4.343  15.247  1.00  0.00     0.170 HD
BRANCH  28  31
HETATM   31  O10 UNL     1      34.090   6.186  13.062  1.00  0.00    -0.287 OA
ATOM     32  H10 UNL     1      33.367   6.055  12.459  1.00  0.00     0.244 HD
ENDBRANCH  28  31
ENDBRANCH   7  25
BRANCH   3  33
HETATM   33  C11 UNL     1      36.492  -0.499  11.730  1.00  0.00     0.285 C 
BRANCH  33  34
HETATM   34  O8  UNL     1      36.546  -0.286  10.370  1.00  0.00    -0.372 OA
ATOM     35  H8  UNL     1      36.804  -1.069   9.897  1.00  0.00     0.212 HD
ENDBRANCH  33  34
BRANCH  33  36
HETATM   36  N2  UNL     1      35.251  -1.173  12.071  1.00  0.00    -0.110 NA
BRANCH  36  37
HETATM   37  N3  UNL     1      35.602  -2.205  12.982  1.00  0.00    -0.346 N 
ATOM     38  H32 UNL     1      35.230  -2.331  13.923  1.00  0.00     0.172 HD
ATOM     39  H31 UNL     1      36.292  -2.782  12.501  1.00  0.00     0.172 HD
ENDBRANCH  36  37
ENDBRANCH  33  36
ENDBRANCH   3  33
TORSDOF 14
ENDMDL
MODEL 4
REMARK VINA RESULT: -5.588864409      1.352      1.456
REMARK  14 active torsions:
REMARK  status: ('A' for Active; 'I' for Inactive)
REMARK    1  A    between atoms: O1_2  and  C2_3 
REMARK       I    between atoms: C2_3  and  N1_5 
REMARK    2  A    between atoms: N1_5  and  C3_7 
REMARK    3  A    between atoms: C3_7  and  C4_8 
REMARK    4  A    between atoms: C3_7  and  C6_12 
REMARK    5  A    between atoms: C3_7  and  C8_16 
REMARK    6  A    between atoms: C4_8  and  O4_10 
REMARK    7  A    between atoms: C6_12  and  O6_14 
REMARK    8  A    between atoms: C9_17  and  O7_18 
REMARK    9  A    between atoms: C10_20  and  C11_21 
REMARK   10  A    between atoms: C11_21  and  O8_22 
REMARK   11  A    between atoms: C11_21  and  N2_24 
REMARK   12  A    between atoms: N2_24  and  N3_25 
REMARK   13  A    between atoms: C12_31  and  N5_32 
REMARK       I    between atoms: N5_32  and  C13_34 
REMARK   14  A    between atoms: N7_36  and  O10_38 
ROOT
HETATM    1  C8  UNL     1      38.221  -0.422  12.738  1.00  0.00     0.079 A 
HETATM    2  C9  UNL     1      37.181  -0.785  11.876  1.00  0.00     0.108 A 
HETATM    3  C10 UNL     1      36.680  -2.035  11.810  1.00  0.00     0.112 A 
HETATM    4  N4  UNL     1      37.201  -3.006  12.606  1.00  0.00    -0.257 N 
ATOM      5  H4  UNL     1      36.841  -3.960  12.573  1.00  0.00     0.195 HD
HETATM    6  O9  UNL     1      38.148  -2.692  13.392  1.00  0.00    -0.219 OA
HETATM    7  C12 UNL     1      38.683  -1.492  13.513  1.00  0.00     0.185 A 
ENDROOT
BRANCH   1   8
HETATM    8  C3  UNL     1      38.698   0.933  12.982  1.00  0.00     0.246 C 
BRANCH   8   9
HETATM    9  N1  UNL     1      37.871   2.046  12.778  1.00  0.00    -0.306 N 
HETATM   10  C2  UNL     1      36.572   2.455  12.992  1.00  0.00     0.361 C 
HETATM   11  O2  UNL     1      35.617   1.857  13.498  1.00  0.00    -0.238 OA
ATOM     12  H1  UNL     1      38.399   2.792  12.326  1.00  0.00     0.167 HD
BRANCH  10  13
HETATM   13  O1  UNL     1      36.170   3.790  12.590  1.00  0.00    -0.309 OA
HETATM   14  C1  UNL     1      35.582   4.630  13.560  1.00  0.00     0.215 C 
ENDBRANCH  10  13
ENDBRANCH   8   9
BRANCH   8  15
HETATM   15  C4  UNL     1      39.949   1.088  12.057  1.00  0.00     0.302 C 
HETATM   16  O3  UNL     1      40.305   2.234  11.808  1.00  0.00    -0.261 OA
BRANCH  15  17
HETATM   17  O4  UNL     1      40.572  -0.008  11.579  1.00  0.00    -0.324 OA
HETATM   18  C5  UNL     1      41.681  -0.032  10.724  1.00  0.00     0.213 C 
ENDBRANCH  15  17
ENDBRANCH   8  15
BRANCH   8  19
HETATM   19  C6  UNL     1      39.382   1.037  14.322  1.00  0.00     0.302 C 
HETATM   20  O5  UNL     1      38.668   1.043  15.350  1.00  0.00    -0.261 OA
BRANCH  19  21
HETATM   21  O6  UNL     1      40.766   1.143  14.445  1.00  0.00    -0.324 OA
HETATM   22  C7  UNL     1      41.363   2.009  15.365  1.00  0.00     0.213 C 
ENDBRANCH  19  21
ENDBRANCH   8  19
ENDBRANCH   1   8
BRANCH   2  23
HETATM   23  O7  UNL     1      36.688   0.188  11.079  1.00  0.00    -0.358 OA
ATOM     24  H7  UNL     1      36.235  -0.096  10.293  1.00  0.00     0.217 HD
ENDBRANCH   2  23
BRANCH   7  25
HETATM   25  N5  UNL     1      39.621  -1.403  14.377  1.00  0.00    -0.307 N 
HETATM   26  C13 UNL     1      40.744  -2.239  14.423  1.00  0.00     0.214 C 
HETATM   27  N6  UNL     1      41.273  -2.765  15.654  1.00  0.00    -0.061 NA
HETATM   28  N7  UNL     1      41.353  -2.567  13.335  1.00  0.00    -0.241 N 
ATOM     29  H7  UNL     1      41.008  -2.211  12.443  1.00  0.00     0.197 HD
ATOM     30  H5  UNL     1      39.545  -0.670  15.084  1.00  0.00     0.170 HD
BRANCH  28  31
HETATM   31  O10 UNL     1      42.450  -3.380  13.351  1.00  0.00    -0.287 OA
ATOM     32  H10 UNL     1      42.429  -4.233  13.769  1.00  0.00     0.244 HD
ENDBRANCH  28  31
ENDBRANCH   7  25
BRANCH   3  33
HETATM   33  C11 UNL     1      35.523  -2.366  10.938  1.00  0.00     0.285 C 
BRANCH  33  34
HETATM   34  O8  UNL     1      34.486  -1.473  11.094  1.00  0.00    -0.372 OA
ATOM     35  H8  UNL     1      34.579  -0.716  10.526  1.00  0.00     0.212 HD
ENDBRANCH  33  34
BRANCH  33  36
HETATM   36  N2  UNL     1      35.043  -3.718  11.166  1.00  0.00    -0.110 NA
BRANCH  36  37
HETATM   37  N3  UNL     1      35.385  -4.458  10.002  1.00  0.00    -0.346 N 
ATOM     38  H32 UNL     1      35.887  -4.103   9.188  1.00  0.00     0.172 HD
ATOM     39  H31 UNL     1      35.028  -5.401  10.153  1.00  0.00     0.172 HD
ENDBRANCH  36  37
ENDBRANCH  33  36
ENDBRANCH   3  33
TORSDOF 14
ENDMDL
MODEL 5
REMARK VINA RESULT: -5.582495712      2.727      5.529
REMARK  14 active torsions:
REMARK  status: ('A' for Active; 'I' for Inactive)
REMARK    1  A    between atoms: O1_2  and  C2_3 
REMARK       I    between atoms: C2_3  and  N1_5 
REMARK    2  A    between atoms: N1_5  and  C3_7 
REMARK    3  A    between atoms: C3_7  and  C4_8 
REMARK    4  A    between atoms: C3_7  and  C6_12 
REMARK    5  A    between atoms: C3_7  and  C8_16 
REMARK    6  A    between atoms: C4_8  and  O4_10 
REMARK    7  A    between atoms: C6_12  and  O6_14 
REMARK    8  A    between atoms: C9_17  and  O7_18 
REMARK    9  A    between atoms: C10_20  and  C11_21 
REMARK   10  A    between atoms: C11_21  and  O8_22 
REMARK   11  A    between atoms: C11_21  and  N2_24 
REMARK   12  A    between atoms: N2_24  and  N3_25 
REMARK   13  A    between atoms: C12_31  and  N5_32 
REMARK       I    between atoms: N5_32  and  C13_34 
REMARK   14  A    between atoms: N7_36  and  O10_38 
ROOT
HETATM    1  C8  UNL     1      38.305   1.890  12.998  1.00  0.00     0.079 A 
HETATM    2  C9  UNL     1      37.694   0.677  12.666  1.00  0.00     0.108 A 
HETATM    3  C10 UNL     1      36.364   0.475  12.747  1.00  0.00     0.112 A 
HETATM    4  N4  UNL     1      35.560   1.483  13.177  1.00  0.00    -0.257 N 
ATOM      5  H4  UNL     1      34.550   1.354  13.250  1.00  0.00     0.195 HD
HETATM    6  O9  UNL     1      36.101   2.591  13.486  1.00  0.00    -0.219 OA
HETATM    7  C12 UNL     1      37.391   2.860  13.426  1.00  0.00     0.185 A 
ENDROOT
BRANCH   1   8
HETATM    8  C3  UNL     1      39.704   2.234  12.780  1.00  0.00     0.246 C 
BRANCH   8   9
HETATM    9  N1  UNL     1      40.524   1.462  11.945  1.00  0.00    -0.306 N 
HETATM   10  C2  UNL     1      41.599   1.598  11.093  1.00  0.00     0.361 C 
HETATM   11  O2  UNL     1      42.241   2.603  10.769  1.00  0.00    -0.238 OA
ATOM     12  H1  UNL     1      40.229   0.486  11.977  1.00  0.00     0.167 HD
BRANCH  10  13
HETATM   13  O1  UNL     1      42.131   0.427  10.423  1.00  0.00    -0.309 OA
HETATM   14  C1  UNL     1      41.251  -0.640  10.145  1.00  0.00     0.215 C 
ENDBRANCH  10  13
ENDBRANCH   8   9
BRANCH   8  15
HETATM   15  C4  UNL     1      40.342   2.237  14.207  1.00  0.00     0.302 C 
HETATM   16  O3  UNL     1      41.565   2.174  14.260  1.00  0.00    -0.261 OA
BRANCH  15  17
HETATM   17  O4  UNL     1      39.550   2.305  15.297  1.00  0.00    -0.324 OA
HETATM   18  C5  UNL     1      39.840   2.961  16.500  1.00  0.00     0.213 C 
ENDBRANCH  15  17
ENDBRANCH   8  15
BRANCH   8  19
HETATM   19  C6  UNL     1      39.862   3.696  12.448  1.00  0.00     0.302 C 
HETATM   20  O5  UNL     1      40.456   4.428  13.273  1.00  0.00    -0.261 OA
BRANCH  19  21
HETATM   21  O6  UNL     1      39.355   4.252  11.276  1.00  0.00    -0.324 OA
HETATM   22  C7  UNL     1      39.941   5.369  10.672  1.00  0.00     0.213 C 
ENDBRANCH  19  21
ENDBRANCH   8  19
ENDBRANCH   1   8
BRANCH   2  23
HETATM   23  O7  UNL     1      38.510  -0.320  12.259  1.00  0.00    -0.358 OA
ATOM     24  H7  UNL     1      38.177  -0.889  11.575  1.00  0.00     0.217 HD
ENDBRANCH   2  23
BRANCH   7  25
HETATM   25  N5  UNL     1      37.711   4.047  13.775  1.00  0.00    -0.307 N 
HETATM   26  C13 UNL     1      36.917   5.182  13.558  1.00  0.00     0.214 C 
HETATM   27  N6  UNL     1      37.461   6.440  13.117  1.00  0.00    -0.061 NA
HETATM   28  N7  UNL     1      35.645   5.131  13.758  1.00  0.00    -0.241 N 
ATOM     29  H7  UNL     1      35.224   4.257  14.074  1.00  0.00     0.197 HD
ATOM     30  H5  UNL     1      38.608   4.178  14.244  1.00  0.00     0.170 HD
BRANCH  28  31
HETATM   31  O10 UNL     1      34.848   6.222  13.555  1.00  0.00    -0.287 OA
ATOM     32  H10 UNL     1      33.904   6.171  13.653  1.00  0.00     0.244 HD
ENDBRANCH  28  31
ENDBRANCH   7  25
BRANCH   3  33
HETATM   33  C11 UNL     1      35.741  -0.803  12.312  1.00  0.00     0.285 C 
BRANCH  33  34
HETATM   34  O8  UNL     1      36.084  -1.852  13.138  1.00  0.00    -0.372 OA
ATOM     35  H8  UNL     1      35.530  -1.893  13.909  1.00  0.00     0.212 HD
ENDBRANCH  33  34
BRANCH  33  36
HETATM   36  N2  UNL     1      36.082  -1.131  10.939  1.00  0.00    -0.110 NA
BRANCH  36  37
HETATM   37  N3  UNL     1      36.398  -2.516  10.932  1.00  0.00    -0.346 N 
ATOM     38  H32 UNL     1      36.333  -3.153  11.726  1.00  0.00     0.172 HD
ATOM     39  H31 UNL     1      36.696  -2.732   9.981  1.00  0.00     0.172 HD
ENDBRANCH  36  37
ENDBRANCH  33  36
ENDBRANCH   3  33
TORSDOF 14
ENDMDL
