MODEL 1
REMARK VINA RESULT: -7.296506729      0.000      0.000
REMARK  10 active torsions:
REMARK  status: ('A' for Active; 'I' for Inactive)
REMARK    1  A    between atoms: C2_2  and  O1_3 
REMARK    2  A    between atoms: N1_6  and  C4_7 
REMARK    3  A    between atoms: C5_10  and  N3_11 
REMARK    4  A    between atoms: C6_16  and  N5_17 
REMARK    5  A    between atoms: C7_24  and  O2_25 
REMARK    6  A    between atoms: O2_25  and  C8_26 
REMARK    7  A    between atoms: C8_26  and  C9_27 
REMARK    8  A    between atoms: C8_26  and  C11_31 
REMARK    9  A    between atoms: C9_27  and  C10_28 
REMARK   10  A    between atoms: C12_35  and  C13_36 
ROOT
HETATM    1  C1  UNL     1      41.816   3.620  13.070  1.00  0.00     0.057 C 
HETATM    2  C2  UNL     1      40.717   3.423  12.072  1.00  0.00     0.138 A 
HETATM    3  C3  UNL     1      41.306   3.620  10.694  1.00  0.00     0.214 A 
HETATM    4  N1  UNL     1      40.587   4.737  10.117  1.00  0.00    -0.117 N 
HETATM    5  N7  UNL     1      39.729   5.247  11.076  1.00  0.00    -0.264 N 
ATOM      6  H7  UNL     1      39.138   6.067  10.939  1.00  0.00     0.189 HD
HETATM    7  C7  UNL     1      39.769   4.557  12.163  1.00  0.00     0.170 A 
ENDROOT
BRANCH   7   8
HETATM    8  O2  UNL     1      39.016   4.824  13.313  1.00  0.00    -0.322 OA
BRANCH   8   9
HETATM    9  C8  UNL     1      37.663   5.216  13.181  1.00  0.00     0.208 C 
BRANCH   9  10
HETATM   10  C9  UNL     1      37.335   6.082  14.378  1.00  0.00     0.140 C 
BRANCH  10  11
HETATM   11  C10 UNL     1      36.508   7.254  13.989  1.00  0.00     0.234 C 
HETATM   12  N8  UNL     1      36.738   8.506  14.612  1.00  0.00    -0.062 NA
HETATM   13  O3  UNL     1      35.625   7.083  13.112  1.00  0.00    -0.277 OA
ENDBRANCH  10  11
ENDBRANCH   9  10
BRANCH   9  14
HETATM   14  C11 UNL     1      36.823   3.981  13.261  1.00  0.00     0.134 A 
HETATM   15  N9  UNL     1      35.522   3.874  13.515  1.00  0.00    -0.244 N 
HETATM   16  O4  UNL     1      35.214   2.627  13.486  1.00  0.00    -0.214 OA
ATOM     17  H9  UNL     1      34.882   4.647  13.699  1.00  0.00     0.196 HD
HETATM   18  C12 UNL     1      36.264   1.891  13.223  1.00  0.00     0.219 A 
HETATM   19  N14 UNL     1      37.290   2.737  13.078  1.00  0.00    -0.318 N 
ATOM     20  H14 UNL     1      38.254   2.481  12.865  1.00  0.00     0.169 HD
BRANCH  18  21
HETATM   21  C13 UNL     1      36.289   0.426  13.112  1.00  0.00     0.191 A 
HETATM   22  N10 UNL     1      35.498  -0.330  12.336  1.00  0.00    -0.265 N 
HETATM   23  N11 UNL     1      35.832  -1.607  12.519  1.00  0.00    -0.226 N 
ATOM     24  H10 UNL     1      34.768   0.013  11.713  1.00  0.00     0.190 HD
HETATM   25  N12 UNL     1      36.807  -1.677  13.386  1.00  0.00    -0.226 N 
ATOM     26  H11 UNL     1      35.396  -2.404  12.055  1.00  0.00     0.210 HD
HETATM   27  N13 UNL     1      37.099  -0.425  13.761  1.00  0.00    -0.265 N 
ATOM     28  H12 UNL     1      37.262  -2.528  13.716  1.00  0.00     0.210 HD
ATOM     29  H13 UNL     1      37.820  -0.161  14.431  1.00  0.00     0.190 HD
ENDBRANCH  18  21
ENDBRANCH   9  14
ENDBRANCH   8   9
ENDBRANCH   7   8
BRANCH   2  30
HETATM   30  O1  UNL     1      40.076   2.193  12.192  1.00  0.00    -0.380 OA
ATOM     31  H1  UNL     1      39.128   2.262  12.207  1.00  0.00     0.211 HD
ENDBRANCH   2  30
BRANCH   4  32
HETATM   32  C4  UNL     1      40.767   5.195   8.783  1.00  0.00     0.728 A 
HETATM   33  N2  UNL     1      40.010   6.169   8.246  1.00  0.00    -0.020 N 
HETATM   34  C5  UNL     1      40.185   6.598   6.983  1.00  0.00     0.705 A 
ATOM     35  H2  UNL     1      39.280   6.597   8.816  1.00  0.00     0.203 HD
HETATM   36  N4  UNL     1      41.154   6.039   6.214  1.00  0.00    -0.022 N 
HETATM   37  C6  UNL     1      41.923   5.068   6.719  1.00  0.00     0.705 A 
ATOM     38  H4  UNL     1      41.296   6.357   5.256  1.00  0.00     0.203 HD
HETATM   39  N6  UNL     1      41.721   4.667   7.975  1.00  0.00    -0.020 N 
ATOM     40  H6  UNL     1      42.314   3.926   8.348  1.00  0.00     0.203 HD
BRANCH  34  41
HETATM   41  N3  UNL     1      39.436   7.546   6.485  1.00  0.00    -0.234 N 
ATOM     42  H32 UNL     1      38.660   7.914   7.035  1.00  0.00     0.174 HD
ATOM     43  H31 UNL     1      39.616   7.922   5.554  1.00  0.00     0.174 HD
ENDBRANCH  34  41
BRANCH  37  44
HETATM   44  N5  UNL     1      42.838   4.543   5.987  1.00  0.00    -0.234 N 
ATOM     45  H52 UNL     1      43.007   4.865   5.034  1.00  0.00     0.174 HD
ATOM     46  H51 UNL     1      43.410   3.787   6.364  1.00  0.00     0.174 HD
ENDBRANCH  37  44
ENDBRANCH   4  32
TORSDOF 10
ENDMDL
MODEL 2
REMARK VINA RESULT: -7.209537219      1.340      1.705
REMARK  10 active torsions:
REMARK  status: ('A' for Active; 'I' for Inactive)
REMARK    1  A    between atoms: C2_2  and  O1_3 
REMARK    2  A    between atoms: N1_6  and  C4_7 
REMARK    3  A    between atoms: C5_10  and  N3_11 
REMARK    4  A    between atoms: C6_16  and  N5_17 
REMARK    5  A    between atoms: C7_24  and  O2_25 
REMARK    6  A    between atoms: O2_25  and  C8_26 
REMARK    7  A    between atoms: C8_26  and  C9_27 
REMARK    8  A    between atoms: C8_26  and  C11_31 
REMARK    9  A    between atoms: C9_27  and  C10_28 
REMARK   10  A    between atoms: C12_35  and  C13_36 
ROOT
HETATM    1  C1  UNL     1      41.548   3.896  13.203  1.00  0.00     0.057 C 
HETATM    2  C2  UNL     1      40.694   3.427  12.067  1.00  0.00     0.138 A 
HETATM    3  C3  UNL     1      41.351   3.874  10.781  1.00  0.00     0.214 A 
HETATM    4  N1  UNL     1      40.392   4.744  10.133  1.00  0.00    -0.117 N 
HETATM    5  N7  UNL     1      39.309   4.909  10.980  1.00  0.00    -0.264 N 
ATOM      6  H7  UNL     1      38.511   5.512  10.780  1.00  0.00     0.189 HD
HETATM    7  C7  UNL     1      39.434   4.204  12.052  1.00  0.00     0.170 A 
ENDROOT
BRANCH   7   8
HETATM    8  O2  UNL     1      38.504   4.160  13.097  1.00  0.00    -0.322 OA
BRANCH   8   9
HETATM    9  C8  UNL     1      37.212   3.636  12.856  1.00  0.00     0.208 C 
BRANCH   9  10
HETATM   10  C9  UNL     1      36.306   4.174  13.943  1.00  0.00     0.140 C 
BRANCH  10  11
HETATM   11  C10 UNL     1      35.558   5.372  13.481  1.00  0.00     0.234 C 
HETATM   12  N8  UNL     1      36.194   6.638  13.493  1.00  0.00    -0.062 NA
HETATM   13  O3  UNL     1      34.373   5.210  13.094  1.00  0.00    -0.277 OA
ENDBRANCH  10  11
ENDBRANCH   9  10
BRANCH   9  14
HETATM   14  C11 UNL     1      37.288   2.151  13.011  1.00  0.00     0.134 A 
HETATM   15  N9  UNL     1      38.070   1.437  13.817  1.00  0.00    -0.244 N 
HETATM   16  O4  UNL     1      37.805   0.194  13.626  1.00  0.00    -0.214 OA
ATOM     17  H9  UNL     1      38.757   1.811  14.471  1.00  0.00     0.196 HD
HETATM   18  C12 UNL     1      36.873   0.047  12.719  1.00  0.00     0.219 A 
HETATM   19  N14 UNL     1      36.536   1.280  12.321  1.00  0.00    -0.318 N 
ATOM     20  H14 UNL     1      35.833   1.514  11.620  1.00  0.00     0.169 HD
BRANCH  18  21
HETATM   21  C13 UNL     1      36.319  -1.228  12.245  1.00  0.00     0.191 A 
HETATM   22  N10 UNL     1      35.765  -2.189  13.001  1.00  0.00    -0.265 N 
HETATM   23  N11 UNL     1      35.386  -3.183  12.200  1.00  0.00    -0.226 N 
ATOM     24  H10 UNL     1      35.653  -2.162  14.014  1.00  0.00     0.190 HD
HETATM   25  N12 UNL     1      35.684  -2.879  10.964  1.00  0.00    -0.226 N 
ATOM     26  H11 UNL     1      34.934  -4.046  12.503  1.00  0.00     0.210 HD
HETATM   27  N13 UNL     1      36.262  -1.671  10.980  1.00  0.00    -0.265 N 
ATOM     28  H12 UNL     1      35.509  -3.455  10.141  1.00  0.00     0.210 HD
ATOM     29  H13 UNL     1      36.604  -1.168  10.162  1.00  0.00     0.190 HD
ENDBRANCH  18  21
ENDBRANCH   9  14
ENDBRANCH   8   9
ENDBRANCH   7   8
BRANCH   2  30
HETATM   30  O1  UNL     1      40.461   2.054  12.081  1.00  0.00    -0.380 OA
ATOM     31  H1  UNL     1      40.654   1.630  11.253  1.00  0.00     0.211 HD
ENDBRANCH   2  30
BRANCH   4  32
HETATM   32  C4  UNL     1      40.576   5.310   8.842  1.00  0.00     0.728 A 
HETATM   33  N2  UNL     1      39.839   6.344   8.395  1.00  0.00    -0.020 N 
HETATM   34  C5  UNL     1      40.018   6.875   7.172  1.00  0.00     0.705 A 
ATOM     35  H2  UNL     1      39.122   6.738   9.003  1.00  0.00     0.203 HD
HETATM   36  N4  UNL     1      40.971   6.361   6.352  1.00  0.00    -0.022 N 
HETATM   37  C6  UNL     1      41.719   5.334   6.768  1.00  0.00     0.705 A 
ATOM     38  H4  UNL     1      41.116   6.757   5.423  1.00  0.00     0.203 HD
HETATM   39  N6  UNL     1      41.514   4.832   7.986  1.00  0.00    -0.020 N 
ATOM     40  H6  UNL     1      42.091   4.048   8.290  1.00  0.00     0.203 HD
BRANCH  34  41
HETATM   41  N3  UNL     1      39.290   7.878   6.761  1.00  0.00    -0.234 N 
ATOM     42  H32 UNL     1      38.981   8.582   7.431  1.00  0.00     0.174 HD
ATOM     43  H31 UNL     1      39.026   7.968   5.780  1.00  0.00     0.174 HD
ENDBRANCH  34  41
BRANCH  37  44
HETATM   44  N5  UNL     1      42.619   4.852   5.987  1.00  0.00    -0.234 N 
ATOM     45  H52 UNL     1      42.448   4.732   4.989  1.00  0.00     0.174 HD
ATOM     46  H51 UNL     1      43.525   4.585   6.372  1.00  0.00     0.174 HD
ENDBRANCH  37  44
ENDBRANCH   4  32
TORSDOF 10
ENDMDL
MODEL 3
REMARK VINA RESULT: -7.186758098      0.657      1.637
REMARK  10 active torsions:
REMARK  status: ('A' for Active; 'I' for Inactive)
REMARK    1  A    between atoms: C2_2  and  O1_3 
REMARK    2  A    between atoms: N1_6  and  C4_7 
REMARK    3  A    between atoms: C5_10  and  N3_11 
REMARK    4  A    between atoms: C6_16  and  N5_17 
REMARK    5  A    between atoms: C7_24  and  O2_25 
REMARK    6  A    between atoms: O2_25  and  C8_26 
REMARK    7  A    between atoms: C8_26  and  C9_27 
REMARK    8  A    between atoms: C8_26  and  C11_31 
REMARK    9  A    between atoms: C9_27  and  C10_28 
REMARK   10  A    between atoms: C12_35  and  C13_36 
ROOT
HETATM    1  C1  UNL     1      41.811   3.836  13.220  1.00  0.00     0.057 C 
HETATM    2  C2  UNL     1      40.787   3.483  12.187  1.00  0.00     0.138 A 
HETATM    3  C3  UNL     1      41.410   3.701  10.827  1.00  0.00     0.214 A 
HETATM    4  N1  UNL     1      40.596   4.708  10.180  1.00  0.00    -0.117 N 
HETATM    5  N7  UNL     1      39.644   5.148  11.084  1.00  0.00    -0.264 N 
ATOM      6  H7  UNL     1      38.970   5.890  10.893  1.00  0.00     0.189 HD
HETATM    7  C7  UNL     1      39.714   4.502  12.197  1.00  0.00     0.170 A 
ENDROOT
BRANCH   7   8
HETATM    8  O2  UNL     1      38.886   4.719  13.305  1.00  0.00    -0.322 OA
BRANCH   8   9
HETATM    9  C8  UNL     1      37.507   4.966  13.104  1.00  0.00     0.208 C 
BRANCH   9  10
HETATM   10  C9  UNL     1      37.024   5.768  14.293  1.00  0.00     0.140 C 
BRANCH  10  11
HETATM   11  C10 UNL     1      36.783   7.189  13.928  1.00  0.00     0.234 C 
HETATM   12  N8  UNL     1      37.793   8.151  14.176  1.00  0.00    -0.062 NA
HETATM   13  O3  UNL     1      35.677   7.480  13.407  1.00  0.00    -0.277 OA
ENDBRANCH  10  11
ENDBRANCH   9  10
BRANCH   9  14
HETATM   14  C11 UNL     1      36.803   3.647  13.120  1.00  0.00     0.134 A 
HETATM   15  N9  UNL     1      35.663   3.319  13.721  1.00  0.00    -0.244 N 
HETATM   16  O4  UNL     1      35.426   2.080  13.472  1.00  0.00    -0.214 OA
ATOM     17  H9  UNL     1      35.080   3.941  14.281  1.00  0.00     0.196 HD
HETATM   18  C12 UNL     1      36.368   1.564  12.724  1.00  0.00     0.219 A 
HETATM   19  N14 UNL     1      37.247   2.547  12.493  1.00  0.00    -0.318 N 
ATOM     20  H14 UNL     1      38.100   2.472  11.940  1.00  0.00     0.169 HD
BRANCH  18  21
HETATM   21  C13 UNL     1      36.430   0.178  12.243  1.00  0.00     0.191 A 
HETATM   22  N10 UNL     1      37.432  -0.384  11.550  1.00  0.00    -0.265 N 
HETATM   23  N11 UNL     1      37.109  -1.653  11.303  1.00  0.00    -0.226 N 
ATOM     24  H10 UNL     1      38.293   0.080  11.262  1.00  0.00     0.190 HD
HETATM   25  N12 UNL     1      35.935  -1.906  11.819  1.00  0.00    -0.226 N 
ATOM     26  H11 UNL     1      37.686  -2.321  10.793  1.00  0.00     0.210 HD
HETATM   27  N13 UNL     1      35.504  -0.781  12.403  1.00  0.00    -0.265 N 
ATOM     28  H12 UNL     1      35.439  -2.797  11.783  1.00  0.00     0.210 HD
ATOM     29  H13 UNL     1      34.617  -0.670  12.892  1.00  0.00     0.190 HD
ENDBRANCH  18  21
ENDBRANCH   9  14
ENDBRANCH   8   9
ENDBRANCH   7   8
BRANCH   2  30
HETATM   30  O1  UNL     1      40.284   2.192  12.326  1.00  0.00    -0.380 OA
ATOM     31  H1  UNL     1      39.676   1.948  11.638  1.00  0.00     0.211 HD
ENDBRANCH   2  30
BRANCH   4  32
HETATM   32  C4  UNL     1      40.781   5.140   8.839  1.00  0.00     0.728 A 
HETATM   33  N2  UNL     1      41.704   4.596   8.025  1.00  0.00    -0.020 N 
HETATM   34  C5  UNL     1      41.874   5.008   6.756  1.00  0.00     0.705 A 
ATOM     35  H2  UNL     1      42.295   3.845   8.383  1.00  0.00     0.203 HD
HETATM   36  N4  UNL     1      41.094   6.007   6.267  1.00  0.00    -0.022 N 
HETATM   37  C6  UNL     1      40.167   6.567   7.050  1.00  0.00     0.705 A 
ATOM     38  H4  UNL     1      41.214   6.327   5.306  1.00  0.00     0.203 HD
HETATM   39  N6  UNL     1      40.027   6.133   8.303  1.00  0.00    -0.020 N 
ATOM     40  H6  UNL     1      39.316   6.570   8.890  1.00  0.00     0.203 HD
BRANCH  34  41
HETATM   41  N3  UNL     1      42.779   4.464   5.987  1.00  0.00    -0.234 N 
ATOM     42  H32 UNL     1      43.748   4.426   6.302  1.00  0.00     0.174 HD
ATOM     43  H31 UNL     1      42.530   4.078   5.077  1.00  0.00     0.174 HD
ENDBRANCH  34  41
BRANCH  37  44
HETATM   44  N5  UNL     1      39.432   7.511   6.581  1.00  0.00    -0.234 N 
ATOM     45  H52 UNL     1      38.772   7.344   5.822  1.00  0.00     0.174 HD
ATOM     46  H51 UNL     1      39.507   8.449   6.977  1.00  0.00     0.174 HD
ENDBRANCH  37  44
ENDBRANCH   4  32
TORSDOF 10
ENDMDL
MODEL 4
REMARK VINA RESULT: -7.150327227      1.496      2.267
REMARK  10 active torsions:
REMARK  status: ('A' for Active; 'I' for Inactive)
REMARK    1  A    between atoms: C2_2  and  O1_3 
REMARK    2  A    between atoms: N1_6  and  C4_7 
REMARK    3  A    between atoms: C5_10  and  N3_11 
REMARK    4  A    between atoms: C6_16  and  N5_17 
REMARK    5  A    between atoms: C7_24  and  O2_25 
REMARK    6  A    between atoms: O2_25  and  C8_26 
REMARK    7  A    between atoms: C8_26  and  C9_27 
REMARK    8  A    between atoms: C8_26  and  C11_31 
REMARK    9  A    between atoms: C9_27  and  C10_28 
REMARK   10  A    between atoms: C12_35  and  C13_36 
ROOT
HETATM    1  C1  UNL     1      41.423   4.424  13.431  1.00  0.00     0.057 C 
HETATM    2  C2  UNL     1      40.712   3.747  12.301  1.00  0.00     0.138 A 
HETATM    3  C3  UNL     1      41.375   4.182  11.013  1.00  0.00     0.214 A 
HETATM    4  N1  UNL     1      40.344   4.850  10.248  1.00  0.00    -0.117 N 
HETATM    5  N7  UNL     1      39.200   4.922  11.025  1.00  0.00    -0.264 N 
ATOM      6  H7  UNL     1      38.338   5.386  10.736  1.00  0.00     0.189 HD
HETATM    7  C7  UNL     1      39.359   4.330  12.158  1.00  0.00     0.170 A 
ENDROOT
BRANCH   7   8
HETATM    8  O2  UNL     1      38.384   4.234  13.158  1.00  0.00    -0.322 OA
BRANCH   8   9
HETATM    9  C8  UNL     1      37.125   3.667  12.849  1.00  0.00     0.208 C 
BRANCH   9  10
HETATM   10  C9  UNL     1      36.147   4.166  13.891  1.00  0.00     0.140 C 
BRANCH  10  11
HETATM   11  C10 UNL     1      35.472   5.414  13.448  1.00  0.00     0.234 C 
HETATM   12  N8  UNL     1      34.142   5.351  12.966  1.00  0.00    -0.062 NA
HETATM   13  O3  UNL     1      36.120   6.488  13.521  1.00  0.00    -0.277 OA
ENDBRANCH  10  11
ENDBRANCH   9  10
BRANCH   9  14
HETATM   14  C11 UNL     1      37.246   2.184  13.001  1.00  0.00     0.134 A 
HETATM   15  N9  UNL     1      38.064   1.492  13.790  1.00  0.00    -0.244 N 
HETATM   16  O4  UNL     1      37.830   0.242  13.603  1.00  0.00    -0.214 OA
ATOM     17  H9  UNL     1      38.754   1.885  14.429  1.00  0.00     0.196 HD
HETATM   18  C12 UNL     1      36.884   0.070  12.715  1.00  0.00     0.219 A 
HETATM   19  N14 UNL     1      36.504   1.293  12.326  1.00  0.00    -0.318 N 
ATOM     20  H14 UNL     1      35.781   1.508  11.640  1.00  0.00     0.169 HD
BRANCH  18  21
HETATM   21  C13 UNL     1      36.356  -1.220  12.252  1.00  0.00     0.191 A 
HETATM   22  N10 UNL     1      36.441  -1.718  11.008  1.00  0.00    -0.265 N 
HETATM   23  N11 UNL     1      35.841  -2.908  10.994  1.00  0.00    -0.226 N 
ATOM     24  H10 UNL     1      36.888  -1.265  10.212  1.00  0.00     0.190 HD
HETATM   25  N12 UNL     1      35.382  -3.173  12.189  1.00  0.00    -0.226 N 
ATOM     26  H11 UNL     1      35.755  -3.516  10.180  1.00  0.00     0.210 HD
HETATM   27  N13 UNL     1      35.694  -2.136  12.976  1.00  0.00    -0.265 N 
ATOM     28  H12 UNL     1      34.879  -4.015  12.469  1.00  0.00     0.210 HD
ATOM     29  H13 UNL     1      35.466  -2.054  13.966  1.00  0.00     0.190 HD
ENDBRANCH  18  21
ENDBRANCH   9  14
ENDBRANCH   8   9
ENDBRANCH   7   8
BRANCH   2  30
HETATM   30  O1  UNL     1      40.675   2.361  12.423  1.00  0.00    -0.380 OA
ATOM     31  H1  UNL     1      41.476   1.935  12.142  1.00  0.00     0.211 HD
ENDBRANCH   2  30
BRANCH   4  32
HETATM   32  C4  UNL     1      40.523   5.332   8.923  1.00  0.00     0.728 A 
HETATM   33  N2  UNL     1      41.387   4.768   8.059  1.00  0.00    -0.020 N 
HETATM   34  C5  UNL     1      41.552   5.229   6.807  1.00  0.00     0.705 A 
ATOM     35  H2  UNL     1      41.936   3.964   8.365  1.00  0.00     0.203 HD
HETATM   36  N4  UNL     1      40.827   6.298   6.386  1.00  0.00    -0.022 N 
HETATM   37  C6  UNL     1      39.960   6.880   7.220  1.00  0.00     0.705 A 
ATOM     38  H4  UNL     1      40.944   6.655   5.437  1.00  0.00     0.203 HD
HETATM   39  N6  UNL     1      39.823   6.397   8.455  1.00  0.00    -0.020 N 
ATOM     40  H6  UNL     1      39.158   6.850   9.082  1.00  0.00     0.203 HD
BRANCH  34  41
HETATM   41  N3  UNL     1      42.399   4.665   5.987  1.00  0.00    -0.234 N 
ATOM     42  H32 UNL     1      42.693   5.164   5.149  1.00  0.00     0.174 HD
ATOM     43  H31 UNL     1      42.768   3.733   6.174  1.00  0.00     0.174 HD
ENDBRANCH  34  41
BRANCH  37  44
HETATM   44  N5  UNL     1      39.277   7.891   6.816  1.00  0.00    -0.234 N 
ATOM     45  H52 UNL     1      39.548   8.845   7.054  1.00  0.00     0.174 HD
ATOM     46  H51 UNL     1      38.446   7.738   6.244  1.00  0.00     0.174 HD
ENDBRANCH  37  44
ENDBRANCH   4  32
TORSDOF 10
ENDMDL
MODEL 5
REMARK VINA RESULT: -7.135068327      3.899      8.247
REMARK  10 active torsions:
REMARK  status: ('A' for Active; 'I' for Inactive)
REMARK    1  A    between atoms: C2_2  and  O1_3 
REMARK    2  A    between atoms: N1_6  and  C4_7 
REMARK    3  A    between atoms: C5_10  and  N3_11 
REMARK    4  A    between atoms: C6_16  and  N5_17 
REMARK    5  A    between atoms: C7_24  and  O2_25 
REMARK    6  A    between atoms: O2_25  and  C8_26 
REMARK    7  A    between atoms: C8_26  and  C9_27 
REMARK    8  A    between atoms: C8_26  and  C11_31 
REMARK    9  A    between atoms: C9_27  and  C10_28 
REMARK   10  A    between atoms: C12_35  and  C13_36 
ROOT
HETATM    1  C1  UNL     1      38.319   8.669  15.878  1.00  0.00     0.057 C 
HETATM    2  C2  UNL     1      37.060   7.953  16.256  1.00  0.00     0.138 A 
HETATM    3  C3  UNL     1      37.113   7.682  17.743  1.00  0.00     0.214 A 
HETATM    4  N1  UNL     1      37.064   6.241  17.880  1.00  0.00    -0.117 N 
HETATM    5  N7  UNL     1      37.093   5.680  16.614  1.00  0.00    -0.264 N 
ATOM      6  H7  UNL     1      37.113   4.677  16.432  1.00  0.00     0.189 HD
HETATM    7  C7  UNL     1      37.092   6.583  15.695  1.00  0.00     0.170 A 
ENDROOT
BRANCH   7   8
HETATM    8  O2  UNL     1      37.118   6.329  14.319  1.00  0.00    -0.322 OA
BRANCH   8   9
HETATM    9  C8  UNL     1      37.980   5.326  13.814  1.00  0.00     0.208 C 
BRANCH   9  10
HETATM   10  C9  UNL     1      38.515   5.828  12.491  1.00  0.00     0.140 C 
BRANCH  10  11
HETATM   11  C10 UNL     1      39.989   5.656  12.401  1.00  0.00     0.234 C 
HETATM   12  N8  UNL     1      40.814   6.797  12.248  1.00  0.00    -0.062 NA
HETATM   13  O3  UNL     1      40.447   4.487  12.464  1.00  0.00    -0.277 OA
ENDBRANCH  10  11
ENDBRANCH   9  10
BRANCH   9  14
HETATM   14  C11 UNL     1      37.152   4.110  13.547  1.00  0.00     0.134 A 
HETATM   15  N9  UNL     1      35.847   3.935  13.731  1.00  0.00    -0.244 N 
HETATM   16  O4  UNL     1      35.553   2.737  13.369  1.00  0.00    -0.214 OA
ATOM     17  H9  UNL     1      35.194   4.629  14.095  1.00  0.00     0.196 HD
HETATM   18  C12 UNL     1      36.618   2.100  12.949  1.00  0.00     0.219 A 
HETATM   19  N14 UNL     1      37.638   2.960  13.056  1.00  0.00    -0.318 N 
ATOM     20  H14 UNL     1      38.609   2.773  12.809  1.00  0.00     0.169 HD
BRANCH  18  21
HETATM   21  C13 UNL     1      36.661   0.716  12.460  1.00  0.00     0.191 A 
HETATM   22  N10 UNL     1      35.630  -0.139  12.387  1.00  0.00    -0.265 N 
HETATM   23  N11 UNL     1      36.077  -1.292  11.890  1.00  0.00    -0.226 N 
ATOM     24  H10 UNL     1      34.669   0.059  12.664  1.00  0.00     0.190 HD
HETATM   25  N12 UNL     1      37.358  -1.188  11.649  1.00  0.00    -0.226 N 
ATOM     26  H11 UNL     1      35.511  -2.123  11.724  1.00  0.00     0.210 HD
HETATM   27  N13 UNL     1      37.731   0.050  11.997  1.00  0.00    -0.265 N 
ATOM     28  H12 UNL     1      37.961  -1.916  11.266  1.00  0.00     0.210 HD
ATOM     29  H13 UNL     1      38.675   0.426  11.923  1.00  0.00     0.190 HD
ENDBRANCH  18  21
ENDBRANCH   9  14
ENDBRANCH   8   9
ENDBRANCH   7   8
BRANCH   2  30
HETATM   30  O1  UNL     1      35.903   8.639  15.895  1.00  0.00    -0.380 OA
ATOM     31  H1  UNL     1      35.141   8.078  15.814  1.00  0.00     0.211 HD
ENDBRANCH   2  30
BRANCH   4  32
HETATM   32  C4  UNL     1      36.996   5.563  19.127  1.00  0.00     0.728 A 
HETATM   33  N2  UNL     1      36.549   6.156  20.249  1.00  0.00    -0.020 N 
HETATM   34  C5  UNL     1      36.487   5.509  21.426  1.00  0.00     0.705 A 
ATOM     35  H2  UNL     1      36.247   7.129  20.205  1.00  0.00     0.203 HD
HETATM   36  N4  UNL     1      36.884   4.212  21.499  1.00  0.00    -0.022 N 
HETATM   37  C6  UNL     1      37.333   3.594  20.401  1.00  0.00     0.705 A 
ATOM     38  H4  UNL     1      36.840   3.711  22.386  1.00  0.00     0.203 HD
HETATM   39  N6  UNL     1      37.381   4.268  19.251  1.00  0.00    -0.020 N 
ATOM     40  H6  UNL     1      37.726   3.784  18.422  1.00  0.00     0.203 HD
BRANCH  34  41
HETATM   41  N3  UNL     1      36.050   6.107  22.502  1.00  0.00    -0.234 N 
ATOM     42  H32 UNL     1      35.259   6.748  22.432  1.00  0.00     0.174 HD
ATOM     43  H31 UNL     1      36.487   5.944  23.408  1.00  0.00     0.174 HD
ENDBRANCH  34  41
BRANCH  37  44
HETATM   44  N5  UNL     1      37.707   2.368  20.476  1.00  0.00    -0.234 N 
ATOM     45  H52 UNL     1      38.676   2.119  20.678  1.00  0.00     0.174 HD
ATOM     46  H51 UNL     1      37.023   1.625  20.332  1.00  0.00     0.174 HD
ENDBRANCH  37  44
ENDBRANCH   4  32
TORSDOF 10
ENDMDL
