MODEL 1
REMARK VINA RESULT: -6.854632880      0.000      0.000
REMARK  11 active torsions:
REMARK  status: ('A' for Active; 'I' for Inactive)
REMARK    1  A    between atoms: N1_1  and  C1_4 
REMARK    2  A    between atoms: C3_8  and  C4_9 
REMARK    3  A    between atoms: C4_9  and  C5_10 
REMARK       I    between atoms: C5_10  and  N3_12 
REMARK    4  A    between atoms: N3_12  and  C6_14 
REMARK    5  A    between atoms: C7_16  and  C8_17 
REMARK    6  A    between atoms: C9_22  and  C10_23 
REMARK    7  A    between atoms: C10_23  and  C11_24 
REMARK    8  A    between atoms: C11_24  and  N6_25 
REMARK    9  A    between atoms: C11_24  and  C12_29 
REMARK   10  A    between atoms: C13_39  and  N12_40 
REMARK   11  A    between atoms: N12_40  and  N13_42 
ROOT
HETATM    1  C6  UNL     1      38.271   4.582  15.039  1.00  0.00     0.296 C 
HETATM    2  O2  UNL     1      39.482   4.613  14.357  1.00  0.00    -0.327 OA
HETATM    3  C7  UNL     1      39.174   4.107  13.090  1.00  0.00     0.303 C 
HETATM    4  N11 UNL     1      37.801   4.545  12.854  1.00  0.00    -0.342 N 
ATOM      5  H11 UNL     1      37.347   4.616  11.943  1.00  0.00     0.164 HD
HETATM    6  C13 UNL     1      37.259   4.828  13.984  1.00  0.00     0.143 C 
ENDROOT
BRANCH   3   7
HETATM    7  C8  UNL     1      39.186   2.627  13.055  1.00  0.00     0.189 A 
HETATM    8  N4  UNL     1      40.035   1.869  13.764  1.00  0.00    -0.278 N 
HETATM    9  N5  UNL     1      39.719   0.602  13.452  1.00  0.00    -0.281 N 
ATOM     10  H4  UNL     1      40.765   2.187  14.403  1.00  0.00     0.189 HD
HETATM   11  C9  UNL     1      38.701   0.593  12.576  1.00  0.00     0.142 A 
ATOM     12  H5  UNL     1      40.180  -0.227  13.824  1.00  0.00     0.189 HD
HETATM   13  O3  UNL     1      38.407   1.866  12.362  1.00  0.00    -0.278 OA
BRANCH  11  14
HETATM   14  C10 UNL     1      38.079  -0.627  12.003  1.00  0.00     0.127 C 
BRANCH  14  15
HETATM   15  C11 UNL     1      36.802  -0.919  12.751  1.00  0.00     0.260 C 
BRANCH  15  16
HETATM   16  N6  UNL     1      35.986   0.279  12.757  1.00  0.00    -0.068 N 
ATOM     17  H63 UNL     1      36.317   0.980  12.096  1.00  0.00     0.275 HD
ATOM     18  H62 UNL     1      35.064   0.125  12.349  1.00  0.00     0.275 HD
ATOM     19  H61 UNL     1      35.937   0.635  13.712  1.00  0.00     0.275 HD
ENDBRANCH  15  16
BRANCH  15  20
HETATM   20  C12 UNL     1      36.054  -2.012  12.109  1.00  0.00     0.138 A 
HETATM   21  N7  UNL     1      35.854  -2.162  10.787  1.00  0.00    -0.272 N 
HETATM   22  N8  UNL     1      35.129  -3.275  10.590  1.00  0.00    -0.007 NA
ATOM     23  H7  UNL     1      36.196  -1.536  10.057  1.00  0.00     0.185 HD
HETATM   24  N9  UNL     1      34.873  -3.821  11.766  1.00  0.00    -0.007 NA
HETATM   25  N10 UNL     1      35.429  -3.063  12.694  1.00  0.00    -0.272 N 
ATOM     26  H10 UNL     1      35.394  -3.242  13.698  1.00  0.00     0.185 HD
ENDBRANCH  15  20
ENDBRANCH  14  15
ENDBRANCH  11  14
ENDBRANCH   3   7
BRANCH   1  27
HETATM   27  N3  UNL     1      38.166   5.649  16.008  1.00  0.00    -0.328 N 
HETATM   28  C5  UNL     1      38.064   5.355  17.383  1.00  0.00     0.224 C 
HETATM   29  O1  UNL     1      38.066   4.155  17.760  1.00  0.00    -0.273 OA
ATOM     30  H3  UNL     1      38.164   6.621  15.695  1.00  0.00     0.165 HD
BRANCH  28  31
HETATM   31  C4  UNL     1      37.957   6.456  18.373  1.00  0.00     0.150 C 
BRANCH  31  32
HETATM   32  C3  UNL     1      37.094   5.963  19.492  1.00  0.00     0.010 A 
HETATM   33  C2  UNL     1      35.815   6.342  19.811  1.00  0.00     0.105 A 
HETATM   34  N2  UNL     1      35.250   5.776  20.834  1.00  0.00    -0.346 N 
HETATM   35  C1  UNL     1      35.933   4.861  21.521  1.00  0.00     0.142 A 
ATOM     36  H2  UNL     1      34.300   6.027  21.107  1.00  0.00     0.167 HD
HETATM   37  S1  UNL     1      37.424   4.796  20.695  1.00  0.00    -0.057 SA
BRANCH  35  38
HETATM   38  N1  UNL     1      35.537   4.183  22.576  1.00  0.00    -0.380 N 
ATOM     39  H12 UNL     1      35.109   4.523  23.438  1.00  0.00     0.158 HD
ATOM     40  H11 UNL     1      35.587   3.176  22.727  1.00  0.00     0.158 HD
ENDBRANCH  35  38
ENDBRANCH  31  32
ENDBRANCH  28  31
ENDBRANCH   1  27
BRANCH   6  41
HETATM   41  N12 UNL     1      35.906   5.300  14.196  1.00  0.00    -0.292 N 
ATOM     42  H12 UNL     1      35.215   4.676  14.614  1.00  0.00     0.187 HD
BRANCH  41  43
HETATM   43  N13 UNL     1      35.531   6.600  13.837  1.00  0.00    -0.344 N 
ATOM     44 2H13 UNL     1      35.666   6.896  12.871  1.00  0.00     0.176 HD
ATOM     45 1H13 UNL     1      35.132   7.241  14.523  1.00  0.00     0.176 HD
ENDBRANCH  41  43
ENDBRANCH   6  41
TORSDOF 11
ENDMDL
MODEL 2
REMARK VINA RESULT: -6.797868221      2.470      8.400
REMARK  11 active torsions:
REMARK  status: ('A' for Active; 'I' for Inactive)
REMARK    1  A    between atoms: N1_1  and  C1_4 
REMARK    2  A    between atoms: C3_8  and  C4_9 
REMARK    3  A    between atoms: C4_9  and  C5_10 
REMARK       I    between atoms: C5_10  and  N3_12 
REMARK    4  A    between atoms: N3_12  and  C6_14 
REMARK    5  A    between atoms: C7_16  and  C8_17 
REMARK    6  A    between atoms: C9_22  and  C10_23 
REMARK    7  A    between atoms: C10_23  and  C11_24 
REMARK    8  A    between atoms: C11_24  and  N6_25 
REMARK    9  A    between atoms: C11_24  and  C12_29 
REMARK   10  A    between atoms: C13_39  and  N12_40 
REMARK   11  A    between atoms: N12_40  and  N13_42 
ROOT
HETATM    1  C6  UNL     1      38.015   3.706  13.725  1.00  0.00     0.296 C 
HETATM    2  O2  UNL     1      36.685   3.909  14.075  1.00  0.00    -0.327 OA
HETATM    3  C7  UNL     1      36.594   5.288  14.289  1.00  0.00     0.303 C 
HETATM    4  N11 UNL     1      37.552   5.861  13.346  1.00  0.00    -0.342 N 
ATOM      5  H11 UNL     1      37.555   6.825  13.014  1.00  0.00     0.164 HD
HETATM    6  C13 UNL     1      38.389   4.948  13.007  1.00  0.00     0.143 C 
ENDROOT
BRANCH   3   7
HETATM    7  C8  UNL     1      37.016   5.678  15.653  1.00  0.00     0.189 A 
HETATM    8  N4  UNL     1      36.965   6.934  16.122  1.00  0.00    -0.278 N 
HETATM    9  N5  UNL     1      37.430   6.858  17.378  1.00  0.00    -0.281 N 
ATOM     10  H4  UNL     1      36.641   7.766  15.629  1.00  0.00     0.189 HD
HETATM   11  C9  UNL     1      37.755   5.587  17.664  1.00  0.00     0.142 A 
ATOM     12  H5  UNL     1      37.523   7.646  18.019  1.00  0.00     0.189 HD
HETATM   13  O3  UNL     1      37.482   4.896  16.569  1.00  0.00    -0.278 OA
BRANCH  11  14
HETATM   14  C10 UNL     1      38.303   5.118  18.962  1.00  0.00     0.127 C 
BRANCH  14  15
HETATM   15  C11 UNL     1      37.441   3.993  19.476  1.00  0.00     0.260 C 
BRANCH  15  16
HETATM   16  N6  UNL     1      38.300   2.976  20.050  1.00  0.00    -0.068 N 
ATOM     17  H63 UNL     1      39.285   3.133  19.838  1.00  0.00     0.275 HD
ATOM     18  H62 UNL     1      38.362   3.045  21.065  1.00  0.00     0.275 HD
ATOM     19  H61 UNL     1      37.974   2.061  19.738  1.00  0.00     0.275 HD
ENDBRANCH  15  16
BRANCH  15  20
HETATM   20  C12 UNL     1      36.505   4.475  20.507  1.00  0.00     0.138 A 
HETATM   21  N7  UNL     1      36.304   3.915  21.713  1.00  0.00    -0.272 N 
HETATM   22  N8  UNL     1      35.381   4.638  22.368  1.00  0.00    -0.007 NA
ATOM     23  H7  UNL     1      36.774   3.083  22.071  1.00  0.00     0.185 HD
HETATM   24  N9  UNL     1      35.003   5.637  21.591  1.00  0.00    -0.007 NA
HETATM   25  N10 UNL     1      35.679   5.548  20.458  1.00  0.00    -0.272 N 
ATOM     26  H10 UNL     1      35.592   6.189  19.670  1.00  0.00     0.185 HD
ENDBRANCH  15  20
ENDBRANCH  14  15
ENDBRANCH  11  14
ENDBRANCH   3   7
BRANCH   1  27
HETATM   27  N3  UNL     1      38.173   2.601  12.809  1.00  0.00    -0.328 N 
HETATM   28  C5  UNL     1      38.642   1.354  13.270  1.00  0.00     0.224 C 
HETATM   29  O1  UNL     1      38.922   1.212  14.488  1.00  0.00    -0.273 OA
ATOM     30  H3  UNL     1      37.945   2.724  11.821  1.00  0.00     0.165 HD
BRANCH  28  31
HETATM   31  C4  UNL     1      38.803   0.222  12.323  1.00  0.00     0.150 C 
BRANCH  31  32
HETATM   32  C3  UNL     1      37.683  -0.736  12.585  1.00  0.00     0.010 A 
HETATM   33  C2  UNL     1      36.370  -0.635  12.204  1.00  0.00     0.105 A 
HETATM   34  N2  UNL     1      35.562  -1.595  12.542  1.00  0.00    -0.346 N 
HETATM   35  C1  UNL     1      36.044  -2.623  13.238  1.00  0.00     0.142 A 
ATOM     36  H2  UNL     1      34.578  -1.561  12.280  1.00  0.00     0.167 HD
HETATM   37  S1  UNL     1      37.692  -2.225  13.421  1.00  0.00    -0.057 SA
BRANCH  35  38
HETATM   38  N1  UNL     1      35.391  -3.681  13.669  1.00  0.00    -0.380 N 
ATOM     39  H12 UNL     1      34.593  -3.733  14.303  1.00  0.00     0.158 HD
ATOM     40  H11 UNL     1      35.569  -4.660  13.445  1.00  0.00     0.158 HD
ENDBRANCH  35  38
ENDBRANCH  31  32
ENDBRANCH  28  31
ENDBRANCH   1  27
BRANCH   6  41
HETATM   41  N12 UNL     1      39.502   5.097  12.090  1.00  0.00    -0.292 N 
ATOM     42  H12 UNL     1      40.456   5.075  12.449  1.00  0.00     0.187 HD
BRANCH  41  43
HETATM   43  N13 UNL     1      39.286   5.271  10.718  1.00  0.00    -0.344 N 
ATOM     44 2H13 UNL     1      38.916   6.164  10.393  1.00  0.00     0.176 HD
ATOM     45 1H13 UNL     1      39.494   4.525  10.054  1.00  0.00     0.176 HD
ENDBRANCH  41  43
ENDBRANCH   6  41
TORSDOF 11
ENDMDL
MODEL 3
REMARK VINA RESULT: -6.727002985      2.587      8.507
REMARK  11 active torsions:
REMARK  status: ('A' for Active; 'I' for Inactive)
REMARK    1  A    between atoms: N1_1  and  C1_4 
REMARK    2  A    between atoms: C3_8  and  C4_9 
REMARK    3  A    between atoms: C4_9  and  C5_10 
REMARK       I    between atoms: C5_10  and  N3_12 
REMARK    4  A    between atoms: N3_12  and  C6_14 
REMARK    5  A    between atoms: C7_16  and  C8_17 
REMARK    6  A    between atoms: C9_22  and  C10_23 
REMARK    7  A    between atoms: C10_23  and  C11_24 
REMARK    8  A    between atoms: C11_24  and  N6_25 
REMARK    9  A    between atoms: C11_24  and  C12_29 
REMARK   10  A    between atoms: C13_39  and  N12_40 
REMARK   11  A    between atoms: N12_40  and  N13_42 
ROOT
HETATM    1  C6  UNL     1      38.591   4.024  15.714  1.00  0.00     0.296 C 
HETATM    2  O2  UNL     1      38.672   5.346  15.292  1.00  0.00    -0.327 OA
HETATM    3  C7  UNL     1      38.981   6.059  16.455  1.00  0.00     0.303 C 
HETATM    4  N11 UNL     1      39.798   5.133  17.235  1.00  0.00    -0.342 N 
ATOM      5  H11 UNL     1      40.435   5.391  17.989  1.00  0.00     0.164 HD
HETATM    6  C13 UNL     1      39.582   3.939  16.814  1.00  0.00     0.143 C 
ENDROOT
BRANCH   3   7
HETATM    7  C8  UNL     1      37.779   6.383  17.256  1.00  0.00     0.189 A 
HETATM    8  N4  UNL     1      36.808   7.211  16.844  1.00  0.00    -0.278 N 
HETATM    9  N5  UNL     1      35.917   7.232  17.848  1.00  0.00    -0.281 N 
ATOM     10  H4  UNL     1      36.757   7.715  15.959  1.00  0.00     0.189 HD
HETATM   11  C9  UNL     1      36.338   6.435  18.843  1.00  0.00     0.142 A 
ATOM     12  H5  UNL     1      35.051   7.771  17.854  1.00  0.00     0.189 HD
HETATM   13  O3  UNL     1      37.492   5.933  18.431  1.00  0.00    -0.278 OA
BRANCH  11  14
HETATM   14  C10 UNL     1      35.613   6.207  20.118  1.00  0.00     0.127 C 
BRANCH  14  15
HETATM   15  C11 UNL     1      36.596   5.730  21.158  1.00  0.00     0.260 C 
BRANCH  15  16
HETATM   16  N6  UNL     1      36.145   6.179  22.460  1.00  0.00    -0.068 N 
ATOM     17  H63 UNL     1      35.210   5.843  22.687  1.00  0.00     0.275 HD
ATOM     18  H62 UNL     1      36.646   5.725  23.225  1.00  0.00     0.275 HD
ATOM     19  H61 UNL     1      36.215   7.196  22.497  1.00  0.00     0.275 HD
ENDBRANCH  15  16
BRANCH  15  20
HETATM   20  C12 UNL     1      36.692   4.260  21.158  1.00  0.00     0.138 A 
HETATM   21  N7  UNL     1      36.047   3.428  21.995  1.00  0.00    -0.272 N 
HETATM   22  N8  UNL     1      36.387   2.167  21.685  1.00  0.00    -0.007 NA
ATOM     23  H7  UNL     1      35.407   3.707  22.738  1.00  0.00     0.185 HD
HETATM   24  N9  UNL     1      37.233   2.198  20.670  1.00  0.00    -0.007 NA
HETATM   25  N10 UNL     1      37.425   3.464  20.343  1.00  0.00    -0.272 N 
ATOM     26  H10 UNL     1      38.032   3.791  19.591  1.00  0.00     0.185 HD
ENDBRANCH  15  20
ENDBRANCH  14  15
ENDBRANCH  11  14
ENDBRANCH   3   7
BRANCH   1  27
HETATM   27  N3  UNL     1      38.996   3.098  14.682  1.00  0.00    -0.328 N 
HETATM   28  C5  UNL     1      38.057   2.618  13.746  1.00  0.00     0.224 C 
HETATM   29  O1  UNL     1      36.862   3.004  13.818  1.00  0.00    -0.273 OA
ATOM     30  H3  UNL     1      39.968   2.789  14.630  1.00  0.00     0.165 HD
BRANCH  28  31
HETATM   31  C4  UNL     1      38.480   1.667  12.688  1.00  0.00     0.150 C 
BRANCH  31  32
HETATM   32  C3  UNL     1      37.684   0.414  12.876  1.00  0.00     0.010 A 
HETATM   33  C2  UNL     1      36.576  -0.002  12.184  1.00  0.00     0.105 A 
HETATM   34  N2  UNL     1      36.041  -1.138  12.518  1.00  0.00    -0.346 N 
HETATM   35  C1  UNL     1      36.589  -1.839  13.510  1.00  0.00     0.142 A 
ATOM     36  H2  UNL     1      35.216  -1.487  12.031  1.00  0.00     0.167 HD
HETATM   37  S1  UNL     1      37.905  -0.864  13.987  1.00  0.00    -0.057 SA
BRANCH  35  38
HETATM   38  N1  UNL     1      36.196  -2.999  13.989  1.00  0.00    -0.380 N 
ATOM     39  H12 UNL     1      35.271  -3.428  13.965  1.00  0.00     0.158 HD
ATOM     40  H11 UNL     1      36.757  -3.694  14.483  1.00  0.00     0.158 HD
ENDBRANCH  35  38
ENDBRANCH  31  32
ENDBRANCH  28  31
ENDBRANCH   1  27
BRANCH   6  41
HETATM   41  N12 UNL     1      40.191   2.724  17.317  1.00  0.00    -0.292 N 
ATOM     42  H12 UNL     1      41.069   2.397  16.914  1.00  0.00     0.187 HD
BRANCH  41  43
HETATM   43  N13 UNL     1      39.592   1.991  18.348  1.00  0.00    -0.344 N 
ATOM     44 2H13 UNL     1      39.965   1.069  18.571  1.00  0.00     0.176 HD
ATOM     45 1H13 UNL     1      38.800   2.367  18.869  1.00  0.00     0.176 HD
ENDBRANCH  41  43
ENDBRANCH   6  41
TORSDOF 11
ENDMDL
MODEL 4
REMARK VINA RESULT: -6.697048360      3.299      4.827
REMARK  11 active torsions:
REMARK  status: ('A' for Active; 'I' for Inactive)
REMARK    1  A    between atoms: N1_1  and  C1_4 
REMARK    2  A    between atoms: C3_8  and  C4_9 
REMARK    3  A    between atoms: C4_9  and  C5_10 
REMARK       I    between atoms: C5_10  and  N3_12 
REMARK    4  A    between atoms: N3_12  and  C6_14 
REMARK    5  A    between atoms: C7_16  and  C8_17 
REMARK    6  A    between atoms: C9_22  and  C10_23 
REMARK    7  A    between atoms: C10_23  and  C11_24 
REMARK    8  A    between atoms: C11_24  and  N6_25 
REMARK    9  A    between atoms: C11_24  and  C12_29 
REMARK   10  A    between atoms: C13_39  and  N12_40 
REMARK   11  A    between atoms: N12_40  and  N13_42 
ROOT
HETATM    1  C6  UNL     1      39.408   0.516  18.306  1.00  0.00     0.296 C 
HETATM    2  O2  UNL     1      39.189  -0.774  18.776  1.00  0.00    -0.327 OA
HETATM    3  C7  UNL     1      39.661  -1.597  17.748  1.00  0.00     0.303 C 
HETATM    4  N11 UNL     1      40.769  -0.844  17.166  1.00  0.00    -0.342 N 
ATOM      5  H11 UNL     1      41.522  -1.235  16.601  1.00  0.00     0.164 HD
HETATM    6  C13 UNL     1      40.636   0.394  17.483  1.00  0.00     0.143 C 
ENDROOT
BRANCH   3   7
HETATM    7  C8  UNL     1      38.652  -1.809  16.686  1.00  0.00     0.189 A 
HETATM    8  N4  UNL     1      37.434  -2.325  16.904  1.00  0.00    -0.278 N 
HETATM    9  N5  UNL     1      36.842  -2.348  15.699  1.00  0.00    -0.281 N 
ATOM     10  H4  UNL     1      37.041  -2.634  17.794  1.00  0.00     0.189 HD
HETATM   11  C9  UNL     1      37.682  -1.855  14.774  1.00  0.00     0.142 A 
ATOM     12  H5  UNL     1      35.898  -2.687  15.514  1.00  0.00     0.189 HD
HETATM   13  O3  UNL     1      38.786  -1.536  15.431  1.00  0.00    -0.278 OA
BRANCH  11  14
HETATM   14  C10 UNL     1      37.375  -1.723  13.327  1.00  0.00     0.127 C 
BRANCH  14  15
HETATM   15  C11 UNL     1      38.062  -0.491  12.795  1.00  0.00     0.260 C 
BRANCH  15  16
HETATM   16  N6  UNL     1      38.212  -0.629  11.360  1.00  0.00    -0.068 N 
ATOM     17  H63 UNL     1      39.078  -0.215  11.017  1.00  0.00     0.275 HD
ATOM     18  H62 UNL     1      38.395  -1.592  11.077  1.00  0.00     0.275 HD
ATOM     19  H61 UNL     1      37.386  -0.238  10.907  1.00  0.00     0.275 HD
ENDBRANCH  15  16
BRANCH  15  20
HETATM   20  C12 UNL     1      37.274   0.719  13.086  1.00  0.00     0.138 A 
HETATM   21  N7  UNL     1      35.933   0.814  13.049  1.00  0.00    -0.272 N 
HETATM   22  N8  UNL     1      35.588   2.071  13.374  1.00  0.00    -0.007 NA
ATOM     23  H7  UNL     1      35.287   0.060  12.815  1.00  0.00     0.185 HD
HETATM   24  N9  UNL     1      36.690   2.759  13.612  1.00  0.00    -0.007 NA
HETATM   25  N10 UNL     1      37.719   1.949  13.439  1.00  0.00    -0.272 N 
ATOM     26  H10 UNL     1      38.699   2.209  13.555  1.00  0.00     0.185 HD
ENDBRANCH  15  20
ENDBRANCH  14  15
ENDBRANCH  11  14
ENDBRANCH   3   7
BRANCH   1  27
HETATM   27  N3  UNL     1      39.686   1.445  19.376  1.00  0.00    -0.328 N 
HETATM   28  C5  UNL     1      39.370   2.812  19.233  1.00  0.00     0.224 C 
HETATM   29  O1  UNL     1      38.846   3.216  18.163  1.00  0.00    -0.273 OA
ATOM     30  H3  UNL     1      40.112   1.111  20.241  1.00  0.00     0.165 HD
BRANCH  28  31
HETATM   31  C4  UNL     1      39.657   3.762  20.337  1.00  0.00     0.150 C 
BRANCH  31  32
HETATM   32  C3  UNL     1      38.431   4.596  20.533  1.00  0.00     0.010 A 
HETATM   33  C2  UNL     1      38.306   5.959  20.449  1.00  0.00     0.105 A 
HETATM   34  N2  UNL     1      37.133   6.478  20.659  1.00  0.00    -0.346 N 
HETATM   35  C1  UNL     1      36.115   5.667  20.944  1.00  0.00     0.142 A 
ATOM     36  H2  UNL     1      36.995   7.486  20.606  1.00  0.00     0.167 HD
HETATM   37  S1  UNL     1      36.835   4.121  20.915  1.00  0.00    -0.057 SA
BRANCH  35  38
HETATM   38  N1  UNL     1      34.865   5.998  21.184  1.00  0.00    -0.380 N 
ATOM     39  H12 UNL     1      34.081   6.077  20.535  1.00  0.00     0.158 HD
ATOM     40  H11 UNL     1      34.444   6.242  22.081  1.00  0.00     0.158 HD
ENDBRANCH  35  38
ENDBRANCH  31  32
ENDBRANCH  28  31
ENDBRANCH   1  27
BRANCH   6  41
HETATM   41  N12 UNL     1      41.520   1.479  17.108  1.00  0.00    -0.292 N 
ATOM     42  H12 UNL     1      42.418   1.582  17.580  1.00  0.00     0.187 HD
BRANCH  41  43
HETATM   43  N13 UNL     1      41.160   2.389  16.107  1.00  0.00    -0.344 N 
ATOM     44 2H13 UNL     1      41.829   2.585  15.364  1.00  0.00     0.176 HD
ATOM     45 1H13 UNL     1      40.249   2.848  16.117  1.00  0.00     0.176 HD
ENDBRANCH  41  43
ENDBRANCH   6  41
TORSDOF 11
ENDMDL
MODEL 5
REMARK VINA RESULT: -6.665224460      2.765      8.126
REMARK  11 active torsions:
REMARK  status: ('A' for Active; 'I' for Inactive)
REMARK    1  A    between atoms: N1_1  and  C1_4 
REMARK    2  A    between atoms: C3_8  and  C4_9 
REMARK    3  A    between atoms: C4_9  and  C5_10 
REMARK       I    between atoms: C5_10  and  N3_12 
REMARK    4  A    between atoms: N3_12  and  C6_14 
REMARK    5  A    between atoms: C7_16  and  C8_17 
REMARK    6  A    between atoms: C9_22  and  C10_23 
REMARK    7  A    between atoms: C10_23  and  C11_24 
REMARK    8  A    between atoms: C11_24  and  N6_25 
REMARK    9  A    between atoms: C11_24  and  C12_29 
REMARK   10  A    between atoms: C13_39  and  N12_40 
REMARK   11  A    between atoms: N12_40  and  N13_42 
ROOT
HETATM    1  C6  UNL     1      38.050   3.157  13.636  1.00  0.00     0.296 C 
HETATM    2  O2  UNL     1      36.859   3.551  14.236  1.00  0.00    -0.327 OA
HETATM    3  C7  UNL     1      36.988   4.937  14.373  1.00  0.00     0.303 C 
HETATM    4  N11 UNL     1      37.790   5.338  13.220  1.00  0.00    -0.342 N 
ATOM      5  H11 UNL     1      37.843   6.280  12.831  1.00  0.00     0.164 HD
HETATM    6  C13 UNL     1      38.416   4.308  12.776  1.00  0.00     0.143 C 
ENDROOT
BRANCH   3   7
HETATM    7  C8  UNL     1      37.735   5.317  15.594  1.00  0.00     0.189 A 
HETATM    8  N4  UNL     1      38.411   6.467  15.729  1.00  0.00    -0.278 N 
HETATM    9  N5  UNL     1      38.936   6.422  16.964  1.00  0.00    -0.281 N 
ATOM     10  H4  UNL     1      38.505   7.215  15.041  1.00  0.00     0.189 HD
HETATM   11  C9  UNL     1      38.585   5.273  17.562  1.00  0.00     0.142 A 
ATOM     12  H5  UNL     1      39.513   7.151  17.383  1.00  0.00     0.189 HD
HETATM   13  O3  UNL     1      37.844   4.624  16.678  1.00  0.00    -0.278 OA
BRANCH  11  14
HETATM   14  C10 UNL     1      38.980   4.871  18.936  1.00  0.00     0.127 C 
BRANCH  14  15
HETATM   15  C11 UNL     1      37.843   5.178  19.878  1.00  0.00     0.260 C 
BRANCH  15  16
HETATM   16  N6  UNL     1      36.769   5.791  19.122  1.00  0.00    -0.068 N 
ATOM     17  H63 UNL     1      36.946   6.774  18.919  1.00  0.00     0.275 HD
ATOM     18  H62 UNL     1      36.726   5.453  18.161  1.00  0.00     0.275 HD
ATOM     19  H61 UNL     1      35.893   5.648  19.627  1.00  0.00     0.275 HD
ENDBRANCH  15  16
BRANCH  15  20
HETATM   20  C12 UNL     1      37.345   3.949  20.520  1.00  0.00     0.138 A 
HETATM   21  N7  UNL     1      37.682   2.691  20.185  1.00  0.00    -0.272 N 
HETATM   22  N8  UNL     1      37.025   1.846  20.995  1.00  0.00    -0.007 NA
ATOM     23  H7  UNL     1      38.328   2.425  19.442  1.00  0.00     0.185 HD
HETATM   24  N9  UNL     1      36.285   2.554  21.829  1.00  0.00    -0.007 NA
HETATM   25  N10 UNL     1      36.470   3.832  21.549  1.00  0.00    -0.272 N 
ATOM     26  H10 UNL     1      36.024   4.611  22.033  1.00  0.00     0.185 HD
ENDBRANCH  15  20
ENDBRANCH  14  15
ENDBRANCH  11  14
ENDBRANCH   3   7
BRANCH   1  27
HETATM   27  N3  UNL     1      37.872   2.006  12.780  1.00  0.00    -0.328 N 
HETATM   28  C5  UNL     1      38.772   0.922  12.847  1.00  0.00     0.224 C 
HETATM   29  O1  UNL     1      39.732   0.966  13.659  1.00  0.00    -0.273 OA
ATOM     30  H3  UNL     1      37.092   1.978  12.123  1.00  0.00     0.165 HD
BRANCH  28  31
HETATM   31  C4  UNL     1      38.583  -0.257  11.966  1.00  0.00     0.150 C 
BRANCH  31  32
HETATM   32  C3  UNL     1      37.685  -1.211  12.688  1.00  0.00     0.010 A 
HETATM   33  C2  UNL     1      37.545  -1.390  14.040  1.00  0.00     0.105 A 
HETATM   34  N2  UNL     1      36.696  -2.283  14.452  1.00  0.00    -0.346 N 
HETATM   35  C1  UNL     1      36.007  -2.979  13.548  1.00  0.00     0.142 A 
ATOM     36  H2  UNL     1      36.559  -2.449  15.448  1.00  0.00     0.167 HD
HETATM   37  S1  UNL     1      36.575  -2.351  12.067  1.00  0.00    -0.057 SA
BRANCH  35  38
HETATM   38  N1  UNL     1      35.111  -3.916  13.764  1.00  0.00    -0.380 N 
ATOM     39  H12 UNL     1      34.973  -4.802  13.277  1.00  0.00     0.158 HD
ATOM     40  H11 UNL     1      34.376  -3.927  14.472  1.00  0.00     0.158 HD
ENDBRANCH  35  38
ENDBRANCH  31  32
ENDBRANCH  28  31
ENDBRANCH   1  27
BRANCH   6  41
HETATM   41  N12 UNL     1      39.319   4.271  11.644  1.00  0.00    -0.292 N 
ATOM     42  H12 UNL     1      39.949   3.476  11.529  1.00  0.00     0.187 HD
BRANCH  41  43
HETATM   43  N13 UNL     1      39.341   5.308  10.705  1.00  0.00    -0.344 N 
ATOM     44 2H13 UNL     1      39.693   6.220  10.995  1.00  0.00     0.176 HD
ATOM     45 1H13 UNL     1      39.014   5.160   9.750  1.00  0.00     0.176 HD
ENDBRANCH  41  43
ENDBRANCH   6  41
TORSDOF 11
ENDMDL
