MODEL 1
REMARK VINA RESULT: -6.812627878      0.000      0.000
REMARK  9 active torsions:
REMARK  status: ('A' for Active; 'I' for Inactive)
REMARK    1  A    between atoms: N2_4  and  N3_6 
REMARK    2  A    between atoms: N3_6  and  C3_8 
REMARK    3  A    between atoms: C3_8  and  O1_9 
REMARK    4  A    between atoms: C3_8  and  C4_11 
REMARK    5  A    between atoms: N4_15  and  C8_17 
REMARK    6  A    between atoms: C9_22  and  N7_23 
REMARK    7  A    between atoms: C13_33  and  C14_34 
REMARK    8  A    between atoms: C14_34  and  N12_35 
REMARK    9  A    between atoms: C14_34  and  O2_39 
ROOT
HETATM    1  N1  UNL     1      35.572   6.355  22.697  1.00  0.00    -0.191 NA
HETATM    2  C1  UNL     1      36.176   6.633  21.738  1.00  0.00     0.106 C 
HETATM    3  C2  UNL     1      36.899   6.947  20.565  1.00  0.00     0.200 C 
HETATM    4  N2  UNL     1      36.565   7.929  19.810  1.00  0.00    -0.304 N 
ATOM      5  H2  UNL     1      35.755   8.491  20.071  1.00  0.00     0.186 HD
ENDROOT
BRANCH   4   6
HETATM    6  N3  UNL     1      37.258   8.261  18.652  1.00  0.00    -0.303 N 
ATOM      7  H3  UNL     1      36.970   9.065  18.094  1.00  0.00     0.183 HD
BRANCH   6   8
HETATM    8  C3  UNL     1      38.386   7.466  18.245  1.00  0.00     0.270 C 
BRANCH   8   9
HETATM    9  O1  UNL     1      39.543   8.225  18.114  1.00  0.00    -0.371 OA
ATOM     10  H1  UNL     1      40.288   7.699  17.849  1.00  0.00     0.212 HD
ENDBRANCH   8   9
BRANCH   8  11
HETATM   11  C4  UNL     1      38.077   6.896  16.915  1.00  0.00     0.032 A 
HETATM   12  C5  UNL     1      37.983   5.525  16.800  1.00  0.00     0.019 A 
HETATM   13  C6  UNL     1      37.696   4.943  15.579  1.00  0.00     0.050 A 
HETATM   14  C7  UNL     1      37.514   5.780  14.508  1.00  0.00     0.122 A 
HETATM   15  N4  UNL     1      37.244   5.315  13.341  1.00  0.00    -0.175 N 
HETATM   16  N14 UNL     1      37.612   7.134  14.646  1.00  0.00    -0.330 N 
ATOM     17  H4  UNL     1      37.109   5.942  12.548  1.00  0.00     0.186 HD
HETATM   18  C15 UNL     1      37.890   7.720  15.828  1.00  0.00     0.128 A 
ATOM     19  H14 UNL     1      37.471   7.725  13.826  1.00  0.00     0.168 HD
HETATM   20  N15 UNL     1      37.993   9.126  15.978  1.00  0.00    -0.082 NA
BRANCH  15  21
HETATM   21  C8  UNL     1      37.138   3.889  13.182  1.00  0.00     0.699 A 
HETATM   22  N5  UNL     1      35.962   3.256  13.251  1.00  0.00    -0.130 N 
HETATM   23  N6  UNL     1      35.920   1.964  13.102  1.00  0.00    -0.268 N 
ATOM     24  H5  UNL     1      35.104   3.781  13.420  1.00  0.00     0.205 HD
HETATM   25  C9  UNL     1      37.021   1.183  12.873  1.00  0.00     0.166 A 
ATOM     26  H6  UNL     1      35.011   1.505  13.160  1.00  0.00     0.189 HD
HETATM   27  C13 UNL     1      38.212   1.810  12.796  1.00  0.00     0.129 A 
HETATM   28  N13 UNL     1      38.246   3.186  12.959  1.00  0.00    -0.186 N 
ATOM     29  H13 UNL     1      39.142   3.671  12.906  1.00  0.00     0.184 HD
BRANCH  25  30
HETATM   30  N7  UNL     1      36.890  -0.236  12.822  1.00  0.00    -0.265 N 
HETATM   31  C10 UNL     1      36.084  -0.735  11.742  1.00  0.00     0.224 A 
HETATM   32  C11 UNL     1      35.910  -2.169  11.752  1.00  0.00     0.115 A 
HETATM   33  N8  UNL     1      35.110  -2.737  10.698  1.00  0.00    -0.086 NA
HETATM   34  N9  UNL     1      36.436  -2.929  12.650  1.00  0.00    -0.320 N 
HETATM   35  C12 UNL     1      37.234  -2.356  13.701  1.00  0.00     0.208 A 
ATOM     36  H9  UNL     1      36.286  -3.937  12.616  1.00  0.00     0.169 HD
HETATM   37  N10 UNL     1      37.797  -3.228  14.672  1.00  0.00    -0.062 NA
HETATM   38  N11 UNL     1      37.416  -1.103  13.736  1.00  0.00    -0.269 N 
ATOM     39  H11 UNL     1      37.987  -0.721  14.490  1.00  0.00     0.190 HD
ENDBRANCH  25  30
BRANCH  27  40
HETATM   40  C14 UNL     1      39.468   1.150  12.457  1.00  0.00     0.371 C 
BRANCH  40  41
HETATM   41  N12 UNL     1      40.478   2.106  12.035  1.00  0.00    -0.047 N 
ATOM     42 3H12 UNL     1      40.371   2.998  12.519  1.00  0.00     0.277 HD
ATOM     43 2H12 UNL     1      41.402   1.848  12.381  1.00  0.00     0.277 HD
ATOM     44 1H12 UNL     1      40.480   2.228  11.023  1.00  0.00     0.277 HD
ENDBRANCH  40  41
BRANCH  40  45
HETATM   45  O2  UNL     1      40.001   0.543  13.594  1.00  0.00    -0.365 OA
ATOM     46  H2  UNL     1      40.776   1.016  13.874  1.00  0.00     0.212 HD
ENDBRANCH  40  45
ENDBRANCH  27  40
ENDBRANCH  15  21
ENDBRANCH   8  11
ENDBRANCH   6   8
ENDBRANCH   4   6
TORSDOF 9
ENDMDL
MODEL 2
REMARK VINA RESULT: -6.729359901      5.024      8.236
REMARK  9 active torsions:
REMARK  status: ('A' for Active; 'I' for Inactive)
REMARK    1  A    between atoms: N2_4  and  N3_6 
REMARK    2  A    between atoms: N3_6  and  C3_8 
REMARK    3  A    between atoms: C3_8  and  O1_9 
REMARK    4  A    between atoms: C3_8  and  C4_11 
REMARK    5  A    between atoms: N4_15  and  C8_17 
REMARK    6  A    between atoms: C9_22  and  N7_23 
REMARK    7  A    between atoms: C13_33  and  C14_34 
REMARK    8  A    between atoms: C14_34  and  N12_35 
REMARK    9  A    between atoms: C14_34  and  O2_39 
ROOT
HETATM    1  N1  UNL     1      38.935   9.981   6.031  1.00  0.00    -0.191 NA
HETATM    2  C1  UNL     1      39.757   9.165   6.172  1.00  0.00     0.106 C 
HETATM    3  C2  UNL     1      40.749   8.177   6.367  1.00  0.00     0.200 C 
HETATM    4  N2  UNL     1      40.602   6.979   5.933  1.00  0.00    -0.304 N 
ATOM      5  H2  UNL     1      39.743   6.743   5.435  1.00  0.00     0.186 HD
ENDROOT
BRANCH   4   6
HETATM    6  N3  UNL     1      41.561   5.988   6.110  1.00  0.00    -0.303 N 
ATOM      7  H3  UNL     1      41.437   5.072   5.679  1.00  0.00     0.183 HD
BRANCH   6   8
HETATM    8  C3  UNL     1      42.728   6.262   6.905  1.00  0.00     0.270 C 
BRANCH   8   9
HETATM    9  O1  UNL     1      43.855   5.607   6.422  1.00  0.00    -0.371 OA
ATOM     10  H1  UNL     1      44.650   6.109   6.565  1.00  0.00     0.212 HD
ENDBRANCH   8   9
BRANCH   8  11
HETATM   11  C4  UNL     1      42.472   5.756   8.271  1.00  0.00     0.032 A 
HETATM   12  C5  UNL     1      41.549   4.743   8.426  1.00  0.00     0.019 A 
HETATM   13  C6  UNL     1      41.274   4.234   9.682  1.00  0.00     0.050 A 
HETATM   14  C7  UNL     1      41.949   4.777  10.745  1.00  0.00     0.122 A 
HETATM   15  N4  UNL     1      41.748   4.358  11.943  1.00  0.00    -0.175 N 
HETATM   16  N14 UNL     1      42.857   5.780  10.566  1.00  0.00    -0.330 N 
ATOM     17  H4  UNL     1      42.253   4.765  12.730  1.00  0.00     0.186 HD
HETATM   18  C15 UNL     1      43.140   6.288   9.350  1.00  0.00     0.128 A 
ATOM     19  H14 UNL     1      43.339   6.159  11.382  1.00  0.00     0.168 HD
HETATM   20  N15 UNL     1      44.083   7.329   9.158  1.00  0.00    -0.082 NA
BRANCH  15  21
HETATM   21  C8  UNL     1      40.792   3.302  12.145  1.00  0.00     0.699 A 
HETATM   22  N5  UNL     1      41.117   2.014  11.983  1.00  0.00    -0.130 N 
HETATM   23  N6  UNL     1      40.215   1.096  12.176  1.00  0.00    -0.268 N 
ATOM     24  H5  UNL     1      42.065   1.753  11.709  1.00  0.00     0.205 HD
HETATM   25  C9  UNL     1      38.922   1.358  12.544  1.00  0.00     0.166 A 
ATOM     26  H6  UNL     1      40.488   0.122  12.046  1.00  0.00     0.189 HD
HETATM   27  C13 UNL     1      38.584   2.651  12.716  1.00  0.00     0.129 A 
HETATM   28  N13 UNL     1      39.551   3.621  12.505  1.00  0.00    -0.186 N 
ATOM     29  H13 UNL     1      39.306   4.604  12.628  1.00  0.00     0.184 HD
BRANCH  25  30
HETATM   30  N7  UNL     1      37.978   0.293  12.636  1.00  0.00    -0.265 N 
HETATM   31  C10 UNL     1      38.220  -0.646  13.697  1.00  0.00     0.224 A 
HETATM   32  C11 UNL     1      37.292  -1.752  13.727  1.00  0.00     0.115 A 
HETATM   33  N8  UNL     1      37.477  -2.732  14.764  1.00  0.00    -0.086 NA
HETATM   34  N9  UNL     1      36.331  -1.879  12.877  1.00  0.00    -0.320 N 
HETATM   35  C12 UNL     1      36.151  -0.897  11.842  1.00  0.00     0.208 A 
ATOM     36  H9  UNL     1      35.700  -2.677  12.938  1.00  0.00     0.169 HD
HETATM   37  N10 UNL     1      35.079  -1.072  10.925  1.00  0.00    -0.062 NA
HETATM   38  N11 UNL     1      36.939   0.092  11.773  1.00  0.00    -0.269 N 
ATOM     39  H11 UNL     1      36.790   0.777  11.032  1.00  0.00     0.190 HD
ENDBRANCH  25  30
BRANCH  27  40
HETATM   40  C14 UNL     1      37.286   3.102  13.204  1.00  0.00     0.371 C 
BRANCH  40  41
HETATM   41  N12 UNL     1      37.335   4.482  13.658  1.00  0.00    -0.047 N 
ATOM     42 3H12 UNL     1      36.398   4.865  13.787  1.00  0.00     0.277 HD
ATOM     43 2H12 UNL     1      37.665   4.546  14.621  1.00  0.00     0.277 HD
ATOM     44 1H12 UNL     1      37.893   5.063  13.034  1.00  0.00     0.277 HD
ENDBRANCH  40  41
BRANCH  40  45
HETATM   45  O2  UNL     1      36.365   3.104  12.156  1.00  0.00    -0.365 OA
ATOM     46  H2  UNL     1      35.503   2.881  12.488  1.00  0.00     0.212 HD
ENDBRANCH  40  45
ENDBRANCH  27  40
ENDBRANCH  15  21
ENDBRANCH   8  11
ENDBRANCH   6   8
ENDBRANCH   4   6
TORSDOF 9
ENDMDL
MODEL 3
REMARK VINA RESULT: -6.629962663      4.178     10.319
REMARK  9 active torsions:
REMARK  status: ('A' for Active; 'I' for Inactive)
REMARK    1  A    between atoms: N2_4  and  N3_6 
REMARK    2  A    between atoms: N3_6  and  C3_8 
REMARK    3  A    between atoms: C3_8  and  O1_9 
REMARK    4  A    between atoms: C3_8  and  C4_11 
REMARK    5  A    between atoms: N4_15  and  C8_17 
REMARK    6  A    between atoms: C9_22  and  N7_23 
REMARK    7  A    between atoms: C13_33  and  C14_34 
REMARK    8  A    between atoms: C14_34  and  N12_35 
REMARK    9  A    between atoms: C14_34  and  O2_39 
ROOT
HETATM    1  N1  UNL     1      37.232  -0.322  11.460  1.00  0.00    -0.191 NA
HETATM    2  C1  UNL     1      37.980  -0.763  12.240  1.00  0.00     0.106 C 
HETATM    3  C2  UNL     1      38.875  -1.284  13.202  1.00  0.00     0.200 C 
HETATM    4  N2  UNL     1      38.889  -2.531  13.504  1.00  0.00    -0.304 N 
ATOM      5  H2  UNL     1      38.233  -3.154  13.032  1.00  0.00     0.186 HD
ENDROOT
BRANCH   4   6
HETATM    6  N3  UNL     1      39.757  -3.070  14.445  1.00  0.00    -0.303 N 
ATOM      7  H3  UNL     1      40.751  -3.159  14.235  1.00  0.00     0.183 HD
BRANCH   6   8
HETATM    8  C3  UNL     1      39.247  -3.503  15.719  1.00  0.00     0.270 C 
BRANCH   8   9
HETATM    9  O1  UNL     1      37.862  -3.619  15.716  1.00  0.00    -0.371 OA
ATOM     10  H1  UNL     1      37.495  -3.561  16.590  1.00  0.00     0.212 HD
ENDBRANCH   8   9
BRANCH   8  11
HETATM   11  C4  UNL     1      39.603  -2.472  16.719  1.00  0.00     0.032 A 
HETATM   12  C5  UNL     1      38.770  -1.382  16.854  1.00  0.00     0.019 A 
HETATM   13  C6  UNL     1      39.058  -0.391  17.775  1.00  0.00     0.050 A 
HETATM   14  C7  UNL     1      40.191  -0.543  18.532  1.00  0.00     0.122 A 
HETATM   15  N4  UNL     1      40.526   0.334  19.408  1.00  0.00    -0.175 N 
HETATM   16  N14 UNL     1      41.001  -1.631  18.380  1.00  0.00    -0.330 N 
ATOM     17  H4  UNL     1      41.370   0.217  19.970  1.00  0.00     0.186 HD
HETATM   18  C15 UNL     1      40.736  -2.607  17.488  1.00  0.00     0.128 A 
ATOM     19  H14 UNL     1      41.836  -1.709  18.961  1.00  0.00     0.168 HD
HETATM   20  N15 UNL     1      41.573  -3.740  17.326  1.00  0.00    -0.082 NA
BRANCH  15  21
HETATM   21  C8  UNL     1      39.681   1.487  19.578  1.00  0.00     0.699 A 
HETATM   22  N5  UNL     1      39.995   2.677  19.052  1.00  0.00    -0.130 N 
HETATM   23  N6  UNL     1      39.198   3.689  19.236  1.00  0.00    -0.268 N 
ATOM     24  H5  UNL     1      40.853   2.790  18.511  1.00  0.00     0.205 HD
HETATM   25  C9  UNL     1      38.030   3.625  19.947  1.00  0.00     0.166 A 
ATOM     26  H6  UNL     1      39.461   4.585  18.826  1.00  0.00     0.189 HD
HETATM   27  C13 UNL     1      37.700   2.430  20.477  1.00  0.00     0.129 A 
HETATM   28  N13 UNL     1      38.556   1.359  20.278  1.00  0.00    -0.186 N 
ATOM     29  H13 UNL     1      38.319   0.451  20.677  1.00  0.00     0.184 HD
BRANCH  25  30
HETATM   30  N7  UNL     1      37.272   4.810  20.180  1.00  0.00    -0.265 N 
HETATM   31  C10 UNL     1      37.024   5.613  19.014  1.00  0.00     0.224 A 
HETATM   32  C11 UNL     1      36.315   6.841  19.286  1.00  0.00     0.115 A 
HETATM   33  N8  UNL     1      36.035   7.696  18.162  1.00  0.00    -0.086 NA
HETATM   34  N9  UNL     1      35.937   7.180  20.471  1.00  0.00    -0.320 N 
HETATM   35  C12 UNL     1      36.219   6.323  21.590  1.00  0.00     0.208 A 
ATOM     36  H9  UNL     1      35.437   8.058  20.614  1.00  0.00     0.169 HD
HETATM   37  N10 UNL     1      35.784   6.732  22.880  1.00  0.00    -0.062 NA
HETATM   38  N11 UNL     1      36.839   5.234  21.403  1.00  0.00    -0.269 N 
ATOM     39  H11 UNL     1      37.026   4.642  22.212  1.00  0.00     0.190 HD
ENDBRANCH  25  30
BRANCH  27  40
HETATM   40  C14 UNL     1      36.447   2.158  21.173  1.00  0.00     0.371 C 
BRANCH  40  41
HETATM   41  N12 UNL     1      36.271   0.738  21.423  1.00  0.00    -0.047 N 
ATOM     42 3H12 UNL     1      36.155   0.218  20.553  1.00  0.00     0.277 HD
ATOM     43 2H12 UNL     1      37.136   0.307  21.750  1.00  0.00     0.277 HD
ATOM     44 1H12 UNL     1      35.501   0.562  22.068  1.00  0.00     0.277 HD
ENDBRANCH  40  41
BRANCH  40  45
HETATM   45  O2  UNL     1      36.477   2.744  22.439  1.00  0.00    -0.365 OA
ATOM     46  H2  UNL     1      35.737   2.437  22.950  1.00  0.00     0.212 HD
ENDBRANCH  40  45
ENDBRANCH  27  40
ENDBRANCH  15  21
ENDBRANCH   8  11
ENDBRANCH   6   8
ENDBRANCH   4   6
TORSDOF 9
ENDMDL
MODEL 4
REMARK VINA RESULT: -6.553698339      3.985     10.449
REMARK  9 active torsions:
REMARK  status: ('A' for Active; 'I' for Inactive)
REMARK    1  A    between atoms: N2_4  and  N3_6 
REMARK    2  A    between atoms: N3_6  and  C3_8 
REMARK    3  A    between atoms: C3_8  and  O1_9 
REMARK    4  A    between atoms: C3_8  and  C4_11 
REMARK    5  A    between atoms: N4_15  and  C8_17 
REMARK    6  A    between atoms: C9_22  and  N7_23 
REMARK    7  A    between atoms: C13_33  and  C14_34 
REMARK    8  A    between atoms: C14_34  and  N12_35 
REMARK    9  A    between atoms: C14_34  and  O2_39 
ROOT
HETATM    1  N1  UNL     1      35.195  -3.022  10.697  1.00  0.00    -0.191 NA
HETATM    2  C1  UNL     1      36.015  -2.561  11.387  1.00  0.00     0.106 C 
HETATM    3  C2  UNL     1      36.991  -1.991  12.236  1.00  0.00     0.200 C 
HETATM    4  N2  UNL     1      37.735  -2.716  12.989  1.00  0.00    -0.304 N 
ATOM      5  H2  UNL     1      37.612  -3.729  12.967  1.00  0.00     0.186 HD
ENDROOT
BRANCH   4   6
HETATM    6  N3  UNL     1      38.702  -2.183  13.834  1.00  0.00    -0.303 N 
ATOM      7  H3  UNL     1      38.965  -1.201  13.757  1.00  0.00     0.183 HD
BRANCH   6   8
HETATM    8  C3  UNL     1      39.330  -3.025  14.817  1.00  0.00     0.270 C 
BRANCH   8   9
HETATM    9  O1  UNL     1      38.502  -4.064  15.223  1.00  0.00    -0.371 OA
ATOM     10  H1  UNL     1      38.041  -3.862  16.028  1.00  0.00     0.212 HD
ENDBRANCH   8   9
BRANCH   8  11
HETATM   11  C4  UNL     1      39.613  -2.193  16.007  1.00  0.00     0.032 A 
HETATM   12  C5  UNL     1      38.928  -1.004  16.146  1.00  0.00     0.019 A 
HETATM   13  C6  UNL     1      39.156  -0.190  17.241  1.00  0.00     0.050 A 
HETATM   14  C7  UNL     1      40.079  -0.614  18.163  1.00  0.00     0.122 A 
HETATM   15  N4  UNL     1      40.345   0.087  19.205  1.00  0.00    -0.175 N 
HETATM   16  N14 UNL     1      40.744  -1.795  18.002  1.00  0.00    -0.330 N 
ATOM     17  H4  UNL     1      41.032  -0.233  19.888  1.00  0.00     0.186 HD
HETATM   18  C15 UNL     1      40.535  -2.602  16.942  1.00  0.00     0.128 A 
ATOM     19  H14 UNL     1      41.424  -2.077  18.709  1.00  0.00     0.168 HD
HETATM   20  N15 UNL     1      41.224  -3.830  16.771  1.00  0.00    -0.082 NA
BRANCH  15  21
HETATM   21  C8  UNL     1      39.651   1.334  19.386  1.00  0.00     0.699 A 
HETATM   22  N5  UNL     1      40.085   2.471  18.830  1.00  0.00    -0.130 N 
HETATM   23  N6  UNL     1      39.422   3.573  19.025  1.00  0.00    -0.268 N 
ATOM     24  H5  UNL     1      40.930   2.475  18.258  1.00  0.00     0.205 HD
HETATM   25  C9  UNL     1      38.281   3.658  19.777  1.00  0.00     0.166 A 
ATOM     26  H6  UNL     1      39.774   4.427  18.591  1.00  0.00     0.189 HD
HETATM   27  C13 UNL     1      37.831   2.519  20.338  1.00  0.00     0.129 A 
HETATM   28  N13 UNL     1      38.545   1.350  20.126  1.00  0.00    -0.186 N 
ATOM     29  H13 UNL     1      38.216   0.482  20.548  1.00  0.00     0.184 HD
BRANCH  25  30
HETATM   30  N7  UNL     1      37.679   4.928  20.017  1.00  0.00    -0.265 N 
HETATM   31  C10 UNL     1      37.145   5.579  18.852  1.00  0.00     0.224 A 
HETATM   32  C11 UNL     1      36.602   6.893  19.109  1.00  0.00     0.115 A 
HETATM   33  N8  UNL     1      36.052   7.603  17.984  1.00  0.00    -0.086 NA
HETATM   34  N9  UNL     1      36.597   7.428  20.281  1.00  0.00    -0.320 N 
HETATM   35  C12 UNL     1      37.147   6.714  21.401  1.00  0.00     0.208 A 
ATOM     36  H9  UNL     1      36.201   8.358  20.415  1.00  0.00     0.169 HD
HETATM   37  N10 UNL     1      37.122   7.338  22.678  1.00  0.00    -0.062 NA
HETATM   38  N11 UNL     1      37.636   5.558  21.227  1.00  0.00    -0.269 N 
ATOM     39  H11 UNL     1      38.019   5.071  22.038  1.00  0.00     0.190 HD
ENDBRANCH  25  30
BRANCH  27  40
HETATM   40  C14 UNL     1      36.580   2.407  21.081  1.00  0.00     0.371 C 
BRANCH  40  41
HETATM   41  N12 UNL     1      36.285   1.027  21.428  1.00  0.00    -0.047 N 
ATOM     42 3H12 UNL     1      35.403   0.721  21.017  1.00  0.00     0.277 HD
ATOM     43 2H12 UNL     1      36.914   0.380  20.951  1.00  0.00     0.277 HD
ATOM     44 1H12 UNL     1      36.297   0.882  22.437  1.00  0.00     0.277 HD
ENDBRANCH  40  41
BRANCH  40  45
HETATM   45  O2  UNL     1      36.702   3.065  22.305  1.00  0.00    -0.365 OA
ATOM     46  H2  UNL     1      36.279   2.554  22.986  1.00  0.00     0.212 HD
ENDBRANCH  40  45
ENDBRANCH  27  40
ENDBRANCH  15  21
ENDBRANCH   8  11
ENDBRANCH   6   8
ENDBRANCH   4   6
TORSDOF 9
ENDMDL
MODEL 5
REMARK VINA RESULT: -6.355950193      1.452      1.608
REMARK  9 active torsions:
REMARK  status: ('A' for Active; 'I' for Inactive)
REMARK    1  A    between atoms: N2_4  and  N3_6 
REMARK    2  A    between atoms: N3_6  and  C3_8 
REMARK    3  A    between atoms: C3_8  and  O1_9 
REMARK    4  A    between atoms: C3_8  and  C4_11 
REMARK    5  A    between atoms: N4_15  and  C8_17 
REMARK    6  A    between atoms: C9_22  and  N7_23 
REMARK    7  A    between atoms: C13_33  and  C14_34 
REMARK    8  A    between atoms: C14_34  and  N12_35 
REMARK    9  A    between atoms: C14_34  and  O2_39 
ROOT
HETATM    1  N1  UNL     1      36.551   6.819  22.167  1.00  0.00    -0.191 NA
HETATM    2  C1  UNL     1      36.392   6.630  21.026  1.00  0.00     0.106 C 
HETATM    3  C2  UNL     1      36.176   6.396  19.649  1.00  0.00     0.200 C 
HETATM    4  N2  UNL     1      36.237   7.343  18.786  1.00  0.00    -0.304 N 
ATOM      5  H2  UNL     1      36.448   8.287  19.113  1.00  0.00     0.186 HD
ENDROOT
BRANCH   4   6
HETATM    6  N3  UNL     1      36.028   7.141  17.427  1.00  0.00    -0.303 N 
ATOM      7  H3  UNL     1      35.371   6.430  17.109  1.00  0.00     0.183 HD
BRANCH   6   8
HETATM    8  C3  UNL     1      36.746   7.942  16.471  1.00  0.00     0.270 C 
BRANCH   8   9
HETATM    9  O1  UNL     1      35.901   8.777  15.748  1.00  0.00    -0.371 OA
ATOM     10  H1  UNL     1      35.993   9.687  16.003  1.00  0.00     0.212 HD
ENDBRANCH   8   9
BRANCH   8  11
HETATM   11  C4  UNL     1      37.390   7.022  15.508  1.00  0.00     0.032 A 
HETATM   12  C5  UNL     1      36.927   5.726  15.437  1.00  0.00     0.019 A 
HETATM   13  C6  UNL     1      37.496   4.827  14.554  1.00  0.00     0.050 A 
HETATM   14  C7  UNL     1      38.524   5.279  13.767  1.00  0.00     0.122 A 
HETATM   15  N4  UNL     1      39.103   4.504  12.922  1.00  0.00    -0.175 N 
HETATM   16  N14 UNL     1      38.966   6.567  13.856  1.00  0.00    -0.330 N 
ATOM     17  H4  UNL     1      39.868   4.846  12.339  1.00  0.00     0.186 HD
HETATM   18  C15 UNL     1      38.424   7.458  14.710  1.00  0.00     0.128 A 
ATOM     19  H14 UNL     1      39.734   6.867  13.254  1.00  0.00     0.168 HD
HETATM   20  N15 UNL     1      38.878   8.798  14.806  1.00  0.00    -0.082 NA
BRANCH  15  21
HETATM   21  C8  UNL     1      38.648   3.143  12.820  1.00  0.00     0.699 A 
HETATM   22  N5  UNL     1      37.352   2.822  12.919  1.00  0.00    -0.130 N 
HETATM   23  N6  UNL     1      36.992   1.576  12.821  1.00  0.00    -0.268 N 
ATOM     24  H5  UNL     1      36.653   3.549  13.072  1.00  0.00     0.205 HD
HETATM   25  C9  UNL     1      37.864   0.540  12.617  1.00  0.00     0.166 A 
ATOM     26  H6  UNL     1      35.999   1.358  12.901  1.00  0.00     0.189 HD
HETATM   27  C13 UNL     1      39.171   0.851  12.510  1.00  0.00     0.129 A 
HETATM   28  N13 UNL     1      39.545   2.181  12.618  1.00  0.00    -0.186 N 
ATOM     29  H13 UNL     1      40.532   2.429  12.542  1.00  0.00     0.184 HD
BRANCH  25  30
HETATM   30  N7  UNL     1      37.387  -0.804  12.623  1.00  0.00    -0.265 N 
HETATM   31  C10 UNL     1      36.467  -1.128  11.567  1.00  0.00     0.224 A 
HETATM   32  C11 UNL     1      35.946  -2.473  11.634  1.00  0.00     0.115 A 
HETATM   33  N8  UNL     1      35.016  -2.865  10.607  1.00  0.00    -0.086 NA
HETATM   34  N9  UNL     1      36.281  -3.306  12.559  1.00  0.00    -0.320 N 
HETATM   35  C12 UNL     1      37.210  -2.909  13.582  1.00  0.00     0.208 A 
ATOM     36  H9  UNL     1      35.887  -4.246  12.565  1.00  0.00     0.169 HD
HETATM   37  N10 UNL     1      37.555  -3.857  14.584  1.00  0.00    -0.062 NA
HETATM   38  N11 UNL     1      37.695  -1.739  13.568  1.00  0.00    -0.269 N 
ATOM     39  H11 UNL     1      38.354  -1.482  14.303  1.00  0.00     0.190 HD
ENDBRANCH  25  30
BRANCH  27  40
HETATM   40  C14 UNL     1      40.220  -0.110  12.190  1.00  0.00     0.371 C 
BRANCH  40  41
HETATM   41  N12 UNL     1      40.246  -0.422  10.771  1.00  0.00    -0.047 N 
ATOM     42 3H12 UNL     1      39.937   0.372  10.210  1.00  0.00     0.277 HD
ATOM     43 2H12 UNL     1      41.202  -0.499  10.423  1.00  0.00     0.277 HD
ATOM     44 1H12 UNL     1      39.705  -1.260  10.561  1.00  0.00     0.277 HD
ENDBRANCH  40  41
BRANCH  40  45
HETATM   45  O2  UNL     1      41.469   0.452  12.455  1.00  0.00    -0.365 OA
ATOM     46  H2  UNL     1      42.150  -0.185  12.279  1.00  0.00     0.212 HD
ENDBRANCH  40  45
ENDBRANCH  27  40
ENDBRANCH  15  21
ENDBRANCH   8  11
ENDBRANCH   6   8
ENDBRANCH   4   6
TORSDOF 9
ENDMDL
