MODEL 1
REMARK VINA RESULT: -6.407000548      0.000      0.000
REMARK  8 active torsions:
REMARK  status: ('A' for Active; 'I' for Inactive)
REMARK    1  A    between atoms: O1_2  and  N1_3 
REMARK    2  A    between atoms: N1_3  and  C2_5 
REMARK    3  A    between atoms: C3_8  and  N3_9 
REMARK    4  A    between atoms: N3_9  and  N4_11 
REMARK    5  A    between atoms: C4_16  and  C5_17 
REMARK    6  A    between atoms: C5_17  and  N8_22 
REMARK    7  A    between atoms: N8_22  and  C7_24 
REMARK    8  A    between atoms: C8_31  and  C9_32 
ROOT
HETATM    1  C5  UNL     1      37.950   1.827  24.398  1.00  0.00     0.158 C 
HETATM    2  N6  UNL     1      39.228   1.967  24.598  1.00  0.00    -0.277 N 
ATOM      3  H6  UNL     1      39.712   2.791  24.243  1.00  0.00     0.179 HD
HETATM    4  C6  UNL     1      39.929   1.003  25.289  1.00  0.00     0.183 C 
HETATM    5  N7  UNL     1      40.540   0.177  25.864  1.00  0.00    -0.172 NA
ENDROOT
BRANCH   1   6
HETATM    6  C4  UNL     1      37.297   2.897  23.658  1.00  0.00     0.113 A 
HETATM    7  N5  UNL     1      37.934   3.449  22.574  1.00  0.00    -0.185 N 
HETATM    8  C3  UNL     1      37.418   4.426  21.842  1.00  0.00     0.698 A 
ATOM      9  H5  UNL     1      38.853   3.089  22.318  1.00  0.00     0.184 HD
HETATM   10  N2  UNL     1      36.207   4.897  22.183  1.00  0.00    -0.172 N 
HETATM   11  C2  UNL     1      35.508   4.427  23.221  1.00  0.00     0.158 A 
ATOM     12  H2  UNL     1      35.802   5.648  21.624  1.00  0.00     0.186 HD
HETATM   13  C8  UNL     1      36.069   3.394  23.987  1.00  0.00     0.106 A 
BRANCH   8  14
HETATM   14  N3  UNL     1      38.069   5.000  20.723  1.00  0.00    -0.138 N 
ATOM     15  H3  UNL     1      37.546   5.565  20.053  1.00  0.00     0.205 HD
BRANCH  14  16
HETATM   16  N4  UNL     1      39.429   4.783  20.549  1.00  0.00    -0.331 N 
ATOM     17  H42 UNL     1      39.782   3.827  20.495  1.00  0.00     0.177 HD
ATOM     18  H41 UNL     1      40.054   5.586  20.477  1.00  0.00     0.177 HD
ENDBRANCH  14  16
ENDBRANCH   8  14
BRANCH  11  19
HETATM   19  N1  UNL     1      34.352   4.857  23.570  1.00  0.00    -0.250 N 
ATOM     20  H1  UNL     1      33.562   4.222  23.679  1.00  0.00     0.196 HD
BRANCH  19  21
HETATM   21  O1  UNL     1      34.221   6.208  23.791  1.00  0.00    -0.284 OA
HETATM   22  C1  UNL     1      34.411   6.819  25.042  1.00  0.00     0.237 C 
ENDBRANCH  19  21
ENDBRANCH  11  19
BRANCH  13  23
HETATM   23  C9  UNL     1      35.308   2.929  25.110  1.00  0.00     0.271 C 
HETATM   24  N13 UNL     1      34.529   1.707  25.054  1.00  0.00    -0.057 NA
HETATM   25  O2  UNL     1      35.232   3.499  26.219  1.00  0.00    -0.271 OA
ENDBRANCH  13  23
ENDBRANCH   1   6
BRANCH   1  26
HETATM   26  N8  UNL     1      37.323   0.658  24.852  1.00  0.00    -0.172 N 
ATOM     27  H8  UNL     1      37.114   0.588  25.849  1.00  0.00     0.186 HD
BRANCH  26  28
HETATM   28  C7  UNL     1      36.995  -0.329  24.104  1.00  0.00     0.709 A 
HETATM   29  N9  UNL     1      37.781  -1.313  23.644  1.00  0.00    -0.117 N 
HETATM   30  N10 UNL     1      37.040  -2.145  22.893  1.00  0.00     0.006 NA
ATOM     31  H9  UNL     1      38.779  -1.413  23.833  1.00  0.00     0.202 HD
HETATM   32  N11 UNL     1      35.783  -1.679  22.885  1.00  0.00     0.006 NA
HETATM   33  N12 UNL     1      35.764  -0.563  23.630  1.00  0.00    -0.117 N 
ATOM     34  H12 UNL     1      34.942   0.015  23.808  1.00  0.00     0.202 HD
ENDBRANCH  26  28
ENDBRANCH   1  26
TORSDOF 8
ENDMDL
MODEL 2
REMARK VINA RESULT: -6.242743173      2.346      6.099
REMARK  8 active torsions:
REMARK  status: ('A' for Active; 'I' for Inactive)
REMARK    1  A    between atoms: O1_2  and  N1_3 
REMARK    2  A    between atoms: N1_3  and  C2_5 
REMARK    3  A    between atoms: C3_8  and  N3_9 
REMARK    4  A    between atoms: N3_9  and  N4_11 
REMARK    5  A    between atoms: C4_16  and  C5_17 
REMARK    6  A    between atoms: C5_17  and  N8_22 
REMARK    7  A    between atoms: N8_22  and  C7_24 
REMARK    8  A    between atoms: C8_31  and  C9_32 
ROOT
HETATM    1  C5  UNL     1      35.342   5.045  23.218  1.00  0.00     0.158 C 
HETATM    2  N6  UNL     1      34.188   4.983  23.814  1.00  0.00    -0.277 N 
ATOM      3  H6  UNL     1      33.837   4.087  24.153  1.00  0.00     0.179 HD
HETATM    4  C6  UNL     1      33.437   6.125  23.990  1.00  0.00     0.183 C 
HETATM    5  N7  UNL     1      32.781   7.092  24.129  1.00  0.00    -0.172 NA
ENDROOT
BRANCH   1   6
HETATM    6  C4  UNL     1      36.060   3.787  23.079  1.00  0.00     0.113 A 
HETATM    7  N5  UNL     1      36.848   3.581  21.973  1.00  0.00    -0.185 N 
HETATM    8  C3  UNL     1      37.536   2.469  21.762  1.00  0.00     0.698 A 
ATOM      9  H5  UNL     1      36.906   4.324  21.277  1.00  0.00     0.184 HD
HETATM   10  N2  UNL     1      37.456   1.493  22.682  1.00  0.00    -0.172 N 
HETATM   11  C2  UNL     1      36.716   1.597  23.791  1.00  0.00     0.158 A 
ATOM     12  H2  UNL     1      37.983   0.634  22.529  1.00  0.00     0.186 HD
HETATM   13  C8  UNL     1      35.992   2.781  23.999  1.00  0.00     0.106 A 
BRANCH   8  14
HETATM   14  N3  UNL     1      38.350   2.251  20.624  1.00  0.00    -0.138 N 
ATOM     15  H3  UNL     1      39.276   1.832  20.722  1.00  0.00     0.205 HD
BRANCH  14  16
HETATM   16  N4  UNL     1      37.872   2.614  19.372  1.00  0.00    -0.331 N 
ATOM     17  H42 UNL     1      36.868   2.716  19.229  1.00  0.00     0.177 HD
ATOM     18  H41 UNL     1      38.537   2.773  18.615  1.00  0.00     0.177 HD
ENDBRANCH  14  16
ENDBRANCH   8  14
BRANCH  11  19
HETATM   19  N1  UNL     1      36.620   0.684  24.685  1.00  0.00    -0.250 N 
ATOM     20  H1  UNL     1      36.246   0.887  25.612  1.00  0.00     0.196 HD
BRANCH  19  21
HETATM   21  O1  UNL     1      37.042  -0.580  24.345  1.00  0.00    -0.284 OA
HETATM   22  C1  UNL     1      36.310  -1.454  23.523  1.00  0.00     0.237 C 
ENDBRANCH  19  21
ENDBRANCH  11  19
BRANCH  13  23
HETATM   23  C9  UNL     1      35.186   2.852  25.183  1.00  0.00     0.271 C 
HETATM   24  N13 UNL     1      34.094   1.929  25.424  1.00  0.00    -0.057 NA
HETATM   25  O2  UNL     1      35.326   3.685  26.105  1.00  0.00    -0.271 OA
ENDBRANCH  13  23
ENDBRANCH   1   6
BRANCH   1  26
HETATM   26  N8  UNL     1      35.772   6.282  22.715  1.00  0.00    -0.172 N 
ATOM     27  H8  UNL     1      35.330   6.627  21.863  1.00  0.00     0.186 HD
BRANCH  26  28
HETATM   28  C7  UNL     1      36.681   7.008  23.252  1.00  0.00     0.709 A 
HETATM   29  N9  UNL     1      36.698   8.342  23.386  1.00  0.00    -0.117 N 
HETATM   30  N10 UNL     1      37.835   8.701  24.005  1.00  0.00     0.006 NA
ATOM     31  H9  UNL     1      35.967   8.981  23.069  1.00  0.00     0.202 HD
HETATM   32  N11 UNL     1      38.532   7.585  24.260  1.00  0.00     0.006 NA
HETATM   33  N12 UNL     1      37.817   6.550  23.794  1.00  0.00    -0.117 N 
ATOM     34  H12 UNL     1      38.094   5.569  23.845  1.00  0.00     0.202 HD
ENDBRANCH  26  28
ENDBRANCH   1  26
TORSDOF 8
ENDMDL
MODEL 3
REMARK VINA RESULT: -6.187379569      3.320      5.905
REMARK  8 active torsions:
REMARK  status: ('A' for Active; 'I' for Inactive)
REMARK    1  A    between atoms: O1_2  and  N1_3 
REMARK    2  A    between atoms: N1_3  and  C2_5 
REMARK    3  A    between atoms: C3_8  and  N3_9 
REMARK    4  A    between atoms: N3_9  and  N4_11 
REMARK    5  A    between atoms: C4_16  and  C5_17 
REMARK    6  A    between atoms: C5_17  and  N8_22 
REMARK    7  A    between atoms: N8_22  and  C7_24 
REMARK    8  A    between atoms: C8_31  and  C9_32 
ROOT
HETATM    1  C5  UNL     1      39.635   1.931  24.326  1.00  0.00     0.158 C 
HETATM    2  N6  UNL     1      40.015   2.572  23.260  1.00  0.00    -0.277 N 
ATOM      3  H6  UNL     1      39.437   2.551  22.420  1.00  0.00     0.179 HD
HETATM    4  C6  UNL     1      41.198   3.280  23.262  1.00  0.00     0.183 C 
HETATM    5  N7  UNL     1      42.214   3.873  23.249  1.00  0.00    -0.172 NA
ENDROOT
BRANCH   1   6
HETATM    6  C4  UNL     1      38.373   1.213  24.226  1.00  0.00     0.113 A 
HETATM    7  N5  UNL     1      37.225   1.805  24.695  1.00  0.00    -0.185 N 
HETATM    8  C3  UNL     1      36.033   1.228  24.647  1.00  0.00     0.698 A 
ATOM      9  H5  UNL     1      37.293   2.738  25.101  1.00  0.00     0.184 HD
HETATM   10  N2  UNL     1      35.949  -0.001  24.110  1.00  0.00    -0.172 N 
HETATM   11  C2  UNL     1      37.008  -0.660  23.628  1.00  0.00     0.158 A 
ATOM     12  H2  UNL     1      35.035  -0.453  24.069  1.00  0.00     0.186 HD
HETATM   13  C8  UNL     1      38.263  -0.036  23.688  1.00  0.00     0.106 A 
BRANCH   8  14
HETATM   14  N3  UNL     1      34.846   1.832  25.128  1.00  0.00    -0.138 N 
ATOM     15  H3  UNL     1      34.034   1.260  25.364  1.00  0.00     0.205 HD
BRANCH  14  16
HETATM   16  N4  UNL     1      34.802   3.211  25.273  1.00  0.00    -0.331 N 
ATOM     17  H42 UNL     1      34.820   3.804  24.444  1.00  0.00     0.177 HD
ATOM     18  H41 UNL     1      34.751   3.610  26.211  1.00  0.00     0.177 HD
ENDBRANCH  14  16
ENDBRANCH   8  14
BRANCH  11  19
HETATM   19  N1  UNL     1      36.957  -1.832  23.112  1.00  0.00    -0.250 N 
ATOM     20  H1  UNL     1      37.805  -2.326  22.835  1.00  0.00     0.196 HD
BRANCH  19  21
HETATM   21  O1  UNL     1      35.713  -2.396  22.946  1.00  0.00    -0.284 OA
HETATM   22  C1  UNL     1      35.484  -3.782  22.893  1.00  0.00     0.237 C 
ENDBRANCH  19  21
ENDBRANCH  11  19
BRANCH  13  23
HETATM   23  C9  UNL     1      39.384  -0.778  23.189  1.00  0.00     0.271 C 
HETATM   24  N13 UNL     1      39.907  -0.569  21.852  1.00  0.00    -0.057 NA
HETATM   25  O2  UNL     1      40.011  -1.654  23.821  1.00  0.00    -0.271 OA
ENDBRANCH  13  23
ENDBRANCH   1   6
BRANCH   1  26
HETATM   26  N8  UNL     1      40.477   1.935  25.448  1.00  0.00    -0.172 N 
ATOM     27  H8  UNL     1      40.318   2.650  26.158  1.00  0.00     0.186 HD
BRANCH  26  28
HETATM   28  C7  UNL     1      41.433   1.104  25.642  1.00  0.00     0.709 A 
HETATM   29  N9  UNL     1      41.350  -0.164  26.069  1.00  0.00    -0.117 N 
HETATM   30  N10 UNL     1      42.588  -0.681  26.137  1.00  0.00     0.006 NA
ATOM     31  H9  UNL     1      40.487  -0.656  26.304  1.00  0.00     0.202 HD
HETATM   32  N11 UNL     1      43.450   0.269  25.749  1.00  0.00     0.006 NA
HETATM   33  N12 UNL     1      42.733   1.363  25.448  1.00  0.00    -0.117 N 
ATOM     34  H12 UNL     1      43.117   2.250  25.122  1.00  0.00     0.202 HD
ENDBRANCH  26  28
ENDBRANCH   1  26
TORSDOF 8
ENDMDL
MODEL 4
REMARK VINA RESULT: -6.118464975      2.806      5.440
REMARK  8 active torsions:
REMARK  status: ('A' for Active; 'I' for Inactive)
REMARK    1  A    between atoms: O1_2  and  N1_3 
REMARK    2  A    between atoms: N1_3  and  C2_5 
REMARK    3  A    between atoms: C3_8  and  N3_9 
REMARK    4  A    between atoms: N3_9  and  N4_11 
REMARK    5  A    between atoms: C4_16  and  C5_17 
REMARK    6  A    between atoms: C5_17  and  N8_22 
REMARK    7  A    between atoms: N8_22  and  C7_24 
REMARK    8  A    between atoms: C8_31  and  C9_32 
ROOT
HETATM    1  C5  UNL     1      39.549   2.167  24.211  1.00  0.00     0.158 C 
HETATM    2  N6  UNL     1      40.197   2.028  25.330  1.00  0.00    -0.277 N 
ATOM      3  H6  UNL     1      39.741   1.595  26.133  1.00  0.00     0.179 HD
HETATM    4  C6  UNL     1      41.500   2.465  25.433  1.00  0.00     0.183 C 
HETATM    5  N7  UNL     1      42.607   2.850  25.537  1.00  0.00    -0.172 NA
ENDROOT
BRANCH   1   6
HETATM    6  C4  UNL     1      38.179   1.676  24.199  1.00  0.00     0.113 A 
HETATM    7  N5  UNL     1      37.185   2.446  24.753  1.00  0.00    -0.185 N 
HETATM    8  C3  UNL     1      35.911   2.080  24.788  1.00  0.00     0.698 A 
ATOM      9  H5  UNL     1      37.440   3.346  25.158  1.00  0.00     0.184 HD
HETATM   10  N2  UNL     1      35.581   0.893  24.254  1.00  0.00    -0.172 N 
HETATM   11  C2  UNL     1      36.475   0.072  23.693  1.00  0.00     0.158 A 
ATOM     12  H2  UNL     1      34.603   0.604  24.276  1.00  0.00     0.186 HD
HETATM   13  C8  UNL     1      37.819   0.473  23.664  1.00  0.00     0.106 A 
BRANCH   8  14
HETATM   14  N3  UNL     1      34.882   2.869  25.357  1.00  0.00    -0.138 N 
ATOM     15  H3  UNL     1      34.332   2.515  26.141  1.00  0.00     0.205 HD
BRANCH  14  16
HETATM   16  N4  UNL     1      34.630   4.130  24.835  1.00  0.00    -0.331 N 
ATOM     17  H42 UNL     1      34.821   4.956  25.401  1.00  0.00     0.177 HD
ATOM     18  H41 UNL     1      34.257   4.209  23.889  1.00  0.00     0.177 HD
ENDBRANCH  14  16
ENDBRANCH   8  14
BRANCH  11  19
HETATM   19  N1  UNL     1      36.189  -1.064  23.176  1.00  0.00    -0.250 N 
ATOM     20  H1  UNL     1      35.982  -1.158  22.181  1.00  0.00     0.196 HD
BRANCH  19  21
HETATM   21  O1  UNL     1      36.171  -2.155  24.015  1.00  0.00    -0.284 OA
HETATM   22  C1  UNL     1      36.474  -3.464  23.604  1.00  0.00     0.237 C 
ENDBRANCH  19  21
ENDBRANCH  11  19
BRANCH  13  23
HETATM   23  C9  UNL     1      38.759  -0.440  23.081  1.00  0.00     0.271 C 
HETATM   24  N13 UNL     1      39.482  -1.410  23.881  1.00  0.00    -0.057 NA
HETATM   25  O2  UNL     1      39.051  -0.501  21.868  1.00  0.00    -0.271 OA
ENDBRANCH  13  23
ENDBRANCH   1   6
BRANCH   1  26
HETATM   26  N8  UNL     1      40.186   2.815  23.142  1.00  0.00    -0.172 N 
ATOM     27  H8  UNL     1      41.186   2.995  23.226  1.00  0.00     0.186 HD
BRANCH  26  28
HETATM   28  C7  UNL     1      39.599   3.194  22.068  1.00  0.00     0.709 A 
HETATM   29  N9  UNL     1      38.961   4.352  21.842  1.00  0.00    -0.117 N 
HETATM   30  N10 UNL     1      38.488   4.347  20.584  1.00  0.00     0.006 NA
ATOM     31  H9  UNL     1      38.853   5.112  22.515  1.00  0.00     0.202 HD
HETATM   32  N11 UNL     1      38.833   3.181  20.021  1.00  0.00     0.006 NA
HETATM   33  N12 UNL     1      39.514   2.479  20.939  1.00  0.00    -0.117 N 
ATOM     34  H12 UNL     1      39.906   1.547  20.799  1.00  0.00     0.202 HD
ENDBRANCH  26  28
ENDBRANCH   1  26
TORSDOF 8
ENDMDL
MODEL 5
REMARK VINA RESULT: -6.106986094      1.053      2.768
REMARK  8 active torsions:
REMARK  status: ('A' for Active; 'I' for Inactive)
REMARK    1  A    between atoms: O1_2  and  N1_3 
REMARK    2  A    between atoms: N1_3  and  C2_5 
REMARK    3  A    between atoms: C3_8  and  N3_9 
REMARK    4  A    between atoms: N3_9  and  N4_11 
REMARK    5  A    between atoms: C4_16  and  C5_17 
REMARK    6  A    between atoms: C5_17  and  N8_22 
REMARK    7  A    between atoms: N8_22  and  C7_24 
REMARK    8  A    between atoms: C8_31  and  C9_32 
ROOT
HETATM    1  C5  UNL     1      37.107   1.007  23.858  1.00  0.00     0.158 C 
HETATM    2  N6  UNL     1      36.323   0.083  23.384  1.00  0.00    -0.277 N 
ATOM      3  H6  UNL     1      35.589   0.330  22.720  1.00  0.00     0.179 HD
HETATM    4  C6  UNL     1      36.481  -1.228  23.778  1.00  0.00     0.183 C 
HETATM    5  N7  UNL     1      36.598  -2.348  24.120  1.00  0.00    -0.172 NA
ENDROOT
BRANCH   1   6
HETATM    6  C4  UNL     1      36.861   2.361  23.384  1.00  0.00     0.113 A 
HETATM    7  N5  UNL     1      37.576   2.837  22.312  1.00  0.00    -0.185 N 
HETATM    8  C3  UNL     1      37.421   4.054  21.812  1.00  0.00     0.698 A 
ATOM      9  H5  UNL     1      38.263   2.221  21.877  1.00  0.00     0.184 HD
HETATM   10  N2  UNL     1      36.515   4.862  22.388  1.00  0.00    -0.172 N 
HETATM   11  C2  UNL     1      35.771   4.492  23.436  1.00  0.00     0.158 A 
ATOM     12  H2  UNL     1      36.389   5.800  22.009  1.00  0.00     0.186 HD
HETATM   13  C8  UNL     1      35.948   3.200  23.954  1.00  0.00     0.106 A 
BRANCH   8  14
HETATM   14  N3  UNL     1      38.155   4.551  20.707  1.00  0.00    -0.138 N 
ATOM     15  H3  UNL     1      37.945   5.470  20.317  1.00  0.00     0.205 HD
BRANCH  14  16
HETATM   16  N4  UNL     1      39.165   3.771  20.162  1.00  0.00    -0.331 N 
ATOM     17  H42 UNL     1      39.330   2.834  20.530  1.00  0.00     0.177 HD
ATOM     18  H41 UNL     1      39.727   4.149  19.399  1.00  0.00     0.177 HD
ENDBRANCH  14  16
ENDBRANCH   8  14
BRANCH  11  19
HETATM   19  N1  UNL     1      34.901   5.240  24.005  1.00  0.00    -0.250 N 
ATOM     20  H1  UNL     1      33.957   4.904  24.196  1.00  0.00     0.196 HD
BRANCH  19  21
HETATM   21  O1  UNL     1      35.290   6.514  24.349  1.00  0.00    -0.284 OA
HETATM   22  C1  UNL     1      34.692   7.265  25.375  1.00  0.00     0.237 C 
ENDBRANCH  19  21
ENDBRANCH  11  19
BRANCH  13  23
HETATM   23  C9  UNL     1      35.156   2.841  25.094  1.00  0.00     0.271 C 
HETATM   24  N13 UNL     1      34.344   1.640  25.115  1.00  0.00    -0.057 NA
HETATM   25  O2  UNL     1      35.077   3.496  26.155  1.00  0.00    -0.271 OA
ENDBRANCH  13  23
ENDBRANCH   1   6
BRANCH   1  26
HETATM   26  N8  UNL     1      38.071   0.646  24.810  1.00  0.00    -0.172 N 
ATOM     27  H8  UNL     1      37.746   0.201  25.669  1.00  0.00     0.186 HD
BRANCH  26  28
HETATM   28  C7  UNL     1      39.331   0.834  24.677  1.00  0.00     0.709 A 
HETATM   29  N9  UNL     1      40.126   1.636  25.400  1.00  0.00    -0.117 N 
HETATM   30  N10 UNL     1      41.381   1.540  24.931  1.00  0.00     0.006 NA
ATOM     31  H9  UNL     1      39.827   2.223  26.180  1.00  0.00     0.202 HD
HETATM   32  N11 UNL     1      41.371   0.672  23.909  1.00  0.00     0.006 NA
HETATM   33  N12 UNL     1      40.108   0.244  23.759  1.00  0.00    -0.117 N 
ATOM     34  H12 UNL     1      39.790  -0.425  23.057  1.00  0.00     0.202 HD
ENDBRANCH  26  28
ENDBRANCH   1  26
TORSDOF 8
ENDMDL
