MODEL 1
REMARK VINA RESULT: -6.201046853      0.000      0.000
REMARK  10 active torsions:
REMARK  status: ('A' for Active; 'I' for Inactive)
REMARK    1  A    between atoms: O1_2  and  C2_3 
REMARK    2  A    between atoms: C2_3  and  C3_5 
REMARK    3  A    between atoms: C3_5  and  N5_19 
REMARK    4  A    between atoms: N1_6  and  N2_8 
REMARK    5  A    between atoms: C4_10  and  C5_12 
REMARK    6  A    between atoms: C5_12  and  N4_13 
REMARK    7  A    between atoms: C5_12  and  O3_17 
REMARK    8  A    between atoms: N5_19  and  C6_21 
REMARK    9  A    between atoms: C7_24  and  S1_25 
REMARK   10  A    between atoms: C9_29  and  N8_30 
ROOT
HETATM    1  C3  UNL     1      36.343   1.303  24.403  1.00  0.00     0.211 C 
HETATM    2  N1  UNL     1      36.018   0.141  23.977  1.00  0.00    -0.279 N 
ATOM      3  H1  UNL     1      35.058  -0.033  23.681  1.00  0.00     0.189 HD
ENDROOT
BRANCH   1   4
HETATM    4  C2  UNL     1      35.333   2.333  24.450  1.00  0.00     0.329 C 
HETATM    5  O2  UNL     1      34.527   2.412  25.401  1.00  0.00    -0.256 OA
BRANCH   4   6
HETATM    6  O1  UNL     1      35.248   3.250  23.429  1.00  0.00    -0.320 OA
HETATM    7  C1  UNL     1      34.974   4.594  23.692  1.00  0.00     0.213 C 
ENDBRANCH   4   6
ENDBRANCH   1   4
BRANCH   1   8
HETATM    8  N5  UNL     1      37.687   1.513  24.807  1.00  0.00    -0.168 N 
ATOM      9  H5  UNL     1      38.041   1.017  25.625  1.00  0.00     0.186 HD
BRANCH   8  10
HETATM   10  C6  UNL     1      38.475   2.309  24.171  1.00  0.00     0.700 A 
HETATM   11  N6  UNL     1      38.212   2.692  22.906  1.00  0.00    -0.169 N 
HETATM   12  C7  UNL     1      39.083   3.523  22.315  1.00  0.00     0.174 A 
ATOM     13  H6  UNL     1      37.381   2.362  22.416  1.00  0.00     0.186 HD
HETATM   14  N7  UNL     1      40.187   3.975  22.938  1.00  0.00    -0.170 N 
HETATM   15  C9  UNL     1      40.419   3.579  24.190  1.00  0.00     0.692 A 
ATOM     16  H7  UNL     1      40.832   4.607  22.463  1.00  0.00     0.186 HD
HETATM   17  N9  UNL     1      39.570   2.749  24.809  1.00  0.00    -0.022 N 
ATOM     18  H9  UNL     1      39.756   2.452  25.767  1.00  0.00     0.203 HD
BRANCH  12  19
HETATM   19  S1  UNL     1      38.746   4.035  20.644  1.00  0.00    -0.097 SA
HETATM   20  C8  UNL     1      38.204   2.600  19.692  1.00  0.00     0.099 C 
ENDBRANCH  12  19
BRANCH  15  21
HETATM   21  N8  UNL     1      41.464   3.996  24.804  1.00  0.00    -0.234 N 
ATOM     22  H82 UNL     1      42.384   3.863  24.386  1.00  0.00     0.174 HD
ATOM     23  H81 UNL     1      41.368   4.459  25.707  1.00  0.00     0.174 HD
ENDBRANCH  15  21
ENDBRANCH   8  10
ENDBRANCH   1   8
BRANCH   2  24
HETATM   24  N2  UNL     1      36.947  -0.890  23.909  1.00  0.00    -0.286 N 
HETATM   25  C4  UNL     1      36.592  -2.009  23.403  1.00  0.00     0.164 C 
HETATM   26  N3  UNL     1      35.274  -2.181  22.926  1.00  0.00    -0.081 NA
ATOM     27  H2  UNL     1      37.897  -0.756  24.257  1.00  0.00     0.188 HD
BRANCH  25  28
HETATM   28  C5  UNL     1      37.590  -3.119  23.328  1.00  0.00     0.383 C 
BRANCH  28  29
HETATM   29  N4  UNL     1      38.908  -2.521  23.516  1.00  0.00    -0.046 N 
ATOM     30  H43 UNL     1      39.524  -2.648  22.713  1.00  0.00     0.277 HD
ATOM     31  H42 UNL     1      38.890  -1.501  23.505  1.00  0.00     0.277 HD
ATOM     32  H41 UNL     1      39.289  -2.906  24.379  1.00  0.00     0.277 HD
ENDBRANCH  28  29
BRANCH  28  33
HETATM   33  O3  UNL     1      37.317  -4.016  24.361  1.00  0.00    -0.365 OA
ATOM     34  H3  UNL     1      38.048  -4.619  24.429  1.00  0.00     0.212 HD
ENDBRANCH  28  33
ENDBRANCH  25  28
ENDBRANCH   2  24
TORSDOF 10
ENDMDL
MODEL 2
REMARK VINA RESULT: -6.198880249      3.315      6.309
REMARK  10 active torsions:
REMARK  status: ('A' for Active; 'I' for Inactive)
REMARK    1  A    between atoms: O1_2  and  C2_3 
REMARK    2  A    between atoms: C2_3  and  C3_5 
REMARK    3  A    between atoms: C3_5  and  N5_19 
REMARK    4  A    between atoms: N1_6  and  N2_8 
REMARK    5  A    between atoms: C4_10  and  C5_12 
REMARK    6  A    between atoms: C5_12  and  N4_13 
REMARK    7  A    between atoms: C5_12  and  O3_17 
REMARK    8  A    between atoms: N5_19  and  C6_21 
REMARK    9  A    between atoms: C7_24  and  S1_25 
REMARK   10  A    between atoms: C9_29  and  N8_30 
ROOT
HETATM    1  C3  UNL     1      35.522   3.710  24.146  1.00  0.00     0.211 C 
HETATM    2  N1  UNL     1      34.614   4.608  24.048  1.00  0.00    -0.279 N 
ATOM      3  H1  UNL     1      33.658   4.384  24.322  1.00  0.00     0.189 HD
ENDROOT
BRANCH   1   4
HETATM    4  C2  UNL     1      35.157   2.406  24.644  1.00  0.00     0.329 C 
HETATM    5  O2  UNL     1      34.281   2.266  25.524  1.00  0.00    -0.256 OA
BRANCH   4   6
HETATM    6  O1  UNL     1      35.783   1.288  24.146  1.00  0.00    -0.320 OA
HETATM    7  C1  UNL     1      36.319   0.324  25.003  1.00  0.00     0.213 C 
ENDBRANCH   4   6
ENDBRANCH   1   4
BRANCH   1   8
HETATM    8  N5  UNL     1      36.843   4.054  23.757  1.00  0.00    -0.168 N 
ATOM      9  H5  UNL     1      37.264   4.903  24.134  1.00  0.00     0.186 HD
BRANCH   8  10
HETATM   10  C6  UNL     1      37.526   3.326  22.943  1.00  0.00     0.700 A 
HETATM   11  N6  UNL     1      38.544   2.557  23.377  1.00  0.00    -0.169 N 
HETATM   12  C7  UNL     1      39.205   1.829  22.465  1.00  0.00     0.174 A 
ATOM     13  H6  UNL     1      38.802   2.529  24.364  1.00  0.00     0.186 HD
HETATM   14  N7  UNL     1      38.886   1.846  21.158  1.00  0.00    -0.170 N 
HETATM   15  C9  UNL     1      37.874   2.616  20.760  1.00  0.00     0.692 A 
ATOM     16  H7  UNL     1      39.407   1.281  20.487  1.00  0.00     0.186 HD
HETATM   17  N9  UNL     1      37.193   3.355  21.645  1.00  0.00    -0.022 N 
ATOM     18  H9  UNL     1      36.419   3.942  21.330  1.00  0.00     0.203 HD
BRANCH  12  19
HETATM   19  S1  UNL     1      40.552   0.810  23.027  1.00  0.00    -0.097 SA
HETATM   20  C8  UNL     1      40.131   0.126  24.645  1.00  0.00     0.099 C 
ENDBRANCH  12  19
BRANCH  15  21
HETATM   21  N8  UNL     1      37.551   2.649  19.520  1.00  0.00    -0.234 N 
ATOM     22  H82 UNL     1      38.146   3.139  18.854  1.00  0.00     0.174 HD
ATOM     23  H81 UNL     1      36.699   2.183  19.207  1.00  0.00     0.174 HD
ENDBRANCH  15  21
ENDBRANCH   8  10
ENDBRANCH   1   8
BRANCH   2  24
HETATM   24  N2  UNL     1      34.906   5.882  23.576  1.00  0.00    -0.286 N 
HETATM   25  C4  UNL     1      33.996   6.779  23.617  1.00  0.00     0.164 C 
HETATM   26  N3  UNL     1      32.721   6.467  24.136  1.00  0.00    -0.081 NA
ATOM     27  H2  UNL     1      35.831   6.097  23.202  1.00  0.00     0.188 HD
BRANCH  25  28
HETATM   28  C5  UNL     1      34.308   8.150  23.111  1.00  0.00     0.383 C 
BRANCH  28  29
HETATM   29  N4  UNL     1      35.327   8.001  22.077  1.00  0.00    -0.046 N 
ATOM     30  H43 UNL     1      36.017   8.752  22.082  1.00  0.00     0.277 HD
ATOM     31  H42 UNL     1      35.972   7.232  22.257  1.00  0.00     0.277 HD
ATOM     32  H41 UNL     1      34.837   7.913  21.187  1.00  0.00     0.277 HD
ENDBRANCH  28  29
BRANCH  28  33
HETATM   33  O3  UNL     1      33.140   8.684  22.563  1.00  0.00    -0.365 OA
ATOM     34  H3  UNL     1      33.366   9.495  22.123  1.00  0.00     0.212 HD
ENDBRANCH  28  33
ENDBRANCH  25  28
ENDBRANCH   2  24
TORSDOF 10
ENDMDL
MODEL 3
REMARK VINA RESULT: -6.152926838      1.249      2.368
REMARK  10 active torsions:
REMARK  status: ('A' for Active; 'I' for Inactive)
REMARK    1  A    between atoms: O1_2  and  C2_3 
REMARK    2  A    between atoms: C2_3  and  C3_5 
REMARK    3  A    between atoms: C3_5  and  N5_19 
REMARK    4  A    between atoms: N1_6  and  N2_8 
REMARK    5  A    between atoms: C4_10  and  C5_12 
REMARK    6  A    between atoms: C5_12  and  N4_13 
REMARK    7  A    between atoms: C5_12  and  O3_17 
REMARK    8  A    between atoms: N5_19  and  C6_21 
REMARK    9  A    between atoms: C7_24  and  S1_25 
REMARK   10  A    between atoms: C9_29  and  N8_30 
ROOT
HETATM    1  C3  UNL     1      36.286   1.404  24.400  1.00  0.00     0.211 C 
HETATM    2  N1  UNL     1      35.967   0.191  24.145  1.00  0.00    -0.279 N 
ATOM      3  H1  UNL     1      34.984  -0.054  24.025  1.00  0.00     0.189 HD
ENDROOT
BRANCH   1   4
HETATM    4  C2  UNL     1      35.237   2.389  24.508  1.00  0.00     0.329 C 
HETATM    5  O2  UNL     1      34.434   2.384  25.466  1.00  0.00    -0.256 OA
BRANCH   4   6
HETATM    6  O1  UNL     1      35.109   3.357  23.539  1.00  0.00    -0.320 OA
HETATM    7  C1  UNL     1      35.127   4.713  23.873  1.00  0.00     0.213 C 
ENDBRANCH   4   6
ENDBRANCH   1   4
BRANCH   1   8
HETATM    8  N5  UNL     1      37.662   1.712  24.561  1.00  0.00    -0.168 N 
ATOM      9  H5  UNL     1      38.183   1.266  25.316  1.00  0.00     0.186 HD
BRANCH   8  10
HETATM   10  C6  UNL     1      38.273   2.535  23.782  1.00  0.00     0.700 A 
HETATM   11  N6  UNL     1      39.320   3.264  24.217  1.00  0.00    -0.169 N 
HETATM   12  C7  UNL     1      39.901   4.099  23.343  1.00  0.00     0.174 A 
ATOM     13  H6  UNL     1      39.658   3.184  25.176  1.00  0.00     0.186 HD
HETATM   14  N7  UNL     1      39.477   4.224  22.072  1.00  0.00    -0.170 N 
HETATM   15  C9  UNL     1      38.440   3.489  21.671  1.00  0.00     0.692 A 
ATOM     16  H7  UNL     1      39.939   4.868  21.429  1.00  0.00     0.186 HD
HETATM   17  N9  UNL     1      37.836   2.646  22.519  1.00  0.00    -0.022 N 
ATOM     18  H9  UNL     1      37.043   2.087  22.203  1.00  0.00     0.203 HD
BRANCH  12  19
HETATM   19  S1  UNL     1      41.284   5.067  23.906  1.00  0.00    -0.097 SA
HETATM   20  C8  UNL     1      42.129   4.167  25.224  1.00  0.00     0.099 C 
ENDBRANCH  12  19
BRANCH  15  21
HETATM   21  N8  UNL     1      38.017   3.591  20.466  1.00  0.00    -0.234 N 
ATOM     22  H82 UNL     1      37.532   4.437  20.169  1.00  0.00     0.174 HD
ATOM     23  H81 UNL     1      38.169   2.825  19.811  1.00  0.00     0.174 HD
ENDBRANCH  15  21
ENDBRANCH   8  10
ENDBRANCH   1   8
BRANCH   2  24
HETATM   24  N2  UNL     1      36.934  -0.801  24.029  1.00  0.00    -0.286 N 
HETATM   25  C4  UNL     1      36.625  -1.898  23.451  1.00  0.00     0.164 C 
HETATM   26  N3  UNL     1      35.321  -2.087  22.944  1.00  0.00    -0.081 NA
ATOM     27  H2  UNL     1      37.873  -0.655  24.399  1.00  0.00     0.188 HD
BRANCH  25  28
HETATM   28  C5  UNL     1      37.663  -2.966  23.324  1.00  0.00     0.383 C 
BRANCH  28  29
HETATM   29  N4  UNL     1      38.957  -2.333  23.555  1.00  0.00    -0.046 N 
ATOM     30  H43 UNL     1      39.746  -2.920  23.285  1.00  0.00     0.277 HD
ATOM     31  H42 UNL     1      39.146  -1.561  22.915  1.00  0.00     0.277 HD
ATOM     32  H41 UNL     1      38.981  -2.055  24.536  1.00  0.00     0.277 HD
ENDBRANCH  28  29
BRANCH  28  33
HETATM   33  O3  UNL     1      37.416  -3.928  24.304  1.00  0.00    -0.365 OA
ATOM     34  H3  UNL     1      38.055  -4.624  24.202  1.00  0.00     0.212 HD
ENDBRANCH  28  33
ENDBRANCH  25  28
ENDBRANCH   2  24
TORSDOF 10
ENDMDL
MODEL 4
REMARK VINA RESULT: -6.095168577      2.970      5.623
REMARK  10 active torsions:
REMARK  status: ('A' for Active; 'I' for Inactive)
REMARK    1  A    between atoms: O1_2  and  C2_3 
REMARK    2  A    between atoms: C2_3  and  C3_5 
REMARK    3  A    between atoms: C3_5  and  N5_19 
REMARK    4  A    between atoms: N1_6  and  N2_8 
REMARK    5  A    between atoms: C4_10  and  C5_12 
REMARK    6  A    between atoms: C5_12  and  N4_13 
REMARK    7  A    between atoms: C5_12  and  O3_17 
REMARK    8  A    between atoms: N5_19  and  C6_21 
REMARK    9  A    between atoms: C7_24  and  S1_25 
REMARK   10  A    between atoms: C9_29  and  N8_30 
ROOT
HETATM    1  C3  UNL     1      36.846  -0.864  23.418  1.00  0.00     0.211 C 
HETATM    2  N1  UNL     1      35.931  -0.011  23.690  1.00  0.00    -0.279 N 
ATOM      3  H1  UNL     1      35.010  -0.341  23.978  1.00  0.00     0.189 HD
ENDROOT
BRANCH   1   4
HETATM    4  C2  UNL     1      36.541  -2.269  23.532  1.00  0.00     0.329 C 
HETATM    5  O2  UNL     1      37.232  -3.032  24.242  1.00  0.00    -0.256 OA
BRANCH   4   6
HETATM    6  O1  UNL     1      35.469  -2.791  22.846  1.00  0.00    -0.320 OA
HETATM    7  C1  UNL     1      35.282  -4.171  22.748  1.00  0.00     0.213 C 
ENDBRANCH   4   6
ENDBRANCH   1   4
BRANCH   1   8
HETATM    8  N5  UNL     1      38.117  -0.373  23.020  1.00  0.00    -0.168 N 
ATOM      9  H5  UNL     1      38.226   0.013  22.082  1.00  0.00     0.186 HD
BRANCH   8  10
HETATM   10  C6  UNL     1      39.136  -0.400  23.806  1.00  0.00     0.700 A 
HETATM   11  N6  UNL     1      39.892  -1.508  23.936  1.00  0.00    -0.169 N 
HETATM   12  C7  UNL     1      40.936  -1.453  24.776  1.00  0.00     0.174 A 
ATOM     13  H6  UNL     1      39.678  -2.358  23.414  1.00  0.00     0.186 HD
HETATM   14  N7  UNL     1      41.242  -0.346  25.477  1.00  0.00    -0.170 N 
HETATM   15  C9  UNL     1      40.477   0.735  25.326  1.00  0.00     0.692 A 
ATOM     16  H7  UNL     1      42.043  -0.333  26.109  1.00  0.00     0.186 HD
HETATM   17  N9  UNL     1      39.426   0.713  24.496  1.00  0.00    -0.022 N 
ATOM     18  H9  UNL     1      38.846   1.546  24.387  1.00  0.00     0.203 HD
BRANCH  12  19
HETATM   19  S1  UNL     1      41.940  -2.912  24.955  1.00  0.00    -0.097 SA
HETATM   20  C8  UNL     1      41.305  -3.894  26.331  1.00  0.00     0.099 C 
ENDBRANCH  12  19
BRANCH  15  21
HETATM   21  N8  UNL     1      40.748   1.801  25.982  1.00  0.00    -0.234 N 
ATOM     22  H82 UNL     1      41.719   2.048  26.170  1.00  0.00     0.174 HD
ATOM     23  H81 UNL     1      39.990   2.398  26.313  1.00  0.00     0.174 HD
ENDBRANCH  15  21
ENDBRANCH   8  10
ENDBRANCH   1   8
BRANCH   2  24
HETATM   24  N2  UNL     1      36.167   1.355  23.599  1.00  0.00    -0.286 N 
HETATM   25  C4  UNL     1      35.512   2.146  24.360  1.00  0.00     0.164 C 
HETATM   26  N3  UNL     1      34.568   1.627  25.273  1.00  0.00    -0.081 NA
ATOM     27  H2  UNL     1      36.851   1.720  22.936  1.00  0.00     0.188 HD
BRANCH  25  28
HETATM   28  C5  UNL     1      35.764   3.617  24.266  1.00  0.00     0.383 C 
BRANCH  28  29
HETATM   29  N4  UNL     1      35.811   3.950  22.846  1.00  0.00    -0.046 N 
ATOM     30  H43 UNL     1      36.398   3.316  22.303  1.00  0.00     0.277 HD
ATOM     31  H42 UNL     1      34.934   3.761  22.360  1.00  0.00     0.277 HD
ATOM     32  H41 UNL     1      36.103   4.924  22.778  1.00  0.00     0.277 HD
ENDBRANCH  28  29
BRANCH  28  33
HETATM   33  O3  UNL     1      34.701   4.278  24.882  1.00  0.00    -0.365 OA
ATOM     34  H3  UNL     1      34.408   4.969  24.300  1.00  0.00     0.212 HD
ENDBRANCH  28  33
ENDBRANCH  25  28
ENDBRANCH   2  24
TORSDOF 10
ENDMDL
MODEL 5
REMARK VINA RESULT: -6.056489064      3.147      6.164
REMARK  10 active torsions:
REMARK  status: ('A' for Active; 'I' for Inactive)
REMARK    1  A    between atoms: O1_2  and  C2_3 
REMARK    2  A    between atoms: C2_3  and  C3_5 
REMARK    3  A    between atoms: C3_5  and  N5_19 
REMARK    4  A    between atoms: N1_6  and  N2_8 
REMARK    5  A    between atoms: C4_10  and  C5_12 
REMARK    6  A    between atoms: C5_12  and  N4_13 
REMARK    7  A    between atoms: C5_12  and  O3_17 
REMARK    8  A    between atoms: N5_19  and  C6_21 
REMARK    9  A    between atoms: C7_24  and  S1_25 
REMARK   10  A    between atoms: C9_29  and  N8_30 
ROOT
HETATM    1  C3  UNL     1      35.291   3.486  24.080  1.00  0.00     0.211 C 
HETATM    2  N1  UNL     1      35.048   4.622  24.620  1.00  0.00    -0.279 N 
ATOM      3  H1  UNL     1      34.713   4.657  25.582  1.00  0.00     0.189 HD
ENDROOT
BRANCH   1   4
HETATM    4  C2  UNL     1      35.080   2.290  24.857  1.00  0.00     0.329 C 
HETATM    5  O2  UNL     1      33.962   2.016  25.343  1.00  0.00    -0.256 OA
BRANCH   4   6
HETATM    6  O1  UNL     1      36.128   1.426  25.075  1.00  0.00    -0.320 OA
HETATM    7  C1  UNL     1      36.197   0.200  24.409  1.00  0.00     0.213 C 
ENDBRANCH   4   6
ENDBRANCH   1   4
BRANCH   1   8
HETATM    8  N5  UNL     1      35.756   3.473  22.739  1.00  0.00    -0.168 N 
ATOM      9  H5  UNL     1      35.099   3.673  21.986  1.00  0.00     0.186 HD
BRANCH   8  10
HETATM   10  C6  UNL     1      36.983   3.215  22.446  1.00  0.00     0.700 A 
HETATM   11  N6  UNL     1      37.978   3.455  23.322  1.00  0.00    -0.169 N 
HETATM   12  C7  UNL     1      39.229   3.159  22.938  1.00  0.00     0.174 A 
ATOM     13  H6  UNL     1      37.788   3.847  24.244  1.00  0.00     0.186 HD
HETATM   14  N7  UNL     1      39.510   2.640  21.728  1.00  0.00    -0.170 N 
HETATM   15  C9  UNL     1      38.504   2.414  20.884  1.00  0.00     0.692 A 
ATOM     16  H7  UNL     1      40.471   2.425  21.464  1.00  0.00     0.186 HD
HETATM   17  N9  UNL     1      37.243   2.698  21.236  1.00  0.00    -0.022 N 
ATOM     18  H9  UNL     1      36.480   2.521  20.582  1.00  0.00     0.203 HD
BRANCH  12  19
HETATM   19  S1  UNL     1      40.551   3.472  24.088  1.00  0.00    -0.097 SA
HETATM   20  C8  UNL     1      40.667   2.083  25.236  1.00  0.00     0.099 C 
ENDBRANCH  12  19
BRANCH  15  21
HETATM   21  N8  UNL     1      38.746   1.921  19.726  1.00  0.00    -0.234 N 
ATOM     22  H82 UNL     1      38.255   2.282  18.909  1.00  0.00     0.174 HD
ATOM     23  H81 UNL     1      39.429   1.170  19.629  1.00  0.00     0.174 HD
ENDBRANCH  15  21
ENDBRANCH   8  10
ENDBRANCH   1   8
BRANCH   2  24
HETATM   24  N2  UNL     1      35.232   5.808  23.920  1.00  0.00    -0.286 N 
HETATM   25  C4  UNL     1      34.278   6.658  23.885  1.00  0.00     0.164 C 
HETATM   26  N3  UNL     1      33.063   6.383  24.549  1.00  0.00    -0.081 NA
ATOM     27  H2  UNL     1      36.114   5.998  23.444  1.00  0.00     0.188 HD
BRANCH  25  28
HETATM   28  C5  UNL     1      34.473   7.936  23.134  1.00  0.00     0.383 C 
BRANCH  28  29
HETATM   29  N4  UNL     1      35.327   7.631  21.990  1.00  0.00    -0.046 N 
ATOM     30  H43 UNL     1      34.839   7.131  21.247  1.00  0.00     0.277 HD
ATOM     31  H42 UNL     1      35.579   8.456  21.446  1.00  0.00     0.277 HD
ATOM     32  H41 UNL     1      36.137   7.126  22.349  1.00  0.00     0.277 HD
ENDBRANCH  28  29
BRANCH  28  33
HETATM   33  O3  UNL     1      33.223   8.376  22.698  1.00  0.00    -0.365 OA
ATOM     34  H3  UNL     1      33.359   9.108  22.108  1.00  0.00     0.212 HD
ENDBRANCH  28  33
ENDBRANCH  25  28
ENDBRANCH   2  24
TORSDOF 10
ENDMDL
