MODEL 1
REMARK VINA RESULT: -7.287622147      0.000      0.000
REMARK  4 active torsions:
REMARK  status: ('A' for Active; 'I' for Inactive)
REMARK    1  A    between atoms: C2_3  and  C3_4 
REMARK    2  A    between atoms: C4_11  and  C5_12 
REMARK    3  A    between atoms: C6_15  and  C7_16 
REMARK       I    between atoms: C7_16  and  N6_18 
REMARK    4  A    between atoms: N6_18  and  C8_20 
ROOT
HETATM    1  C5  UNL     1      34.746   6.112  23.818  1.00  0.00     0.121 A 
HETATM    2  N5  UNL     1      34.545   5.032  24.552  1.00  0.00    -0.332 N 
ATOM      3  H5  UNL     1      33.965   5.001  25.390  1.00  0.00     0.168 HD
HETATM    4  C6  UNL     1      35.216   3.968  24.038  1.00  0.00     0.176 A 
HETATM    5  N9  UNL     1      35.848   4.397  22.960  1.00  0.00    -0.324 N 
ATOM      6  H9  UNL     1      36.439   3.826  22.357  1.00  0.00     0.169 HD
HETATM    7  C11 UNL     1      35.597   5.685  22.785  1.00  0.00     0.148 A 
HETATM    8  N10 UNL     1      36.087   6.510  21.744  1.00  0.00    -0.080 NA
ENDROOT
BRANCH   1   9
HETATM    9  C4  UNL     1      34.259   7.471  23.947  1.00  0.00     0.154 A 
HETATM   10  N1  UNL     1      34.341   8.355  24.958  1.00  0.00    -0.315 N 
HETATM   11  C1  UNL     1      34.996   8.049  26.203  1.00  0.00     0.159 C 
HETATM   12  C2  UNL     1      33.738   9.502  24.619  1.00  0.00     0.190 A 
HETATM   13  N3  UNL     1      33.253   9.338  23.343  1.00  0.00    -0.279 N 
HETATM   14  N4  UNL     1      33.573   8.129  22.967  1.00  0.00    -0.282 N 
ATOM     15  H3  UNL     1      32.740  10.029  22.795  1.00  0.00     0.189 HD
ATOM     16  H4  UNL     1      33.341   7.728  22.058  1.00  0.00     0.188 HD
BRANCH  12  17
HETATM   17  C3  UNL     1      33.589  10.725  25.400  1.00  0.00     0.300 C 
HETATM   18  N2  UNL     1      32.260  11.176  25.764  1.00  0.00    -0.054 NA
HETATM   19  O1  UNL     1      34.513  11.459  25.808  1.00  0.00    -0.268 OA
ENDBRANCH  12  17
ENDBRANCH   1   9
BRANCH   4  20
HETATM   20  C7  UNL     1      35.252   2.608  24.549  1.00  0.00     0.287 C 
HETATM   21  O2  UNL     1      34.382   2.279  25.401  1.00  0.00    -0.264 OA
HETATM   22  N6  UNL     1      36.247   1.722  24.078  1.00  0.00    -0.326 N 
ATOM     23  H6  UNL     1      36.915   2.066  23.389  1.00  0.00     0.165 HD
BRANCH  22  24
HETATM   24  C8  UNL     1      36.366   0.350  24.527  1.00  0.00     0.250 C 
HETATM   25  C9  UNL     1      36.035  -0.651  23.468  1.00  0.00     0.177 C 
HETATM   26  N7  UNL     1      37.356  -1.058  23.007  1.00  0.00    -0.355 N 
HETATM   27  C10 UNL     1      38.244  -0.671  23.859  1.00  0.00     0.229 C 
ATOM     28  H7  UNL     1      37.548  -1.569  22.145  1.00  0.00     0.162 HD
HETATM   29  N8  UNL     1      39.642  -0.944  23.647  1.00  0.00    -0.056 NA
HETATM   30  O3  UNL     1      37.654  -0.002  24.922  1.00  0.00    -0.297 OA
ENDBRANCH  22  24
ENDBRANCH   4  20
TORSDOF 4
ENDMDL
MODEL 2
REMARK VINA RESULT: -7.209517433      3.305      5.925
REMARK  4 active torsions:
REMARK  status: ('A' for Active; 'I' for Inactive)
REMARK    1  A    between atoms: C2_3  and  C3_4 
REMARK    2  A    between atoms: C4_11  and  C5_12 
REMARK    3  A    between atoms: C6_15  and  C7_16 
REMARK       I    between atoms: C7_16  and  N6_18 
REMARK    4  A    between atoms: N6_18  and  C8_20 
ROOT
HETATM    1  C5  UNL     1      36.946   0.747  23.391  1.00  0.00     0.121 A 
HETATM    2  N5  UNL     1      36.257  -0.375  23.294  1.00  0.00    -0.332 N 
ATOM      3  H5  UNL     1      35.263  -0.426  23.070  1.00  0.00     0.168 HD
HETATM    4  C6  UNL     1      37.051  -1.452  23.533  1.00  0.00     0.176 A 
HETATM    5  N9  UNL     1      38.262  -0.987  23.784  1.00  0.00    -0.324 N 
ATOM      6  H9  UNL     1      39.079  -1.557  24.001  1.00  0.00     0.169 HD
HETATM    7  C11 UNL     1      38.251   0.335  23.711  1.00  0.00     0.148 A 
HETATM    8  N10 UNL     1      39.349   1.204  23.914  1.00  0.00    -0.080 NA
ENDROOT
BRANCH   1   9
HETATM    9  C4  UNL     1      36.560   2.134  23.228  1.00  0.00     0.154 A 
HETATM   10  N1  UNL     1      35.848   2.959  24.016  1.00  0.00    -0.315 N 
HETATM   11  C1  UNL     1      35.297   2.541  25.279  1.00  0.00     0.159 C 
HETATM   12  C2  UNL     1      35.744   4.168  23.447  1.00  0.00     0.190 A 
HETATM   13  N3  UNL     1      36.418   4.106  22.250  1.00  0.00    -0.279 N 
HETATM   14  N4  UNL     1      36.892   2.893  22.142  1.00  0.00    -0.282 N 
ATOM     15  H3  UNL     1      36.527   4.863  21.575  1.00  0.00     0.189 HD
ATOM     16  H4  UNL     1      37.439   2.557  21.350  1.00  0.00     0.188 HD
BRANCH  12  17
HETATM   17  C3  UNL     1      35.068   5.361  23.944  1.00  0.00     0.300 C 
HETATM   18  N2  UNL     1      35.797   6.612  24.016  1.00  0.00    -0.054 NA
HETATM   19  O1  UNL     1      33.883   5.432  24.332  1.00  0.00    -0.268 OA
ENDBRANCH  12  17
ENDBRANCH   1   9
BRANCH   4  20
HETATM   20  C7  UNL     1      36.674  -2.855  23.521  1.00  0.00     0.287 C 
HETATM   21  O2  UNL     1      36.024  -3.296  24.508  1.00  0.00    -0.264 OA
HETATM   22  N6  UNL     1      37.047  -3.659  22.420  1.00  0.00    -0.326 N 
ATOM     23  H6  UNL     1      37.573  -3.226  21.661  1.00  0.00     0.165 HD
BRANCH  22  24
HETATM   24  C8  UNL     1      36.719  -5.066  22.317  1.00  0.00     0.250 C 
HETATM   25  C9  UNL     1      37.020  -5.648  20.974  1.00  0.00     0.177 C 
HETATM   26  N7  UNL     1      38.290  -6.321  21.208  1.00  0.00    -0.355 N 
HETATM   27  C10 UNL     1      38.489  -6.429  22.478  1.00  0.00     0.229 C 
ATOM     28  H7  UNL     1      38.924  -6.655  20.481  1.00  0.00     0.162 HD
HETATM   29  N8  UNL     1      39.678  -7.060  22.990  1.00  0.00    -0.056 NA
HETATM   30  O3  UNL     1      37.438  -5.875  23.194  1.00  0.00    -0.297 OA
ENDBRANCH  22  24
ENDBRANCH   4  20
TORSDOF 4
ENDMDL
MODEL 3
REMARK VINA RESULT: -7.195544745      4.086      5.262
REMARK  4 active torsions:
REMARK  status: ('A' for Active; 'I' for Inactive)
REMARK    1  A    between atoms: C2_3  and  C3_4 
REMARK    2  A    between atoms: C4_11  and  C5_12 
REMARK    3  A    between atoms: C6_15  and  C7_16 
REMARK       I    between atoms: C7_16  and  N6_18 
REMARK    4  A    between atoms: N6_18  and  C8_20 
ROOT
HETATM    1  C5  UNL     1      36.497   2.139  23.644  1.00  0.00     0.121 A 
HETATM    2  N5  UNL     1      36.877   0.986  23.123  1.00  0.00    -0.332 N 
ATOM      3  H5  UNL     1      37.568   0.887  22.379  1.00  0.00     0.168 HD
HETATM    4  C6  UNL     1      36.222  -0.049  23.711  1.00  0.00     0.176 A 
HETATM    5  N9  UNL     1      35.417   0.474  24.620  1.00  0.00    -0.324 N 
ATOM      6  H9  UNL     1      34.794  -0.056  25.229  1.00  0.00     0.169 HD
HETATM    7  C11 UNL     1      35.546   1.791  24.618  1.00  0.00     0.148 A 
HETATM    8  N10 UNL     1      34.857   2.711  25.444  1.00  0.00    -0.080 NA
ENDROOT
BRANCH   1   9
HETATM    9  C4  UNL     1      36.895   3.503  23.362  1.00  0.00     0.154 A 
HETATM   10  N1  UNL     1      38.073   4.136  23.508  1.00  0.00    -0.315 N 
HETATM   11  C1  UNL     1      39.246   3.481  24.027  1.00  0.00     0.159 C 
HETATM   12  C2  UNL     1      37.965   5.411  23.109  1.00  0.00     0.190 A 
HETATM   13  N3  UNL     1      36.667   5.593  22.696  1.00  0.00    -0.279 N 
HETATM   14  N4  UNL     1      36.053   4.451  22.854  1.00  0.00    -0.282 N 
ATOM     15  H3  UNL     1      36.260   6.456  22.334  1.00  0.00     0.189 HD
ATOM     16  H4  UNL     1      35.072   4.288  22.628  1.00  0.00     0.188 HD
BRANCH  12  17
HETATM   17  C3  UNL     1      38.984   6.455  23.090  1.00  0.00     0.300 C 
HETATM   18  N2  UNL     1      39.166   7.290  24.260  1.00  0.00    -0.054 NA
HETATM   19  O1  UNL     1      39.750   6.723  22.141  1.00  0.00    -0.268 OA
ENDBRANCH  12  17
ENDBRANCH   1   9
BRANCH   4  20
HETATM   20  C7  UNL     1      36.358  -1.467  23.424  1.00  0.00     0.287 C 
HETATM   21  O2  UNL     1      35.375  -2.054  22.895  1.00  0.00    -0.264 OA
HETATM   22  N6  UNL     1      37.569  -2.121  23.744  1.00  0.00    -0.326 N 
ATOM     23  H6  UNL     1      38.317  -1.575  24.171  1.00  0.00     0.165 HD
BRANCH  22  24
HETATM   24  C8  UNL     1      37.799  -3.530  23.497  1.00  0.00     0.250 C 
HETATM   25  C9  UNL     1      39.073  -3.803  22.763  1.00  0.00     0.177 C 
HETATM   26  N7  UNL     1      39.968  -4.205  23.840  1.00  0.00    -0.355 N 
HETATM   27  C10 UNL     1      39.274  -4.473  24.895  1.00  0.00     0.229 C 
ATOM     28  H7  UNL     1      40.984  -4.266  23.772  1.00  0.00     0.162 HD
HETATM   29  N8  UNL     1      39.913  -4.898  26.113  1.00  0.00    -0.056 NA
HETATM   30  O3  UNL     1      37.918  -4.291  24.657  1.00  0.00    -0.297 OA
ENDBRANCH  22  24
ENDBRANCH   4  20
TORSDOF 4
ENDMDL
MODEL 4
REMARK VINA RESULT: -7.101628979      2.616      4.569
REMARK  4 active torsions:
REMARK  status: ('A' for Active; 'I' for Inactive)
REMARK    1  A    between atoms: C2_3  and  C3_4 
REMARK    2  A    between atoms: C4_11  and  C5_12 
REMARK    3  A    between atoms: C6_15  and  C7_16 
REMARK       I    between atoms: C7_16  and  N6_18 
REMARK    4  A    between atoms: N6_18  and  C8_20 
ROOT
HETATM    1  C5  UNL     1      36.339   2.156  24.086  1.00  0.00     0.121 A 
HETATM    2  N5  UNL     1      35.822   0.970  23.820  1.00  0.00    -0.332 N 
ATOM      3  H5  UNL     1      34.826   0.787  23.695  1.00  0.00     0.168 HD
HETATM    4  C6  UNL     1      36.796   0.027  23.736  1.00  0.00     0.176 A 
HETATM    5  N9  UNL     1      37.945   0.642  23.954  1.00  0.00    -0.324 N 
ATOM      6  H9  UNL     1      38.862   0.195  23.955  1.00  0.00     0.169 HD
HETATM    7  C11 UNL     1      37.723   1.929  24.171  1.00  0.00     0.148 A 
HETATM    8  N10 UNL     1      38.693   2.923  24.444  1.00  0.00    -0.080 NA
ENDROOT
BRANCH   1   9
HETATM    9  C4  UNL     1      35.726   3.457  24.270  1.00  0.00     0.154 A 
HETATM   10  N1  UNL     1      35.813   4.592  23.554  1.00  0.00    -0.315 N 
HETATM   11  C1  UNL     1      36.620   4.699  22.366  1.00  0.00     0.159 C 
HETATM   12  C2  UNL     1      35.060   5.550  24.112  1.00  0.00     0.190 A 
HETATM   13  N3  UNL     1      34.474   5.000  25.228  1.00  0.00    -0.279 N 
HETATM   14  N4  UNL     1      34.883   3.761  25.300  1.00  0.00    -0.282 N 
ATOM     15  H3  UNL     1      33.842   5.470  25.875  1.00  0.00     0.189 HD
ATOM     16  H4  UNL     1      34.608   3.106  26.032  1.00  0.00     0.188 HD
BRANCH  12  17
HETATM   17  C3  UNL     1      34.856   6.926  23.675  1.00  0.00     0.300 C 
HETATM   18  N2  UNL     1      33.524   7.362  23.303  1.00  0.00    -0.054 NA
HETATM   19  O1  UNL     1      35.733   7.810  23.580  1.00  0.00    -0.268 OA
ENDBRANCH  12  17
ENDBRANCH   1   9
BRANCH   4  20
HETATM   20  C7  UNL     1      36.641  -1.391  23.458  1.00  0.00     0.287 C 
HETATM   21  O2  UNL     1      35.527  -1.782  23.013  1.00  0.00    -0.264 OA
HETATM   22  N6  UNL     1      37.727  -2.262  23.697  1.00  0.00    -0.326 N 
ATOM     23  H6  UNL     1      38.595  -1.867  24.059  1.00  0.00     0.165 HD
BRANCH  22  24
HETATM   24  C8  UNL     1      37.669  -3.689  23.453  1.00  0.00     0.250 C 
HETATM   25  C9  UNL     1      38.806  -4.197  22.627  1.00  0.00     0.177 C 
HETATM   26  N7  UNL     1      39.692  -4.761  23.637  1.00  0.00    -0.355 N 
HETATM   27  C10 UNL     1      39.046  -4.893  24.746  1.00  0.00     0.229 C 
ATOM     28  H7  UNL     1      40.670  -5.011  23.491  1.00  0.00     0.162 HD
HETATM   29  N8  UNL     1      39.688  -5.431  25.917  1.00  0.00    -0.056 NA
HETATM   30  O3  UNL     1      37.734  -4.459  24.612  1.00  0.00    -0.297 OA
ENDBRANCH  22  24
ENDBRANCH   4  20
TORSDOF 4
ENDMDL
MODEL 5
REMARK VINA RESULT: -7.074932902      2.213      9.405
REMARK  4 active torsions:
REMARK  status: ('A' for Active; 'I' for Inactive)
REMARK    1  A    between atoms: C2_3  and  C3_4 
REMARK    2  A    between atoms: C4_11  and  C5_12 
REMARK    3  A    between atoms: C6_15  and  C7_16 
REMARK       I    between atoms: C7_16  and  N6_18 
REMARK    4  A    between atoms: N6_18  and  C8_20 
ROOT
HETATM    1  C5  UNL     1      37.399   1.103  23.550  1.00  0.00     0.121 A 
HETATM    2  N5  UNL     1      36.585   1.670  24.422  1.00  0.00    -0.332 N 
ATOM      3  H5  UNL     1      36.334   1.269  25.326  1.00  0.00     0.168 HD
HETATM    4  C6  UNL     1      36.126   2.860  23.952  1.00  0.00     0.176 A 
HETATM    5  N9  UNL     1      36.669   3.036  22.760  1.00  0.00    -0.324 N 
ATOM      6  H9  UNL     1      36.514   3.842  22.155  1.00  0.00     0.169 HD
HETATM    7  C11 UNL     1      37.445   2.003  22.472  1.00  0.00     0.148 A 
HETATM    8  N10 UNL     1      38.201   1.815  21.290  1.00  0.00    -0.080 NA
ENDROOT
BRANCH   1   9
HETATM    9  C4  UNL     1      38.131  -0.147  23.584  1.00  0.00     0.154 A 
HETATM   10  N1  UNL     1      37.715  -1.425  23.531  1.00  0.00    -0.315 N 
HETATM   11  C1  UNL     1      36.324  -1.783  23.423  1.00  0.00     0.159 C 
HETATM   12  C2  UNL     1      38.764  -2.257  23.595  1.00  0.00     0.190 A 
HETATM   13  N3  UNL     1      39.890  -1.474  23.694  1.00  0.00    -0.279 N 
HETATM   14  N4  UNL     1      39.490  -0.229  23.686  1.00  0.00    -0.282 N 
ATOM     15  H3  UNL     1      40.853  -1.802  23.762  1.00  0.00     0.189 HD
ATOM     16  H4  UNL     1      40.113   0.575  23.747  1.00  0.00     0.188 HD
BRANCH  12  17
HETATM   17  C3  UNL     1      38.781  -3.715  23.569  1.00  0.00     0.300 C 
HETATM   18  N2  UNL     1      38.400  -4.449  24.760  1.00  0.00    -0.054 NA
HETATM   19  O1  UNL     1      39.100  -4.433  22.599  1.00  0.00    -0.268 OA
ENDBRANCH  12  17
ENDBRANCH   1   9
BRANCH   4  20
HETATM   20  C7  UNL     1      35.217   3.784  24.607  1.00  0.00     0.287 C 
HETATM   21  O2  UNL     1      34.788   3.473  25.752  1.00  0.00    -0.264 OA
HETATM   22  N6  UNL     1      34.853   4.978  23.944  1.00  0.00    -0.326 N 
ATOM     23  H6  UNL     1      35.243   5.157  23.019  1.00  0.00     0.165 HD
BRANCH  22  24
HETATM   24  C8  UNL     1      33.953   5.960  24.514  1.00  0.00     0.250 C 
HETATM   25  C9  UNL     1      34.657   7.040  25.272  1.00  0.00     0.177 C 
HETATM   26  N7  UNL     1      34.674   8.131  24.307  1.00  0.00    -0.355 N 
HETATM   27  C10 UNL     1      33.840   7.874  23.357  1.00  0.00     0.229 C 
ATOM     28  H7  UNL     1      35.255   8.967  24.373  1.00  0.00     0.162 HD
HETATM   29  N8  UNL     1      33.658   8.794  22.264  1.00  0.00    -0.056 NA
HETATM   30  O3  UNL     1      33.209   6.656  23.565  1.00  0.00    -0.297 OA
ENDBRANCH  22  24
ENDBRANCH   4  20
TORSDOF 4
ENDMDL
