MODEL 1
REMARK VINA RESULT: -5.721825912      0.000      0.000
REMARK  7 active torsions:
REMARK  status: ('A' for Active; 'I' for Inactive)
REMARK    1  A    between atoms: N1_1  and  C1_4 
REMARK    2  A    between atoms: C2_7  and  S1_8 
REMARK    3  A    between atoms: S1_8  and  C3_9 
REMARK    4  A    between atoms: C3_9  and  C4_10 
REMARK    5  A    between atoms: C5_19  and  S2_20 
REMARK    6  A    between atoms: S2_20  and  N7_23 
REMARK    7  A    between atoms: N7_23  and  N8_25 
ROOT
HETATM    1  C1  UNL     1      40.048   4.437  23.334  1.00  0.00     0.679 A 
HETATM    2  N2  UNL     1      39.026   5.259  23.058  1.00  0.00    -0.184 N 
ATOM      3  H2  UNL     1      39.227   6.188  22.689  1.00  0.00     0.185 HD
HETATM    4  C2  UNL     1      37.724   4.892  23.252  1.00  0.00     0.115 A 
HETATM    5  C5  UNL     1      37.419   3.647  23.747  1.00  0.00     0.183 A 
HETATM    6  C6  UNL     1      38.490   2.802  24.030  1.00  0.00     0.285 A 
HETATM    7  O3  UNL     1      38.225   1.651  24.486  1.00  0.00    -0.266 OA
HETATM    8  N9  UNL     1      39.743   3.224  23.816  1.00  0.00    -0.155 N 
ATOM      9  H9  UNL     1      40.509   2.585  24.031  1.00  0.00     0.187 HD
ENDROOT
BRANCH   4  10
HETATM   10  S1  UNL     1      36.460   6.084  22.850  1.00  0.00    -0.102 SA
BRANCH  10  11
HETATM   11  C3  UNL     1      36.144   7.108  24.306  1.00  0.00     0.160 C 
BRANCH  11  12
HETATM   12  C4  UNL     1      34.668   7.128  24.545  1.00  0.00     0.122 A 
HETATM   13  N3  UNL     1      34.025   8.218  24.982  1.00  0.00    -0.272 N 
HETATM   14  N4  UNL     1      32.757   7.885  25.080  1.00  0.00    -0.227 N 
ATOM     15  H3  UNL     1      34.438   9.126  25.196  1.00  0.00     0.190 HD
HETATM   16  N5  UNL     1      32.583   6.645  24.727  1.00  0.00    -0.227 N 
ATOM     17  H4  UNL     1      32.014   8.512  25.390  1.00  0.00     0.210 HD
HETATM   18  N6  UNL     1      33.760   6.162  24.392  1.00  0.00    -0.272 N 
ATOM     19  H5  UNL     1      31.696   6.141  24.712  1.00  0.00     0.210 HD
ATOM     20  H6  UNL     1      33.946   5.211  24.070  1.00  0.00     0.190 HD
ENDBRANCH  11  12
ENDBRANCH  10  11
ENDBRANCH   4  10
BRANCH   5  21
HETATM   21  S2  UNL     1      35.786   3.168  24.051  1.00  0.00     0.283 S 
HETATM   22  O1  UNL     1      34.895   3.662  22.947  1.00  0.00    -0.199 OA
HETATM   23  O2  UNL     1      35.297   3.683  25.341  1.00  0.00    -0.199 OA
BRANCH  21  24
HETATM   24  N7  UNL     1      35.632   1.434  24.080  1.00  0.00    -0.229 N 
ATOM     25  H7  UNL     1      35.542   0.817  23.272  1.00  0.00     0.199 HD
BRANCH  24  26
HETATM   26  N8  UNL     1      35.656   1.050  25.424  1.00  0.00    -0.336 N 
ATOM     27  H82 UNL     1      36.373   1.300  26.105  1.00  0.00     0.177 HD
ATOM     28  H81 UNL     1      34.825   0.481  25.581  1.00  0.00     0.177 HD
ENDBRANCH  24  26
ENDBRANCH  21  24
ENDBRANCH   5  21
BRANCH   1  29
HETATM   29  N1  UNL     1      41.277   4.808  23.140  1.00  0.00    -0.234 N 
ATOM     30  H12 UNL     1      41.581   5.223  22.260  1.00  0.00     0.174 HD
ATOM     31  H11 UNL     1      41.981   4.695  23.869  1.00  0.00     0.174 HD
ENDBRANCH   1  29
TORSDOF 7
ENDMDL
MODEL 2
REMARK VINA RESULT: -5.705570709      4.297      5.354
REMARK  7 active torsions:
REMARK  status: ('A' for Active; 'I' for Inactive)
REMARK    1  A    between atoms: N1_1  and  C1_4 
REMARK    2  A    between atoms: C2_7  and  S1_8 
REMARK    3  A    between atoms: S1_8  and  C3_9 
REMARK    4  A    between atoms: C3_9  and  C4_10 
REMARK    5  A    between atoms: C5_19  and  S2_20 
REMARK    6  A    between atoms: S2_20  and  N7_23 
REMARK    7  A    between atoms: N7_23  and  N8_25 
ROOT
HETATM    1  C1  UNL     1      39.977  -0.240  24.072  1.00  0.00     0.679 A 
HETATM    2  N2  UNL     1      38.723   0.232  24.099  1.00  0.00    -0.184 N 
ATOM      3  H2  UNL     1      38.572   1.219  24.308  1.00  0.00     0.185 HD
HETATM    4  C2  UNL     1      37.640  -0.566  23.855  1.00  0.00     0.115 A 
HETATM    5  C5  UNL     1      37.809  -1.899  23.571  1.00  0.00     0.183 A 
HETATM    6  C6  UNL     1      39.117  -2.377  23.546  1.00  0.00     0.285 A 
HETATM    7  O3  UNL     1      39.290  -3.604  23.285  1.00  0.00    -0.266 OA
HETATM    8  N9  UNL     1      40.134  -1.541  23.794  1.00  0.00    -0.155 N 
ATOM      9  H9  UNL     1      41.083  -1.916  23.769  1.00  0.00     0.187 HD
ENDROOT
BRANCH   4  10
HETATM   10  S1  UNL     1      36.025   0.187  23.928  1.00  0.00    -0.102 SA
BRANCH  10  11
HETATM   11  C3  UNL     1      36.084   1.572  25.090  1.00  0.00     0.160 C 
BRANCH  11  12
HETATM   12  C4  UNL     1      35.525   2.776  24.401  1.00  0.00     0.122 A 
HETATM   13  N3  UNL     1      34.793   3.696  25.042  1.00  0.00    -0.272 N 
HETATM   14  N4  UNL     1      34.471   4.602  24.146  1.00  0.00    -0.227 N 
ATOM     15  H3  UNL     1      34.536   3.693  26.029  1.00  0.00     0.190 HD
HETATM   16  N5  UNL     1      34.965   4.291  22.984  1.00  0.00    -0.227 N 
ATOM     17  H4  UNL     1      33.911   5.434  24.335  1.00  0.00     0.210 HD
HETATM   18  N6  UNL     1      35.623   3.159  23.126  1.00  0.00    -0.272 N 
ATOM     19  H5  UNL     1      34.863   4.825  22.121  1.00  0.00     0.210 HD
ATOM     20  H6  UNL     1      36.122   2.661  22.388  1.00  0.00     0.190 HD
ENDBRANCH  11  12
ENDBRANCH  10  11
ENDBRANCH   4  10
BRANCH   5  21
HETATM   21  S2  UNL     1      36.460  -2.947  23.305  1.00  0.00     0.283 S 
HETATM   22  O1  UNL     1      35.345  -2.187  22.647  1.00  0.00    -0.199 OA
HETATM   23  O2  UNL     1      35.972  -3.539  24.563  1.00  0.00    -0.199 OA
BRANCH  21  24
HETATM   24  N7  UNL     1      36.877  -4.253  22.232  1.00  0.00    -0.229 N 
ATOM     25  H7  UNL     1      37.713  -4.319  21.650  1.00  0.00     0.199 HD
BRANCH  24  26
HETATM   26  N8  UNL     1      35.846  -5.193  22.321  1.00  0.00    -0.336 N 
ATOM     27  H82 UNL     1      35.180  -5.278  23.089  1.00  0.00     0.177 HD
ATOM     28  H81 UNL     1      35.896  -5.764  21.478  1.00  0.00     0.177 HD
ENDBRANCH  24  26
ENDBRANCH  21  24
ENDBRANCH   5  21
BRANCH   1  29
HETATM   29  N1  UNL     1      40.989   0.538  24.307  1.00  0.00    -0.234 N 
ATOM     30  H12 UNL     1      41.584   0.889  23.556  1.00  0.00     0.174 HD
ATOM     31  H11 UNL     1      41.223   0.825  25.257  1.00  0.00     0.174 HD
ENDBRANCH   1  29
TORSDOF 7
ENDMDL
MODEL 3
REMARK VINA RESULT: -5.617169172      3.178      4.398
REMARK  7 active torsions:
REMARK  status: ('A' for Active; 'I' for Inactive)
REMARK    1  A    between atoms: N1_1  and  C1_4 
REMARK    2  A    between atoms: C2_7  and  S1_8 
REMARK    3  A    between atoms: S1_8  and  C3_9 
REMARK    4  A    between atoms: C3_9  and  C4_10 
REMARK    5  A    between atoms: C5_19  and  S2_20 
REMARK    6  A    between atoms: S2_20  and  N7_23 
REMARK    7  A    between atoms: N7_23  and  N8_25 
ROOT
HETATM    1  C1  UNL     1      37.654   4.947  22.092  1.00  0.00     0.679 A 
HETATM    2  N2  UNL     1      37.898   6.246  22.311  1.00  0.00    -0.184 N 
ATOM      3  H2  UNL     1      38.809   6.627  22.054  1.00  0.00     0.185 HD
HETATM    4  C2  UNL     1      36.967   7.078  22.869  1.00  0.00     0.115 A 
HETATM    5  C5  UNL     1      35.732   6.596  23.228  1.00  0.00     0.183 A 
HETATM    6  C6  UNL     1      35.491   5.244  22.994  1.00  0.00     0.285 A 
HETATM    7  O3  UNL     1      34.356   4.785  23.318  1.00  0.00    -0.266 OA
HETATM    8  N9  UNL     1      36.446   4.484  22.444  1.00  0.00    -0.155 N 
ATOM      9  H9  UNL     1      36.244   3.497  22.283  1.00  0.00     0.187 HD
ENDROOT
BRANCH   4  10
HETATM   10  S1  UNL     1      37.424   8.784  23.113  1.00  0.00    -0.102 SA
BRANCH  10  11
HETATM   11  C3  UNL     1      37.202   9.672  21.553  1.00  0.00     0.160 C 
BRANCH  11  12
HETATM   12  C4  UNL     1      35.753  10.023  21.424  1.00  0.00     0.122 A 
HETATM   13  N3  UNL     1      34.977   9.524  20.454  1.00  0.00    -0.272 N 
HETATM   14  N4  UNL     1      33.780  10.037  20.638  1.00  0.00    -0.227 N 
ATOM     15  H3  UNL     1      35.258   8.876  19.718  1.00  0.00     0.190 HD
HETATM   16  N5  UNL     1      33.777  10.826  21.672  1.00  0.00    -0.227 N 
ATOM     17  H4  UNL     1      32.967   9.842  20.053  1.00  0.00     0.210 HD
HETATM   18  N6  UNL     1      34.995  10.828  22.171  1.00  0.00    -0.272 N 
ATOM     19  H5  UNL     1      32.977  11.349  22.031  1.00  0.00     0.210 HD
ATOM     20  H6  UNL     1      35.305  11.355  22.988  1.00  0.00     0.190 HD
ENDBRANCH  11  12
ENDBRANCH  10  11
ENDBRANCH   4  10
BRANCH   5  21
HETATM   21  S2  UNL     1      34.548   7.608  23.979  1.00  0.00     0.283 S 
HETATM   22  O1  UNL     1      33.544   8.063  22.959  1.00  0.00    -0.199 OA
HETATM   23  O2  UNL     1      35.163   8.784  24.618  1.00  0.00    -0.199 OA
BRANCH  21  24
HETATM   24  N7  UNL     1      33.663   6.742  25.202  1.00  0.00    -0.229 N 
ATOM     25  H7  UNL     1      34.029   6.402  26.092  1.00  0.00     0.199 HD
BRANCH  24  26
HETATM   26  N8  UNL     1      32.354   6.603  24.730  1.00  0.00    -0.336 N 
ATOM     27  H82 UNL     1      32.085   6.287  23.799  1.00  0.00     0.177 HD
ATOM     28  H81 UNL     1      31.737   6.878  25.494  1.00  0.00     0.177 HD
ENDBRANCH  24  26
ENDBRANCH  21  24
ENDBRANCH   5  21
BRANCH   1  29
HETATM   29  N1  UNL     1      38.555   4.177  21.561  1.00  0.00    -0.234 N 
ATOM     30  H12 UNL     1      38.944   4.363  20.636  1.00  0.00     0.174 HD
ATOM     31  H11 UNL     1      38.904   3.357  22.056  1.00  0.00     0.174 HD
ENDBRANCH   1  29
TORSDOF 7
ENDMDL
MODEL 4
REMARK VINA RESULT: -5.576134557      2.484      5.480
REMARK  7 active torsions:
REMARK  status: ('A' for Active; 'I' for Inactive)
REMARK    1  A    between atoms: N1_1  and  C1_4 
REMARK    2  A    between atoms: C2_7  and  S1_8 
REMARK    3  A    between atoms: S1_8  and  C3_9 
REMARK    4  A    between atoms: C3_9  and  C4_10 
REMARK    5  A    between atoms: C5_19  and  S2_20 
REMARK    6  A    between atoms: S2_20  and  N7_23 
REMARK    7  A    between atoms: N7_23  and  N8_25 
ROOT
HETATM    1  C1  UNL     1      38.322   6.428  23.604  1.00  0.00     0.679 A 
HETATM    2  N2  UNL     1      37.413   5.455  23.453  1.00  0.00    -0.184 N 
ATOM      3  H2  UNL     1      37.729   4.522  23.187  1.00  0.00     0.185 HD
HETATM    4  C2  UNL     1      36.077   5.671  23.646  1.00  0.00     0.115 A 
HETATM    5  C5  UNL     1      35.619   6.915  24.005  1.00  0.00     0.183 A 
HETATM    6  C6  UNL     1      36.574   7.917  24.159  1.00  0.00     0.285 A 
HETATM    7  O3  UNL     1      36.167   9.070  24.490  1.00  0.00    -0.266 OA
HETATM    8  N9  UNL     1      37.868   7.639  23.955  1.00  0.00    -0.155 N 
ATOM      9  H9  UNL     1      38.547   8.391  24.074  1.00  0.00     0.187 HD
ENDROOT
BRANCH   4  10
HETATM   10  S1  UNL     1      34.974   4.290  23.406  1.00  0.00    -0.102 SA
BRANCH  10  11
HETATM   11  C3  UNL     1      35.024   3.246  24.881  1.00  0.00     0.160 C 
BRANCH  11  12
HETATM   12  C4  UNL     1      36.035   2.168  24.649  1.00  0.00     0.122 A 
HETATM   13  N3  UNL     1      35.693   0.935  24.254  1.00  0.00    -0.272 N 
HETATM   14  N4  UNL     1      36.814   0.256  24.150  1.00  0.00    -0.227 N 
ATOM     15  H3  UNL     1      34.750   0.591  24.071  1.00  0.00     0.190 HD
HETATM   16  N5  UNL     1      37.831   1.005  24.460  1.00  0.00    -0.227 N 
ATOM     17  H4  UNL     1      36.877  -0.722  23.866  1.00  0.00     0.210 HD
HETATM   18  N6  UNL     1      37.363   2.195  24.772  1.00  0.00    -0.272 N 
ATOM     19  H5  UNL     1      38.811   0.723  24.462  1.00  0.00     0.210 HD
ATOM     20  H6  UNL     1      37.921   3.000  25.059  1.00  0.00     0.190 HD
ENDBRANCH  11  12
ENDBRANCH  10  11
ENDBRANCH   4  10
BRANCH   5  21
HETATM   21  S2  UNL     1      33.932   7.235  24.210  1.00  0.00     0.283 S 
HETATM   22  O1  UNL     1      33.199   5.954  24.483  1.00  0.00    -0.199 OA
HETATM   23  O2  UNL     1      33.353   7.886  23.022  1.00  0.00    -0.199 OA
BRANCH  21  24
HETATM   24  N7  UNL     1      33.649   8.276  25.576  1.00  0.00    -0.229 N 
ATOM     25  H7  UNL     1      33.896   8.086  26.547  1.00  0.00     0.199 HD
BRANCH  24  26
HETATM   26  N8  UNL     1      33.017   9.422  25.085  1.00  0.00    -0.336 N 
ATOM     27  H82 UNL     1      33.196   9.864  24.183  1.00  0.00     0.177 HD
ATOM     28  H81 UNL     1      32.353   9.719  25.799  1.00  0.00     0.177 HD
ENDBRANCH  24  26
ENDBRANCH  21  24
ENDBRANCH   5  21
BRANCH   1  29
HETATM   29  N1  UNL     1      39.586   6.198  23.416  1.00  0.00    -0.234 N 
ATOM     30  H12 UNL     1      39.987   5.268  23.536  1.00  0.00     0.174 HD
ATOM     31  H11 UNL     1      40.220   6.947  23.139  1.00  0.00     0.174 HD
ENDBRANCH   1  29
TORSDOF 7
ENDMDL
MODEL 5
REMARK VINA RESULT: -5.557700311      2.448      3.755
REMARK  7 active torsions:
REMARK  status: ('A' for Active; 'I' for Inactive)
REMARK    1  A    between atoms: N1_1  and  C1_4 
REMARK    2  A    between atoms: C2_7  and  S1_8 
REMARK    3  A    between atoms: S1_8  and  C3_9 
REMARK    4  A    between atoms: C3_9  and  C4_10 
REMARK    5  A    between atoms: C5_19  and  S2_20 
REMARK    6  A    between atoms: S2_20  and  N7_23 
REMARK    7  A    between atoms: N7_23  and  N8_25 
ROOT
HETATM    1  C1  UNL     1      35.398   2.419  24.517  1.00  0.00     0.679 A 
HETATM    2  N2  UNL     1      35.598   3.735  24.357  1.00  0.00    -0.184 N 
ATOM      3  H2  UNL     1      35.025   4.389  24.891  1.00  0.00     0.185 HD
HETATM    4  C2  UNL     1      36.544   4.229  23.503  1.00  0.00     0.115 A 
HETATM    5  C5  UNL     1      37.332   3.375  22.769  1.00  0.00     0.183 A 
HETATM    6  C6  UNL     1      37.114   2.010  22.945  1.00  0.00     0.285 A 
HETATM    7  O3  UNL     1      37.833   1.211  22.276  1.00  0.00    -0.266 OA
HETATM    8  N9  UNL     1      36.171   1.592  23.799  1.00  0.00    -0.155 N 
ATOM      9  H9  UNL     1      36.032   0.588  23.909  1.00  0.00     0.187 HD
ENDROOT
BRANCH   4  10
HETATM   10  S1  UNL     1      36.702   6.001  23.380  1.00  0.00    -0.102 SA
BRANCH  10  11
HETATM   11  C3  UNL     1      35.250   6.654  22.522  1.00  0.00     0.160 C 
BRANCH  11  12
HETATM   12  C4  UNL     1      34.232   7.023  23.553  1.00  0.00     0.122 A 
HETATM   13  N3  UNL     1      33.262   6.185  23.938  1.00  0.00    -0.272 N 
HETATM   14  N4  UNL     1      32.557   6.825  24.844  1.00  0.00    -0.227 N 
ATOM     15  H3  UNL     1      33.101   5.237  23.595  1.00  0.00     0.190 HD
HETATM   16  N5  UNL     1      33.042   8.016  25.040  1.00  0.00    -0.227 N 
ATOM     17  H4  UNL     1      31.744   6.442  25.327  1.00  0.00     0.210 HD
HETATM   18  N6  UNL     1      34.082   8.154  24.246  1.00  0.00    -0.272 N 
ATOM     19  H5  UNL     1      32.682   8.716  25.690  1.00  0.00     0.210 HD
ATOM     20  H6  UNL     1      34.672   8.983  24.172  1.00  0.00     0.190 HD
ENDBRANCH  11  12
ENDBRANCH  10  11
ENDBRANCH   4  10
BRANCH   5  21
HETATM   21  S2  UNL     1      38.505   3.966  21.645  1.00  0.00     0.283 S 
HETATM   22  O1  UNL     1      39.813   4.196  22.345  1.00  0.00    -0.199 OA
HETATM   23  O2  UNL     1      38.065   5.218  21.005  1.00  0.00    -0.199 OA
BRANCH  21  24
HETATM   24  N7  UNL     1      38.809   2.806  20.383  1.00  0.00    -0.229 N 
ATOM     25  H7  UNL     1      39.664   2.265  20.247  1.00  0.00     0.199 HD
BRANCH  24  26
HETATM   26  N8  UNL     1      37.656   2.757  19.594  1.00  0.00    -0.336 N 
ATOM     27  H82 UNL     1      36.926   2.047  19.645  1.00  0.00     0.177 HD
ATOM     28  H81 UNL     1      37.695   3.562  18.969  1.00  0.00     0.177 HD
ENDBRANCH  24  26
ENDBRANCH  21  24
ENDBRANCH   5  21
BRANCH   1  29
HETATM   29  N1  UNL     1      34.493   1.974  25.335  1.00  0.00    -0.234 N 
ATOM     30  H12 UNL     1      33.891   2.604  25.865  1.00  0.00     0.174 HD
ATOM     31  H11 UNL     1      34.356   0.974  25.472  1.00  0.00     0.174 HD
ENDBRANCH   1  29
TORSDOF 7
ENDMDL
