MODEL 1
REMARK VINA RESULT: -5.531384710      0.000      0.000
REMARK  9 active torsions:
REMARK  status: ('A' for Active; 'I' for Inactive)
REMARK    1  A    between atoms: O1_2  and  C2_3 
REMARK    2  A    between atoms: C2_3  and  O2_4 
REMARK    3  A    between atoms: C3_6  and  N1_7 
REMARK    4  A    between atoms: C4_11  and  N2_12 
REMARK    5  A    between atoms: C4_11  and  C5_17 
REMARK    6  A    between atoms: N2_12  and  N3_14 
REMARK    7  A    between atoms: C6_22  and  N5_23 
REMARK    8  A    between atoms: N5_23  and  N6_25 
REMARK    9  A    between atoms: C7_30  and  O7_31 
ROOT
HETATM    1  C2  UNL     1      38.603  -0.702  12.268  1.00  0.00     0.245 C 
HETATM    2  C3  UNL     1      38.986  -1.154  13.633  1.00  0.00     0.310 C 
HETATM    3  C4  UNL     1      38.061  -2.214  14.196  1.00  0.00     0.244 C 
HETATM    4  N4  UNL     1      36.707  -1.803  14.019  1.00  0.00    -0.360 N 
ATOM      5  H4  UNL     1      36.073  -1.679  14.808  1.00  0.00     0.158 HD
HETATM    6  C6  UNL     1      36.294  -1.577  12.682  1.00  0.00     0.252 C 
HETATM    7  C7  UNL     1      37.124  -0.444  12.113  1.00  0.00     0.244 C 
HETATM    8  C8  UNL     1      36.706   0.862  12.608  1.00  0.00     0.108 C 
HETATM    9  N8  UNL     1      36.370   1.901  12.980  1.00  0.00    -0.194 NA
ENDROOT
BRANCH   7  10
HETATM   10  O7  UNL     1      36.865  -0.444  10.722  1.00  0.00    -0.368 OA
ATOM     11  H7  UNL     1      35.922  -0.499  10.627  1.00  0.00     0.212 HD
ENDBRANCH   7  10
BRANCH   1  12
HETATM   12  O1  UNL     1      39.265   0.451  11.919  1.00  0.00    -0.355 OA
HETATM   13  C1  UNL     1      40.566   0.271  11.475  1.00  0.00     0.205 C 
ENDBRANCH   1  12
BRANCH   1  14
HETATM   14  O2  UNL     1      38.885  -1.757  11.374  1.00  0.00    -0.360 OA
ATOM     15  H2  UNL     1      39.021  -2.578  11.832  1.00  0.00     0.213 HD
ENDBRANCH   1  14
BRANCH   6  16
HETATM   16  N5  UNL     1      36.447  -2.690  11.780  1.00  0.00    -0.295 N 
ATOM     17  H5  UNL     1      37.359  -2.918  11.384  1.00  0.00     0.184 HD
BRANCH  16  18
HETATM   18  N6  UNL     1      35.458  -3.358  11.498  1.00  0.00    -0.252 N 
HETATM   19  N7  UNL     1      34.719  -4.353  11.444  1.00  0.00    -0.331 N 
ATOM     20  H72 UNL     1      35.319  -5.005  11.949  1.00  0.00     0.178 HD
ATOM     21  H71 UNL     1      33.896  -4.909  11.210  1.00  0.00     0.178 HD
ATOM     22  H6  UNL     1      34.895  -2.670  10.999  1.00  0.00     0.207 HD
ENDBRANCH  16  18
ENDBRANCH   6  16
BRANCH   2  23
HETATM   23  N1  UNL     1      39.103  -0.072  14.584  1.00  0.00    -0.065 N 
ATOM     24  H13 UNL     1      38.539   0.727  14.294  1.00  0.00     0.275 HD
ATOM     25  H12 UNL     1      38.631  -0.306  15.457  1.00  0.00     0.275 HD
ATOM     26  H11 UNL     1      40.068   0.211  14.758  1.00  0.00     0.275 HD
ENDBRANCH   2  23
BRANCH   3  27
HETATM   27  N2  UNL     1      38.338  -3.514  13.601  1.00  0.00    -0.236 N 
ATOM     28  H2  UNL     1      38.987  -3.593  12.819  1.00  0.00     0.190 HD
BRANCH  27  29
HETATM   29  N3  UNL     1      37.712  -4.644  14.108  1.00  0.00    -0.041 N 
HETATM   30  O3  UNL     1      36.486  -4.834  13.894  1.00  0.00    -0.517 OA
HETATM   31  O4  UNL     1      38.332  -5.618  14.856  1.00  0.00    -0.517 OA
ENDBRANCH  27  29
ENDBRANCH   3  27
BRANCH   3  32
HETATM   32  C5  UNL     1      38.332  -2.327  15.645  1.00  0.00     0.228 C 
HETATM   33  O5  UNL     1      37.445  -1.962  16.449  1.00  0.00    -0.645 OA
HETATM   34  O6  UNL     1      39.502  -2.810  16.205  1.00  0.00    -0.645 OA
ENDBRANCH   3  32
TORSDOF 9
ENDMDL
MODEL 2
REMARK VINA RESULT: -5.411040597      1.551      4.629
REMARK  9 active torsions:
REMARK  status: ('A' for Active; 'I' for Inactive)
REMARK    1  A    between atoms: O1_2  and  C2_3 
REMARK    2  A    between atoms: C2_3  and  O2_4 
REMARK    3  A    between atoms: C3_6  and  N1_7 
REMARK    4  A    between atoms: C4_11  and  N2_12 
REMARK    5  A    between atoms: C4_11  and  C5_17 
REMARK    6  A    between atoms: N2_12  and  N3_14 
REMARK    7  A    between atoms: C6_22  and  N5_23 
REMARK    8  A    between atoms: N5_23  and  N6_25 
REMARK    9  A    between atoms: C7_30  and  O7_31 
ROOT
HETATM    1  C2  UNL     1      38.276  -2.295  15.175  1.00  0.00     0.245 C 
HETATM    2  C3  UNL     1      39.006  -1.106  14.662  1.00  0.00     0.310 C 
HETATM    3  C4  UNL     1      38.546  -0.667  13.286  1.00  0.00     0.244 C 
HETATM    4  N4  UNL     1      38.490  -1.800  12.422  1.00  0.00    -0.360 N 
ATOM      5  H4  UNL     1      39.042  -1.855  11.566  1.00  0.00     0.158 HD
HETATM    6  C6  UNL     1      37.622  -2.847  12.822  1.00  0.00     0.252 C 
HETATM    7  C7  UNL     1      38.113  -3.390  14.148  1.00  0.00     0.244 C 
HETATM    8  C8  UNL     1      39.291  -4.237  14.008  1.00  0.00     0.108 C 
HETATM    9  N8  UNL     1      40.212  -4.923  13.904  1.00  0.00    -0.194 NA
ENDROOT
BRANCH   7  10
HETATM   10  O7  UNL     1      37.076  -4.227  14.623  1.00  0.00    -0.368 OA
ATOM     11  H7  UNL     1      36.263  -3.766  14.454  1.00  0.00     0.212 HD
ENDBRANCH   7  10
BRANCH   1  12
HETATM   12  O1  UNL     1      38.912  -2.840  16.266  1.00  0.00    -0.355 OA
HETATM   13  C1  UNL     1      38.437  -2.413  17.497  1.00  0.00     0.205 C 
ENDBRANCH   1  12
BRANCH   1  14
HETATM   14  O2  UNL     1      36.961  -1.888  15.487  1.00  0.00    -0.360 OA
ATOM     15  H2  UNL     1      36.533  -1.483  14.742  1.00  0.00     0.213 HD
ENDBRANCH   1  14
BRANCH   6  16
HETATM   16  N5  UNL     1      36.242  -2.480  13.014  1.00  0.00    -0.295 N 
ATOM     17  H5  UNL     1      35.939  -2.029  13.878  1.00  0.00     0.184 HD
BRANCH  16  18
HETATM   18  N6  UNL     1      35.440  -2.720  12.118  1.00  0.00    -0.252 N 
HETATM   19  N7  UNL     1      34.973  -2.748  10.970  1.00  0.00    -0.331 N 
ATOM     20  H72 UNL     1      35.743  -2.281  10.491  1.00  0.00     0.178 HD
ATOM     21  H71 UNL     1      34.306  -2.948  10.224  1.00  0.00     0.178 HD
ATOM     22  H6  UNL     1      34.696  -3.181  12.642  1.00  0.00     0.207 HD
ENDBRANCH  16  18
ENDBRANCH   6  16
BRANCH   2  23
HETATM   23  N1  UNL     1      40.441  -1.272  14.652  1.00  0.00    -0.065 N 
ATOM     24  H13 UNL     1      40.906  -0.414  14.947  1.00  0.00     0.275 HD
ATOM     25  H12 UNL     1      40.737  -1.893  15.405  1.00  0.00     0.275 HD
ATOM     26  H11 UNL     1      40.806  -1.591  13.755  1.00  0.00     0.275 HD
ENDBRANCH   2  23
BRANCH   3  27
HETATM   27  N2  UNL     1      37.279   0.046  13.364  1.00  0.00    -0.236 N 
ATOM     28  H2  UNL     1      36.775   0.102  14.249  1.00  0.00     0.190 HD
BRANCH  27  29
HETATM   29  N3  UNL     1      36.761   0.647  12.225  1.00  0.00    -0.041 N 
HETATM   30  O3  UNL     1      36.529   1.884  12.218  1.00  0.00    -0.517 OA
HETATM   31  O4  UNL     1      36.464  -0.010  11.054  1.00  0.00    -0.517 OA
ENDBRANCH  27  29
ENDBRANCH   3  27
BRANCH   3  32
HETATM   32  C5  UNL     1      39.550   0.280  12.754  1.00  0.00     0.228 C 
HETATM   33  O5  UNL     1      40.149  -0.016  11.696  1.00  0.00    -0.645 OA
HETATM   34  O6  UNL     1      39.893   1.490  13.333  1.00  0.00    -0.645 OA
ENDBRANCH   3  32
TORSDOF 9
ENDMDL
MODEL 3
REMARK VINA RESULT: -5.308297478      1.918      4.490
REMARK  9 active torsions:
REMARK  status: ('A' for Active; 'I' for Inactive)
REMARK    1  A    between atoms: O1_2  and  C2_3 
REMARK    2  A    between atoms: C2_3  and  O2_4 
REMARK    3  A    between atoms: C3_6  and  N1_7 
REMARK    4  A    between atoms: C4_11  and  N2_12 
REMARK    5  A    between atoms: C4_11  and  C5_17 
REMARK    6  A    between atoms: N2_12  and  N3_14 
REMARK    7  A    between atoms: C6_22  and  N5_23 
REMARK    8  A    between atoms: N5_23  and  N6_25 
REMARK    9  A    between atoms: C7_30  and  O7_31 
ROOT
HETATM    1  C2  UNL     1      38.290  -2.415  14.218  1.00  0.00     0.245 C 
HETATM    2  C3  UNL     1      38.833  -1.038  14.364  1.00  0.00     0.310 C 
HETATM    3  C4  UNL     1      38.307  -0.071  13.323  1.00  0.00     0.244 C 
HETATM    4  N4  UNL     1      38.413  -0.663  12.030  1.00  0.00    -0.360 N 
ATOM      5  H4  UNL     1      38.963  -0.236  11.285  1.00  0.00     0.158 HD
HETATM    6  C6  UNL     1      37.711  -1.880  11.841  1.00  0.00     0.252 C 
HETATM    7  C7  UNL     1      38.284  -2.911  12.792  1.00  0.00     0.244 C 
HETATM    8  C8  UNL     1      39.573  -3.428  12.351  1.00  0.00     0.108 C 
HETATM    9  N8  UNL     1      40.585  -3.856  11.999  1.00  0.00    -0.194 NA
ENDROOT
BRANCH   7  10
HETATM   10  O7  UNL     1      37.384  -4.002  12.756  1.00  0.00    -0.368 OA
ATOM     11  H7  UNL     1      37.893  -4.758  12.488  1.00  0.00     0.212 HD
ENDBRANCH   7  10
BRANCH   1  12
HETATM   12  O1  UNL     1      39.005  -3.317  14.970  1.00  0.00    -0.355 OA
HETATM   13  C1  UNL     1      38.526  -3.523  16.254  1.00  0.00     0.205 C 
ENDBRANCH   1  12
BRANCH   1  14
HETATM   14  O2  UNL     1      36.931  -2.381  14.599  1.00  0.00    -0.360 OA
ATOM     15  H2  UNL     1      36.479  -3.181  14.359  1.00  0.00     0.213 HD
ENDBRANCH   1  14
BRANCH   6  16
HETATM   16  N5  UNL     1      36.293  -1.833  12.093  1.00  0.00    -0.295 N 
ATOM     17  H5  UNL     1      35.922  -1.311  12.888  1.00  0.00     0.184 HD
BRANCH  16  18
HETATM   18  N6  UNL     1      35.541  -2.433  11.333  1.00  0.00    -0.252 N 
HETATM   19  N7  UNL     1      35.014  -3.400  10.763  1.00  0.00    -0.331 N 
ATOM     20  H72 UNL     1      35.544  -4.142  11.219  1.00  0.00     0.178 HD
ATOM     21  H71 UNL     1      34.388  -3.899  10.130  1.00  0.00     0.178 HD
ATOM     22  H6  UNL     1      35.038  -1.656  10.904  1.00  0.00     0.207 HD
ENDBRANCH  16  18
ENDBRANCH   6  16
BRANCH   2  23
HETATM   23  N1  UNL     1      40.277  -0.989  14.371  1.00  0.00    -0.065 N 
ATOM     24  H13 UNL     1      40.630  -0.845  15.317  1.00  0.00     0.275 HD
ATOM     25  H12 UNL     1      40.671  -1.910  14.181  1.00  0.00     0.275 HD
ATOM     26  H11 UNL     1      40.662  -0.292  13.732  1.00  0.00     0.275 HD
ENDBRANCH   2  23
BRANCH   3  27
HETATM   27  N2  UNL     1      36.948   0.346  13.642  1.00  0.00    -0.236 N 
ATOM     28  H2  UNL     1      36.436  -0.107  14.399  1.00  0.00     0.190 HD
BRANCH  27  29
HETATM   29  N3  UNL     1      36.356   1.365  12.908  1.00  0.00    -0.041 N 
HETATM   30  O3  UNL     1      36.396   1.339  11.650  1.00  0.00    -0.517 OA
HETATM   31  O4  UNL     1      35.702   2.447  13.450  1.00  0.00    -0.517 OA
ENDBRANCH  27  29
ENDBRANCH   3  27
BRANCH   3  32
HETATM   32  C5  UNL     1      39.156   1.139  13.358  1.00  0.00     0.228 C 
HETATM   33  O5  UNL     1      39.791   1.453  12.326  1.00  0.00    -0.645 OA
HETATM   34  O6  UNL     1      39.317   1.972  14.451  1.00  0.00    -0.645 OA
ENDBRANCH   3  32
TORSDOF 9
ENDMDL
MODEL 4
REMARK VINA RESULT: -5.183078725      1.582      4.663
REMARK  9 active torsions:
REMARK  status: ('A' for Active; 'I' for Inactive)
REMARK    1  A    between atoms: O1_2  and  C2_3 
REMARK    2  A    between atoms: C2_3  and  O2_4 
REMARK    3  A    between atoms: C3_6  and  N1_7 
REMARK    4  A    between atoms: C4_11  and  N2_12 
REMARK    5  A    between atoms: C4_11  and  C5_17 
REMARK    6  A    between atoms: N2_12  and  N3_14 
REMARK    7  A    between atoms: C6_22  and  N5_23 
REMARK    8  A    between atoms: N5_23  and  N6_25 
REMARK    9  A    between atoms: C7_30  and  O7_31 
ROOT
HETATM    1  C2  UNL     1      38.451  -2.505  15.563  1.00  0.00     0.245 C 
HETATM    2  C3  UNL     1      39.045  -1.392  14.774  1.00  0.00     0.310 C 
HETATM    3  C4  UNL     1      38.447  -1.253  13.389  1.00  0.00     0.244 C 
HETATM    4  N4  UNL     1      38.411  -2.532  12.758  1.00  0.00    -0.360 N 
ATOM      5  H4  UNL     1      38.898  -2.714  11.880  1.00  0.00     0.158 HD
HETATM    6  C6  UNL     1      37.660  -3.534  13.422  1.00  0.00     0.252 C 
HETATM    7  C7  UNL     1      38.293  -3.783  14.776  1.00  0.00     0.244 C 
HETATM    8  C8  UNL     1      39.519  -4.567  14.688  1.00  0.00     0.108 C 
HETATM    9  N8  UNL     1      40.480  -5.203  14.628  1.00  0.00    -0.194 NA
ENDROOT
BRANCH   7  10
HETATM   10  O7  UNL     1      37.364  -4.576  15.490  1.00  0.00    -0.368 OA
ATOM     11  H7  UNL     1      37.614  -4.519  16.404  1.00  0.00     0.212 HD
ENDBRANCH   7  10
BRANCH   1  12
HETATM   12  O1  UNL     1      39.210  -2.791  16.673  1.00  0.00    -0.355 OA
HETATM   13  C1  UNL     1      38.802  -2.167  17.842  1.00  0.00     0.205 C 
ENDBRANCH   1  12
BRANCH   1  14
HETATM   14  O2  UNL     1      37.137  -2.127  15.913  1.00  0.00    -0.360 OA
ATOM     15  H2  UNL     1      36.993  -1.197  15.781  1.00  0.00     0.213 HD
ENDBRANCH   1  14
BRANCH   6  16
HETATM   16  N5  UNL     1      36.275  -3.222  13.668  1.00  0.00    -0.295 N 
ATOM     17  H5  UNL     1      36.004  -2.654  14.471  1.00  0.00     0.184 HD
BRANCH  16  18
HETATM   18  N6  UNL     1      35.429  -3.653  12.892  1.00  0.00    -0.252 N 
HETATM   19  N7  UNL     1      34.875  -3.883  11.807  1.00  0.00    -0.331 N 
ATOM     20  H72 UNL     1      35.554  -3.426  11.199  1.00  0.00     0.178 HD
ATOM     21  H71 UNL     1      34.171  -4.242  11.162  1.00  0.00     0.178 HD
ATOM     22  H6  UNL     1      34.779  -4.096  13.541  1.00  0.00     0.207 HD
ENDBRANCH  16  18
ENDBRANCH   6  16
BRANCH   2  23
HETATM   23  N1  UNL     1      40.483  -1.469  14.665  1.00  0.00    -0.065 N 
ATOM     24  H13 UNL     1      40.878  -1.985  15.451  1.00  0.00     0.275 HD
ATOM     25  H12 UNL     1      40.755  -2.089  13.902  1.00  0.00     0.275 HD
ATOM     26  H11 UNL     1      40.932  -0.558  14.568  1.00  0.00     0.275 HD
ENDBRANCH   2  23
BRANCH   3  27
HETATM   27  N2  UNL     1      37.138  -0.617  13.449  1.00  0.00    -0.236 N 
ATOM     28  H2  UNL     1      36.665  -0.501  14.345  1.00  0.00     0.190 HD
BRANCH  27  29
HETATM   29  N3  UNL     1      36.540  -0.171  12.279  1.00  0.00    -0.041 N 
HETATM   30  O3  UNL     1      36.055  -1.000  11.465  1.00  0.00    -0.517 OA
HETATM   31  O4  UNL     1      36.423   1.148  11.908  1.00  0.00    -0.517 OA
ENDBRANCH  27  29
ENDBRANCH   3  27
BRANCH   3  32
HETATM   32  C5  UNL     1      39.330  -0.365  12.602  1.00  0.00     0.228 C 
HETATM   33  O5  UNL     1      39.830  -0.806  11.543  1.00  0.00    -0.645 OA
HETATM   34  O6  UNL     1      39.660   0.937  12.937  1.00  0.00    -0.645 OA
ENDBRANCH   3  32
TORSDOF 9
ENDMDL
MODEL 5
REMARK VINA RESULT: -5.137071333      2.085      4.309
REMARK  9 active torsions:
REMARK  status: ('A' for Active; 'I' for Inactive)
REMARK    1  A    between atoms: O1_2  and  C2_3 
REMARK    2  A    between atoms: C2_3  and  O2_4 
REMARK    3  A    between atoms: C3_6  and  N1_7 
REMARK    4  A    between atoms: C4_11  and  N2_12 
REMARK    5  A    between atoms: C4_11  and  C5_17 
REMARK    6  A    between atoms: N2_12  and  N3_14 
REMARK    7  A    between atoms: C6_22  and  N5_23 
REMARK    8  A    between atoms: N5_23  and  N6_25 
REMARK    9  A    between atoms: C7_30  and  O7_31 
ROOT
HETATM    1  C2  UNL     1      39.161  -2.951  13.986  1.00  0.00     0.245 C 
HETATM    2  C3  UNL     1      38.250  -4.023  13.502  1.00  0.00     0.310 C 
HETATM    3  C4  UNL     1      36.901  -3.505  13.048  1.00  0.00     0.244 C 
HETATM    4  N4  UNL     1      36.375  -2.623  14.038  1.00  0.00    -0.360 N 
ATOM      5  H4  UNL     1      35.484  -2.801  14.501  1.00  0.00     0.158 HD
HETATM    6  C6  UNL     1      37.163  -1.484  14.340  1.00  0.00     0.252 C 
HETATM    7  C7  UNL     1      38.487  -1.958  14.903  1.00  0.00     0.244 C 
HETATM    8  C8  UNL     1      38.379  -2.419  16.281  1.00  0.00     0.108 C 
HETATM    9  N8  UNL     1      38.306  -2.768  17.378  1.00  0.00    -0.194 NA
ENDROOT
BRANCH   7  10
HETATM   10  O7  UNL     1      39.320  -0.815  14.929  1.00  0.00    -0.368 OA
ATOM     11  H7  UNL     1      40.162  -1.091  14.586  1.00  0.00     0.212 HD
ENDBRANCH   7  10
BRANCH   1  12
HETATM   12  O1  UNL     1      40.237  -3.476  14.661  1.00  0.00    -0.355 OA
HETATM   13  C1  UNL     1      41.413  -3.546  13.931  1.00  0.00     0.205 C 
ENDBRANCH   1  12
BRANCH   1  14
HETATM   14  O2  UNL     1      39.566  -2.196  12.865  1.00  0.00    -0.360 OA
ATOM     15  H2  UNL     1      38.894  -2.176  12.194  1.00  0.00     0.213 HD
ENDBRANCH   1  14
BRANCH   6  16
HETATM   16  N5  UNL     1      37.475  -0.622  13.227  1.00  0.00    -0.295 N 
ATOM     17  H5  UNL     1      38.174  -0.896  12.537  1.00  0.00     0.184 HD
BRANCH  16  18
HETATM   18  N6  UNL     1      36.882   0.447  13.128  1.00  0.00    -0.252 N 
HETATM   19  N7  UNL     1      35.923   1.233  13.112  1.00  0.00    -0.331 N 
ATOM     20  H72 UNL     1      35.181   0.558  13.298  1.00  0.00     0.178 HD
ATOM     21  H71 UNL     1      35.430   2.122  13.029  1.00  0.00     0.178 HD
ATOM     22  H6  UNL     1      37.657   1.082  12.943  1.00  0.00     0.207 HD
ENDBRANCH  16  18
ENDBRANCH   6  16
BRANCH   2  23
HETATM   23  N1  UNL     1      38.053  -5.085  14.462  1.00  0.00    -0.065 N 
ATOM     24  H13 UNL     1      38.791  -5.784  14.384  1.00  0.00     0.275 HD
ATOM     25  H12 UNL     1      38.231  -4.754  15.409  1.00  0.00     0.275 HD
ATOM     26  H11 UNL     1      37.133  -5.523  14.398  1.00  0.00     0.275 HD
ENDBRANCH   2  23
BRANCH   3  27
HETATM   27  N2  UNL     1      36.998  -2.884  11.734  1.00  0.00    -0.236 N 
ATOM     28  H2  UNL     1      37.909  -2.745  11.298  1.00  0.00     0.190 HD
BRANCH  27  29
HETATM   29  N3  UNL     1      35.841  -2.484  11.080  1.00  0.00    -0.041 N 
HETATM   30  O3  UNL     1      35.304  -1.383  11.367  1.00  0.00    -0.517 OA
HETATM   31  O4  UNL     1      35.197  -3.211  10.105  1.00  0.00    -0.517 OA
ENDBRANCH  27  29
ENDBRANCH   3  27
BRANCH   3  32
HETATM   32  C5  UNL     1      35.990  -4.663  12.920  1.00  0.00     0.228 C 
HETATM   33  O5  UNL     1      34.891  -4.628  13.517  1.00  0.00    -0.645 OA
HETATM   34  O6  UNL     1      36.250  -5.807  12.184  1.00  0.00    -0.645 OA
ENDBRANCH   3  32
TORSDOF 9
ENDMDL
