MODEL 1
REMARK VINA RESULT: -6.362145139      0.000      0.000
REMARK  7 active torsions:
REMARK  status: ('A' for Active; 'I' for Inactive)
REMARK    1  A    between atoms: N1_2  and  N2_3 
REMARK    2  A    between atoms: N1_2  and  S1_6 
REMARK    3  A    between atoms: N2_3  and  O1_4 
REMARK    4  A    between atoms: S1_6  and  N3_9 
REMARK    5  A    between atoms: C2_10  and  N4_11 
REMARK    6  A    between atoms: C3_16  and  N6_17 
REMARK    7  A    between atoms: C8_27  and  N9_28 
ROOT
HETATM    1  N3  UNL     1      34.910  -7.062  12.169  1.00  0.00     0.118 N 
HETATM    2  C2  UNL     1      36.207  -6.787  12.398  1.00  0.00     0.722 A 
HETATM    3  N5  UNL     1      36.646  -5.532  12.260  1.00  0.00    -0.020 N 
ATOM      4  H5  UNL     1      37.634  -5.348  12.439  1.00  0.00     0.203 HD
HETATM    5  C3  UNL     1      35.867  -4.499  11.899  1.00  0.00     0.709 A 
HETATM    6  N8  UNL     1      34.564  -4.804  11.673  1.00  0.00    -0.020 N 
ATOM      7  H8  UNL     1      33.921  -4.062  11.396  1.00  0.00     0.203 HD
HETATM    8  C8  UNL     1      34.103  -6.052  11.806  1.00  0.00     0.722 A 
ENDROOT
BRANCH   1   9
HETATM    9  S1  UNL     1      34.241  -8.627  12.317  1.00  0.00     0.354 S 
HETATM   10  O2  UNL     1      35.342  -9.624  12.520  1.00  0.00    -0.185 OA
HETATM   11  O3  UNL     1      33.311  -8.715  13.520  1.00  0.00    -0.185 OA
BRANCH   9  12
HETATM   12  N1  UNL     1      33.302  -9.079  10.947  1.00  0.00    -0.084 NA
HETATM   13  C1  UNL     1      34.241  -9.600   9.948  1.00  0.00     0.155 C 
BRANCH  12  14
HETATM   14  N2  UNL     1      32.459 -10.157  11.271  1.00  0.00     0.008 NA
BRANCH  14  15
HETATM   15  O1  UNL     1      31.348 -10.175  10.528  1.00  0.00    -0.280 OA
ATOM     16  H1  UNL     1      31.060 -11.059  10.330  1.00  0.00     0.240 HD
ENDBRANCH  14  15
ENDBRANCH  12  14
ENDBRANCH   9  12
ENDBRANCH   1   9
BRANCH   2  17
HETATM   17  N4  UNL     1      36.985  -7.727  12.742  1.00  0.00    -0.232 N 
ATOM     18  H42 UNL     1      36.672  -8.698  12.759  1.00  0.00     0.174 HD
ATOM     19  H41 UNL     1      37.945  -7.505  13.006  1.00  0.00     0.174 HD
ENDBRANCH   2  17
BRANCH   8  20
HETATM   20  N9  UNL     1      32.832  -6.280  11.574  1.00  0.00    -0.232 N 
ATOM     21  H92 UNL     1      32.544  -7.226  11.324  1.00  0.00     0.174 HD
ATOM     22  H91 UNL     1      32.157  -5.520  11.647  1.00  0.00     0.174 HD
ENDBRANCH   8  20
BRANCH   5  23
HETATM   23  N6  UNL     1      36.367  -3.185  11.761  1.00  0.00    -0.213 N 
HETATM   24  C4  UNL     1      37.623  -2.775  12.328  1.00  0.00     0.168 C 
HETATM   25  C5  UNL     1      37.585  -1.376  12.879  1.00  0.00     0.252 C 
HETATM   26  N7  UNL     1      36.891  -0.459  11.983  1.00  0.00    -0.072 N 
HETATM   27  C6  UNL     1      35.527  -0.943  11.845  1.00  0.00     0.252 C 
ATOM     28  H72 UNL     1      36.942   0.514  12.289  1.00  0.00     0.277 HD
ATOM     29  H71 UNL     1      37.365  -0.339  11.087  1.00  0.00     0.277 HD
HETATM   30  C7  UNL     1      35.585  -2.215  11.025  1.00  0.00     0.168 C 
ENDBRANCH   5  23
TORSDOF 7
ENDMDL
MODEL 2
REMARK VINA RESULT: -6.229123490      1.307      2.521
REMARK  7 active torsions:
REMARK  status: ('A' for Active; 'I' for Inactive)
REMARK    1  A    between atoms: N1_2  and  N2_3 
REMARK    2  A    between atoms: N1_2  and  S1_6 
REMARK    3  A    between atoms: N2_3  and  O1_4 
REMARK    4  A    between atoms: S1_6  and  N3_9 
REMARK    5  A    between atoms: C2_10  and  N4_11 
REMARK    6  A    between atoms: C3_16  and  N6_17 
REMARK    7  A    between atoms: C8_27  and  N9_28 
ROOT
HETATM    1  N3  UNL     1      35.474  -6.676  11.876  1.00  0.00     0.118 N 
HETATM    2  C2  UNL     1      34.446  -5.810  11.833  1.00  0.00     0.722 A 
HETATM    3  N5  UNL     1      34.661  -4.521  12.113  1.00  0.00    -0.020 N 
ATOM      4  H5  UNL     1      33.865  -3.882  12.075  1.00  0.00     0.203 HD
HETATM    5  C3  UNL     1      35.860  -4.014  12.443  1.00  0.00     0.709 A 
HETATM    6  N8  UNL     1      36.880  -4.909  12.478  1.00  0.00    -0.020 N 
ATOM      7  H8  UNL     1      37.816  -4.586  12.722  1.00  0.00     0.203 HD
HETATM    8  C8  UNL     1      36.687  -6.203  12.201  1.00  0.00     0.722 A 
ENDROOT
BRANCH   1   9
HETATM    9  S1  UNL     1      35.313  -8.343  11.535  1.00  0.00     0.354 S 
HETATM   10  O2  UNL     1      35.975  -8.651  10.226  1.00  0.00    -0.185 OA
HETATM   11  O3  UNL     1      35.991  -9.189  12.606  1.00  0.00    -0.185 OA
BRANCH   9  12
HETATM   12  N1  UNL     1      33.670  -8.854  11.484  1.00  0.00    -0.084 NA
HETATM   13  C1  UNL     1      33.602  -9.945  10.506  1.00  0.00     0.155 C 
BRANCH  12  14
HETATM   14  N2  UNL     1      33.302  -9.425  12.714  1.00  0.00     0.008 NA
BRANCH  14  15
HETATM   15  O1  UNL     1      33.302  -8.534  13.710  1.00  0.00    -0.280 OA
ATOM     16  H1  UNL     1      33.063  -8.922  14.543  1.00  0.00     0.240 HD
ENDBRANCH  14  15
ENDBRANCH  12  14
ENDBRANCH   9  12
ENDBRANCH   1   9
BRANCH   2  17
HETATM   17  N4  UNL     1      33.291  -6.237  11.527  1.00  0.00    -0.232 N 
ATOM     18  H42 UNL     1      33.036  -7.217  11.654  1.00  0.00     0.174 HD
ATOM     19  H41 UNL     1      32.606  -5.585  11.145  1.00  0.00     0.174 HD
ENDBRANCH   2  17
BRANCH   8  20
HETATM   20  N9  UNL     1      37.715  -7.016  12.253  1.00  0.00    -0.232 N 
ATOM     21  H92 UNL     1      37.702  -7.856  11.675  1.00  0.00     0.174 HD
ATOM     22  H91 UNL     1      38.504  -6.801  12.862  1.00  0.00     0.174 HD
ENDBRANCH   8  20
BRANCH   5  23
HETATM   23  N6  UNL     1      36.051  -2.644  12.734  1.00  0.00    -0.213 N 
HETATM   24  C4  UNL     1      35.505  -1.599  11.910  1.00  0.00     0.168 C 
HETATM   25  C5  UNL     1      36.434  -0.424  11.770  1.00  0.00     0.252 C 
HETATM   26  N7  UNL     1      37.048  -0.063  13.041  1.00  0.00    -0.072 N 
HETATM   27  C6  UNL     1      37.817  -1.213  13.490  1.00  0.00     0.252 C 
ATOM     28  H72 UNL     1      37.603   0.792  12.988  1.00  0.00     0.277 HD
ATOM     29  H71 UNL     1      36.373   0.262  13.734  1.00  0.00     0.277 HD
HETATM   30  C7  UNL     1      36.823  -2.280  13.901  1.00  0.00     0.168 C 
ENDBRANCH   5  23
TORSDOF 7
ENDMDL
MODEL 3
REMARK VINA RESULT: -6.185643108      1.241      1.810
REMARK  7 active torsions:
REMARK  status: ('A' for Active; 'I' for Inactive)
REMARK    1  A    between atoms: N1_2  and  N2_3 
REMARK    2  A    between atoms: N1_2  and  S1_6 
REMARK    3  A    between atoms: N2_3  and  O1_4 
REMARK    4  A    between atoms: S1_6  and  N3_9 
REMARK    5  A    between atoms: C2_10  and  N4_11 
REMARK    6  A    between atoms: C3_16  and  N6_17 
REMARK    7  A    between atoms: C8_27  and  N9_28 
ROOT
HETATM    1  N3  UNL     1      35.396  -6.948  11.735  1.00  0.00     0.118 N 
HETATM    2  C2  UNL     1      36.599  -6.439  12.057  1.00  0.00     0.722 A 
HETATM    3  N5  UNL     1      36.717  -5.129  12.293  1.00  0.00    -0.020 N 
ATOM      4  H5  UNL     1      37.640  -4.766  12.535  1.00  0.00     0.203 HD
HETATM    5  C3  UNL     1      35.695  -4.260  12.230  1.00  0.00     0.709 A 
HETATM    6  N8  UNL     1      34.493  -4.798  11.904  1.00  0.00    -0.020 N 
ATOM      7  H8  UNL     1      33.676  -4.189  11.840  1.00  0.00     0.203 HD
HETATM    8  C8  UNL     1      34.352  -6.106  11.664  1.00  0.00     0.722 A 
ENDROOT
BRANCH   1   9
HETATM    9  S1  UNL     1      35.131  -8.605  11.415  1.00  0.00     0.354 S 
HETATM   10  O2  UNL     1      35.603  -8.927  10.030  1.00  0.00    -0.185 OA
HETATM   11  O3  UNL     1      35.911  -9.482  12.386  1.00  0.00    -0.185 OA
BRANCH   9  12
HETATM   12  N1  UNL     1      33.478  -9.056  11.579  1.00  0.00    -0.084 NA
HETATM   13  C1  UNL     1      33.255 -10.172  10.655  1.00  0.00     0.155 C 
BRANCH  12  14
HETATM   14  N2  UNL     1      33.242  -9.575  12.863  1.00  0.00     0.008 NA
BRANCH  14  15
HETATM   15  O1  UNL     1      33.302  -8.635  13.812  1.00  0.00    -0.280 OA
ATOM     16  H1  UNL     1      33.980  -8.811  14.453  1.00  0.00     0.240 HD
ENDBRANCH  14  15
ENDBRANCH  12  14
ENDBRANCH   9  12
ENDBRANCH   1   9
BRANCH   2  17
HETATM   17  N4  UNL     1      37.598  -7.218  12.130  1.00  0.00    -0.232 N 
ATOM     18  H42 UNL     1      38.028  -7.450  13.026  1.00  0.00     0.174 HD
ATOM     19  H41 UNL     1      37.977  -7.619  11.272  1.00  0.00     0.174 HD
ENDBRANCH   2  17
BRANCH   8  20
HETATM   20  N9  UNL     1      33.163  -6.563  11.354  1.00  0.00    -0.232 N 
ATOM     21  H92 UNL     1      32.805  -6.396  10.413  1.00  0.00     0.174 HD
ATOM     22  H91 UNL     1      32.617  -7.075  12.047  1.00  0.00     0.174 HD
ENDBRANCH   8  20
BRANCH   5  23
HETATM   23  N6  UNL     1      35.856  -2.879  12.486  1.00  0.00    -0.213 N 
HETATM   24  C4  UNL     1      35.414  -1.869  11.564  1.00  0.00     0.168 C 
HETATM   25  C5  UNL     1      36.358  -0.700  11.484  1.00  0.00     0.252 C 
HETATM   26  N7  UNL     1      36.823  -0.287  12.803  1.00  0.00    -0.072 N 
HETATM   27  C6  UNL     1      37.529  -1.418  13.383  1.00  0.00     0.252 C 
ATOM     28  H72 UNL     1      37.383   0.566  12.780  1.00  0.00     0.277 HD
ATOM     29  H71 UNL     1      36.073   0.065  13.399  1.00  0.00     0.277 HD
HETATM   30  C7  UNL     1      36.490  -2.468  13.719  1.00  0.00     0.168 C 
ENDBRANCH   5  23
TORSDOF 7
ENDMDL
MODEL 4
REMARK VINA RESULT: -6.141167529      0.684      1.853
REMARK  7 active torsions:
REMARK  status: ('A' for Active; 'I' for Inactive)
REMARK    1  A    between atoms: N1_2  and  N2_3 
REMARK    2  A    between atoms: N1_2  and  S1_6 
REMARK    3  A    between atoms: N2_3  and  O1_4 
REMARK    4  A    between atoms: S1_6  and  N3_9 
REMARK    5  A    between atoms: C2_10  and  N4_11 
REMARK    6  A    between atoms: C3_16  and  N6_17 
REMARK    7  A    between atoms: C8_27  and  N9_28 
ROOT
HETATM    1  N3  UNL     1      34.798  -7.056  12.403  1.00  0.00     0.118 N 
HETATM    2  C2  UNL     1      34.009  -6.094  11.892  1.00  0.00     0.722 A 
HETATM    3  N5  UNL     1      34.528  -4.891  11.626  1.00  0.00    -0.020 N 
ATOM      4  H5  UNL     1      33.910  -4.177  11.240  1.00  0.00     0.203 HD
HETATM    5  C3  UNL     1      35.814  -4.565  11.836  1.00  0.00     0.709 A 
HETATM    6  N8  UNL     1      36.588  -5.554  12.351  1.00  0.00    -0.020 N 
ATOM      7  H8  UNL     1      37.575  -5.369  12.534  1.00  0.00     0.203 HD
HETATM    8  C8  UNL     1      36.090  -6.764  12.625  1.00  0.00     0.722 A 
ENDROOT
BRANCH   1   9
HETATM    9  S1  UNL     1      34.241  -8.627  12.779  1.00  0.00     0.354 S 
HETATM   10  O2  UNL     1      35.414  -9.531  13.010  1.00  0.00    -0.185 OA
HETATM   11  O3  UNL     1      33.404  -8.621  14.052  1.00  0.00    -0.185 OA
BRANCH   9  12
HETATM   12  N1  UNL     1      33.239  -9.289  11.546  1.00  0.00    -0.084 NA
HETATM   13  C1  UNL     1      34.061  -9.363  10.334  1.00  0.00     0.155 C 
BRANCH  12  14
HETATM   14  N2  UNL     1      32.901 -10.617  11.856  1.00  0.00     0.008 NA
BRANCH  14  15
HETATM   15  O1  UNL     1      32.038 -10.699  12.873  1.00  0.00    -0.280 OA
ATOM     16  H1  UNL     1      32.474 -10.807  13.710  1.00  0.00     0.240 HD
ENDBRANCH  14  15
ENDBRANCH  12  14
ENDBRANCH   9  12
ENDBRANCH   1   9
BRANCH   2  17
HETATM   17  N4  UNL     1      32.786  -6.350  11.675  1.00  0.00    -0.232 N 
ATOM     18  H42 UNL     1      32.445  -6.564  10.737  1.00  0.00     0.174 HD
ATOM     19  H41 UNL     1      32.131  -6.342  12.457  1.00  0.00     0.174 HD
ENDBRANCH   2  17
BRANCH   8  20
HETATM   20  N9  UNL     1      36.891  -7.676  13.121  1.00  0.00    -0.232 N 
ATOM     21  H92 UNL     1      36.511  -8.352  13.784  1.00  0.00     0.174 HD
ATOM     22  H91 UNL     1      37.872  -7.698  12.842  1.00  0.00     0.174 HD
ENDBRANCH   8  20
BRANCH   5  23
HETATM   23  N6  UNL     1      36.329  -3.283  11.543  1.00  0.00    -0.213 N 
HETATM   24  C4  UNL     1      37.693  -2.919  11.817  1.00  0.00     0.168 C 
HETATM   25  C5  UNL     1      37.832  -1.503  12.304  1.00  0.00     0.252 C 
HETATM   26  N7  UNL     1      37.004  -0.581  11.536  1.00  0.00    -0.072 N 
HETATM   27  C6  UNL     1      35.622  -1.000  11.707  1.00  0.00     0.252 C 
ATOM     28  H72 UNL     1      37.160   0.397  11.784  1.00  0.00     0.277 HD
ATOM     29  H71 UNL     1      37.283  -0.514  10.557  1.00  0.00     0.277 HD
HETATM   30  C7  UNL     1      35.452  -2.299  10.947  1.00  0.00     0.168 C 
ENDBRANCH   5  23
TORSDOF 7
ENDMDL
MODEL 5
REMARK VINA RESULT: -6.140327158      6.514      9.574
REMARK  7 active torsions:
REMARK  status: ('A' for Active; 'I' for Inactive)
REMARK    1  A    between atoms: N1_2  and  N2_3 
REMARK    2  A    between atoms: N1_2  and  S1_6 
REMARK    3  A    between atoms: N2_3  and  O1_4 
REMARK    4  A    between atoms: S1_6  and  N3_9 
REMARK    5  A    between atoms: C2_10  and  N4_11 
REMARK    6  A    between atoms: C3_16  and  N6_17 
REMARK    7  A    between atoms: C8_27  and  N9_28 
ROOT
HETATM    1  N3  UNL     1      38.163   1.240  12.560  1.00  0.00     0.118 N 
HETATM    2  C2  UNL     1      39.047   0.307  12.163  1.00  0.00     0.722 A 
HETATM    3  N5  UNL     1      38.637  -0.952  11.983  1.00  0.00    -0.020 N 
ATOM      4  H5  UNL     1      39.326  -1.642  11.681  1.00  0.00     0.203 HD
HETATM    5  C3  UNL     1      37.373  -1.365  12.174  1.00  0.00     0.709 A 
HETATM    6  N8  UNL     1      36.502  -0.405  12.574  1.00  0.00    -0.020 N 
ATOM      7  H8  UNL     1      35.526  -0.655  12.737  1.00  0.00     0.203 HD
HETATM    8  C8  UNL     1      36.890   0.861  12.760  1.00  0.00     0.722 A 
ENDROOT
BRANCH   1   9
HETATM    9  S1  UNL     1      38.577   2.877  12.820  1.00  0.00     0.354 S 
HETATM   10  O2  UNL     1      40.045   3.065  12.582  1.00  0.00    -0.185 OA
HETATM   11  O3  UNL     1      37.832   3.791  11.855  1.00  0.00    -0.185 OA
BRANCH   9  12
HETATM   12  N1  UNL     1      38.176   3.419  14.404  1.00  0.00    -0.084 NA
HETATM   13  C1  UNL     1      39.440   3.785  15.053  1.00  0.00     0.155 C 
BRANCH  12  14
HETATM   14  N2  UNL     1      37.429   4.607  14.335  1.00  0.00     0.008 NA
BRANCH  14  15
HETATM   15  O1  UNL     1      36.136   4.382  14.084  1.00  0.00    -0.280 OA
ATOM     16  H1  UNL     1      35.596   5.145  14.252  1.00  0.00     0.240 HD
ENDBRANCH  14  15
ENDBRANCH  12  14
ENDBRANCH   9  12
ENDBRANCH   1   9
BRANCH   2  17
HETATM   17  N4  UNL     1      40.254   0.645  11.968  1.00  0.00    -0.232 N 
ATOM     18  H42 UNL     1      40.837   0.998  12.727  1.00  0.00     0.174 HD
ATOM     19  H41 UNL     1      40.647   0.561  11.031  1.00  0.00     0.174 HD
ENDBRANCH   2  17
BRANCH   8  20
HETATM   20  N9  UNL     1      35.998   1.741  13.147  1.00  0.00    -0.232 N 
ATOM     21  H92 UNL     1      36.014   2.670  12.725  1.00  0.00     0.174 HD
ATOM     22  H91 UNL     1      35.310   1.490  13.856  1.00  0.00     0.174 HD
ENDBRANCH   8  20
BRANCH   5  23
HETATM   23  N6  UNL     1      36.975  -2.706  11.974  1.00  0.00    -0.213 N 
HETATM   24  C4  UNL     1      35.705  -3.054  11.396  1.00  0.00     0.168 C 
HETATM   25  C5  UNL     1      35.088  -4.268  12.035  1.00  0.00     0.252 C 
HETATM   26  N7  UNL     1      36.068  -5.324  12.255  1.00  0.00    -0.072 N 
HETATM   27  C6  UNL     1      37.082  -4.790  13.150  1.00  0.00     0.252 C 
ATOM     28  H72 UNL     1      35.651  -6.192  12.594  1.00  0.00     0.277 HD
ATOM     29  H71 UNL     1      36.457  -5.696  11.388  1.00  0.00     0.277 HD
HETATM   30  C7  UNL     1      37.877  -3.767  12.365  1.00  0.00     0.168 C 
ENDBRANCH   5  23
TORSDOF 7
ENDMDL
