MODEL 1
REMARK VINA RESULT: -6.042190311      0.000      0.000
REMARK  5 active torsions:
REMARK  status: ('A' for Active; 'I' for Inactive)
REMARK    1  A    between atoms: C2_5  and  N3_6 
REMARK       I    between atoms: N3_6  and  C3_8 
REMARK    2  A    between atoms: C3_8  and  C4_10 
REMARK    3  A    between atoms: C5_17  and  C6_18 
REMARK    4  A    between atoms: C6_18  and  N7_19 
REMARK    5  A    between atoms: N7_19  and  S1_21 
ROOT
HETATM    1  C4  UNL     1      36.133  -2.282  12.253  1.00  0.00     0.143 A 
HETATM    2  N4  UNL     1      35.763  -0.989  12.481  1.00  0.00    -0.279 N 
ATOM      3  H4  UNL     1      34.845  -0.605  12.257  1.00  0.00     0.189 HD
HETATM    4  N5  UNL     1      36.734  -0.307  13.021  1.00  0.00    -0.242 N 
ATOM      5  H5  UNL     1      36.712   0.677  13.287  1.00  0.00     0.208 HD
HETATM    6  N6  UNL     1      37.747  -1.136  13.155  1.00  0.00    -0.286 N 
ATOM      7  H6  UNL     1      38.653  -0.884  13.553  1.00  0.00     0.188 HD
HETATM    8  C5  UNL     1      37.432  -2.353  12.702  1.00  0.00     0.079 A 
ENDROOT
BRANCH   1   9
HETATM    9  C3  UNL     1      35.302  -3.312  11.666  1.00  0.00     0.274 C 
HETATM   10  N3  UNL     1      34.860  -4.393  12.440  1.00  0.00    -0.318 N 
ATOM     11  H3  UNL     1      35.131  -4.448  13.421  1.00  0.00     0.166 HD
HETATM   12  O1  UNL     1      34.983  -3.224  10.463  1.00  0.00    -0.266 OA
BRANCH  10  13
HETATM   13  C2  UNL     1      34.021  -5.445  11.873  1.00  0.00     0.294 A 
HETATM   14  N2  UNL     1      33.780  -6.452  12.854  1.00  0.00    -0.327 N 
HETATM   15  C1  UNL     1      33.994  -7.689  12.777  1.00  0.00     0.192 A 
ATOM     16  H2  UNL     1      33.383  -6.126  13.734  1.00  0.00     0.166 HD
HETATM   17  N1  UNL     1      33.702  -8.589  13.850  1.00  0.00    -0.063 NA
HETATM   18  N9  UNL     1      34.551  -8.188  11.558  1.00  0.00    -0.327 N 
HETATM   19  C7  UNL     1      34.811  -7.233  10.545  1.00  0.00     0.181 A 
ATOM     20  H9  UNL     1      34.751  -9.180  11.426  1.00  0.00     0.169 HD
HETATM   21  N8  UNL     1      34.575  -5.989  10.679  1.00  0.00    -0.348 N 
ATOM     22  H8  UNL     1      34.790  -5.360   9.905  1.00  0.00     0.164 HD
ENDBRANCH  10  13
ENDBRANCH   1   9
BRANCH   8  23
HETATM   23  C6  UNL     1      38.285  -3.541  12.678  1.00  0.00     0.195 C 
BRANCH  23  24
HETATM   24  N7  UNL     1      38.246  -4.187  13.999  1.00  0.00    -0.295 N 
ATOM     25  H7  UNL     1      38.514  -3.739  14.875  1.00  0.00     0.175 HD
BRANCH  24  26
HETATM   26  S1  UNL     1      37.682  -5.812  13.855  1.00  0.00     0.204 S 
HETATM   27  O2  UNL     1      37.412  -6.112  12.390  1.00  0.00    -0.578 OA
HETATM   28  O3  UNL     1      36.385  -6.020  14.605  1.00  0.00    -0.578 OA
HETATM   29  O4  UNL     1      38.781  -6.916  14.456  1.00  0.00    -0.578 OA
ENDBRANCH  24  26
ENDBRANCH  23  24
ENDBRANCH   8  23
TORSDOF 5
ENDMDL
MODEL 2
REMARK VINA RESULT: -5.987575633      3.811      4.899
REMARK  5 active torsions:
REMARK  status: ('A' for Active; 'I' for Inactive)
REMARK    1  A    between atoms: C2_5  and  N3_6 
REMARK       I    between atoms: N3_6  and  C3_8 
REMARK    2  A    between atoms: C3_8  and  C4_10 
REMARK    3  A    between atoms: C5_17  and  C6_18 
REMARK    4  A    between atoms: C6_18  and  N7_19 
REMARK    5  A    between atoms: N7_19  and  S1_21 
ROOT
HETATM    1  C4  UNL     1      37.950  -2.226  12.171  1.00  0.00     0.143 A 
HETATM    2  N4  UNL     1      39.012  -2.796  11.532  1.00  0.00    -0.279 N 
ATOM      3  H4  UNL     1      39.182  -3.800  11.481  1.00  0.00     0.189 HD
HETATM    4  N5  UNL     1      39.782  -1.891  10.996  1.00  0.00    -0.242 N 
ATOM      5  H5  UNL     1      40.638  -2.056  10.466  1.00  0.00     0.208 HD
HETATM    6  N6  UNL     1      39.241  -0.724  11.271  1.00  0.00    -0.286 N 
ATOM      7  H6  UNL     1      39.624   0.176  10.978  1.00  0.00     0.188 HD
HETATM    8  C5  UNL     1      38.122  -0.873  11.986  1.00  0.00     0.079 A 
ENDROOT
BRANCH   1   9
HETATM    9  C3  UNL     1      36.901  -2.935  12.872  1.00  0.00     0.274 C 
HETATM   10  N3  UNL     1      36.047  -3.804  12.181  1.00  0.00    -0.318 N 
ATOM     11  H3  UNL     1      36.172  -3.932  11.177  1.00  0.00     0.166 HD
HETATM   12  O1  UNL     1      36.768  -2.764  14.101  1.00  0.00    -0.266 OA
BRANCH  10  13
HETATM   13  C2  UNL     1      34.981  -4.532  12.865  1.00  0.00     0.294 A 
HETATM   14  N2  UNL     1      35.547  -5.493  13.755  1.00  0.00    -0.327 N 
HETATM   15  C1  UNL     1      35.334  -6.730  13.810  1.00  0.00     0.192 A 
ATOM     16  H2  UNL     1      36.212  -5.127  14.436  1.00  0.00     0.166 HD
HETATM   17  N1  UNL     1      35.978  -7.582  14.763  1.00  0.00    -0.063 NA
HETATM   18  N9  UNL     1      34.406  -7.283  12.872  1.00  0.00    -0.327 N 
HETATM   19  C7  UNL     1      33.811  -6.375  11.962  1.00  0.00     0.181 A 
ATOM     20  H9  UNL     1      34.185  -8.279  12.859  1.00  0.00     0.169 HD
HETATM   21  N8  UNL     1      34.066  -5.128  11.952  1.00  0.00    -0.348 N 
ATOM     22  H8  UNL     1      33.599  -4.535  11.266  1.00  0.00     0.164 HD
ENDBRANCH  10  13
ENDBRANCH   1   9
BRANCH   8  23
HETATM   23  C6  UNL     1      37.238   0.181  12.483  1.00  0.00     0.195 C 
BRANCH  23  24
HETATM   24  N7  UNL     1      38.016   1.418  12.658  1.00  0.00    -0.295 N 
ATOM     25  H7  UNL     1      39.029   1.485  12.573  1.00  0.00     0.175 HD
BRANCH  24  26
HETATM   26  S1  UNL     1      36.968   2.738  13.027  1.00  0.00     0.204 S 
HETATM   27  O2  UNL     1      35.615   2.189  13.453  1.00  0.00    -0.578 OA
HETATM   28  O3  UNL     1      36.736   3.620  11.820  1.00  0.00    -0.578 OA
HETATM   29  O4  UNL     1      37.580   3.710  14.238  1.00  0.00    -0.578 OA
ENDBRANCH  24  26
ENDBRANCH  23  24
ENDBRANCH   8  23
TORSDOF 5
ENDMDL
MODEL 3
REMARK VINA RESULT: -5.983060130      4.387      6.406
REMARK  5 active torsions:
REMARK  status: ('A' for Active; 'I' for Inactive)
REMARK    1  A    between atoms: C2_5  and  N3_6 
REMARK       I    between atoms: N3_6  and  C3_8 
REMARK    2  A    between atoms: C3_8  and  C4_10 
REMARK    3  A    between atoms: C5_17  and  C6_18 
REMARK    4  A    between atoms: C6_18  and  N7_19 
REMARK    5  A    between atoms: N7_19  and  S1_21 
ROOT
HETATM    1  C4  UNL     1      40.776   0.687  11.654  1.00  0.00     0.143 A 
HETATM    2  N4  UNL     1      41.732   0.828  10.691  1.00  0.00    -0.279 N 
ATOM      3  H4  UNL     1      42.131   0.055  10.158  1.00  0.00     0.189 HD
HETATM    4  N5  UNL     1      42.071   2.078  10.541  1.00  0.00    -0.242 N 
ATOM      5  H5  UNL     1      42.763   2.447   9.889  1.00  0.00     0.208 HD
HETATM    6  N6  UNL     1      41.347   2.770  11.395  1.00  0.00    -0.286 N 
ATOM      7  H6  UNL     1      41.395   3.783  11.506  1.00  0.00     0.188 HD
HETATM    8  C5  UNL     1      40.542   1.968  12.098  1.00  0.00     0.079 A 
ENDROOT
BRANCH   1   9
HETATM    9  C3  UNL     1      40.174  -0.560  12.075  1.00  0.00     0.274 C 
HETATM   10  N3  UNL     1      38.956  -0.982  11.526  1.00  0.00    -0.318 N 
ATOM     11  H3  UNL     1      38.497  -0.400  10.826  1.00  0.00     0.166 HD
HETATM   12  O1  UNL     1      40.754  -1.256  12.934  1.00  0.00    -0.266 OA
BRANCH  10  13
HETATM   13  C2  UNL     1      38.327  -2.235  11.934  1.00  0.00     0.294 A 
HETATM   14  N2  UNL     1      37.108  -2.419  11.217  1.00  0.00    -0.327 N 
HETATM   15  C1  UNL     1      35.954  -2.621  11.673  1.00  0.00     0.192 A 
ATOM     16  H2  UNL     1      37.182  -2.381  10.201  1.00  0.00     0.166 HD
HETATM   17  N1  UNL     1      34.810  -2.789  10.828  1.00  0.00    -0.063 NA
HETATM   18  N9  UNL     1      35.806  -2.682  13.094  1.00  0.00    -0.327 N 
HETATM   19  C7  UNL     1      36.985  -2.507  13.860  1.00  0.00     0.181 A 
ATOM     20  H9  UNL     1      34.899  -2.844  13.533  1.00  0.00     0.169 HD
HETATM   21  N8  UNL     1      38.131  -2.303  13.342  1.00  0.00    -0.348 N 
ATOM     22  H8  UNL     1      38.935  -2.185  13.958  1.00  0.00     0.164 HD
ENDBRANCH  10  13
ENDBRANCH   1   9
BRANCH   8  23
HETATM   23  C6  UNL     1      39.590   2.356  13.138  1.00  0.00     0.195 C 
BRANCH  23  24
HETATM   24  N7  UNL     1      38.327   2.767  12.506  1.00  0.00    -0.295 N 
ATOM     25  H7  UNL     1      38.208   3.599  11.929  1.00  0.00     0.175 HD
BRANCH  24  26
HETATM   26  S1  UNL     1      37.075   1.639  12.879  1.00  0.00     0.204 S 
HETATM   27  O2  UNL     1      37.578   0.679  13.944  1.00  0.00    -0.578 OA
HETATM   28  O3  UNL     1      36.691   0.813  11.672  1.00  0.00    -0.578 OA
HETATM   29  O4  UNL     1      35.687   2.394  13.421  1.00  0.00    -0.578 OA
ENDBRANCH  24  26
ENDBRANCH  23  24
ENDBRANCH   8  23
TORSDOF 5
ENDMDL
MODEL 4
REMARK VINA RESULT: -5.849010926      1.633      5.260
REMARK  5 active torsions:
REMARK  status: ('A' for Active; 'I' for Inactive)
REMARK    1  A    between atoms: C2_5  and  N3_6 
REMARK       I    between atoms: N3_6  and  C3_8 
REMARK    2  A    between atoms: C3_8  and  C4_10 
REMARK    3  A    between atoms: C5_17  and  C6_18 
REMARK    4  A    between atoms: C6_18  and  N7_19 
REMARK    5  A    between atoms: N7_19  and  S1_21 
ROOT
HETATM    1  C4  UNL     1      34.376  -5.702  12.127  1.00  0.00     0.143 A 
HETATM    2  N4  UNL     1      33.419  -6.099  11.240  1.00  0.00    -0.279 N 
ATOM      3  H4  UNL     1      33.050  -5.514  10.491  1.00  0.00     0.189 HD
HETATM    4  N5  UNL     1      33.036  -7.323  11.474  1.00  0.00    -0.242 N 
ATOM      5  H5  UNL     1      32.334  -7.851  10.955  1.00  0.00     0.208 HD
HETATM    6  N6  UNL     1      33.732  -7.745  12.508  1.00  0.00    -0.286 N 
ATOM      7  H6  UNL     1      33.648  -8.673  12.922  1.00  0.00     0.188 HD
HETATM    8  C5  UNL     1      34.564  -6.793  12.944  1.00  0.00     0.079 A 
ENDROOT
BRANCH   1   9
HETATM    9  C3  UNL     1      35.021  -4.407  12.156  1.00  0.00     0.274 C 
HETATM   10  N3  UNL     1      35.614  -3.935  13.335  1.00  0.00    -0.318 N 
ATOM     11  H3  UNL     1      35.584  -4.514  14.174  1.00  0.00     0.166 HD
HETATM   12  O1  UNL     1      35.046  -3.715  11.117  1.00  0.00    -0.266 OA
BRANCH  10  13
HETATM   13  C2  UNL     1      36.271  -2.633  13.392  1.00  0.00     0.294 A 
HETATM   14  N2  UNL     1      37.346  -2.594  12.454  1.00  0.00    -0.327 N 
HETATM   15  C1  UNL     1      38.555  -2.319  12.659  1.00  0.00     0.192 A 
ATOM     16  H2  UNL     1      37.100  -2.819  11.490  1.00  0.00     0.166 HD
HETATM   17  N1  UNL     1      39.533  -2.319  11.614  1.00  0.00    -0.063 NA
HETATM   18  N9  UNL     1      38.941  -1.997  13.998  1.00  0.00    -0.327 N 
HETATM   19  C7  UNL     1      37.915  -2.018  14.974  1.00  0.00     0.181 A 
ATOM     20  H9  UNL     1      39.905  -1.764  14.237  1.00  0.00     0.169 HD
HETATM   21  N8  UNL     1      36.703  -2.306  14.708  1.00  0.00    -0.348 N 
ATOM     22  H8  UNL     1      36.019  -2.302  15.464  1.00  0.00     0.164 HD
ENDBRANCH  10  13
ENDBRANCH   1   9
BRANCH   8  23
HETATM   23  C6  UNL     1      35.497  -6.876  14.066  1.00  0.00     0.195 C 
BRANCH  23  24
HETATM   24  N7  UNL     1      36.741  -7.516  13.611  1.00  0.00    -0.295 N 
ATOM     25  H7  UNL     1      36.812  -8.473  13.269  1.00  0.00     0.175 HD
BRANCH  24  26
HETATM   26  S1  UNL     1      38.064  -6.415  13.741  1.00  0.00     0.204 S 
HETATM   27  O2  UNL     1      37.775  -5.426  14.858  1.00  0.00    -0.578 OA
HETATM   28  O3  UNL     1      38.250  -5.616  12.470  1.00  0.00    -0.578 OA
HETATM   29  O4  UNL     1      39.507  -7.195  14.048  1.00  0.00    -0.578 OA
ENDBRANCH  24  26
ENDBRANCH  23  24
ENDBRANCH   8  23
TORSDOF 5
ENDMDL
MODEL 5
REMARK VINA RESULT: -5.832544309      2.874      6.469
REMARK  5 active torsions:
REMARK  status: ('A' for Active; 'I' for Inactive)
REMARK    1  A    between atoms: C2_5  and  N3_6 
REMARK       I    between atoms: N3_6  and  C3_8 
REMARK    2  A    between atoms: C3_8  and  C4_10 
REMARK    3  A    between atoms: C5_17  and  C6_18 
REMARK    4  A    between atoms: C6_18  and  N7_19 
REMARK    5  A    between atoms: N7_19  and  S1_21 
ROOT
HETATM    1  C4  UNL     1      36.788  -3.669  13.418  1.00  0.00     0.143 A 
HETATM    2  N4  UNL     1      37.438  -4.039  14.559  1.00  0.00    -0.279 N 
ATOM      3  H4  UNL     1      38.215  -3.524  14.973  1.00  0.00     0.189 HD
HETATM    4  N5  UNL     1      36.937  -5.137  15.052  1.00  0.00    -0.242 N 
ATOM      5  H5  UNL     1      37.245  -5.621  15.896  1.00  0.00     0.208 HD
HETATM    6  N6  UNL     1      35.959  -5.500  14.250  1.00  0.00    -0.286 N 
ATOM      7  H6  UNL     1      35.379  -6.329  14.383  1.00  0.00     0.188 HD
HETATM    8  C5  UNL     1      35.828  -4.637  13.237  1.00  0.00     0.079 A 
ENDROOT
BRANCH   1   9
HETATM    9  C3  UNL     1      37.084  -2.502  12.614  1.00  0.00     0.274 C 
HETATM   10  N3  UNL     1      36.663  -1.231  13.025  1.00  0.00    -0.318 N 
ATOM     11  H3  UNL     1      36.144  -1.136  13.898  1.00  0.00     0.166 HD
HETATM   12  O1  UNL     1      37.721  -2.642  11.550  1.00  0.00    -0.266 OA
BRANCH  10  13
HETATM   13  C2  UNL     1      36.948  -0.038  12.232  1.00  0.00     0.294 A 
HETATM   14  N2  UNL     1      38.358   0.178  12.177  1.00  0.00    -0.327 N 
HETATM   15  C1  UNL     1      39.005   1.208  12.491  1.00  0.00     0.192 A 
ATOM     16  H2  UNL     1      38.912  -0.607  11.837  1.00  0.00     0.166 HD
HETATM   17  N1  UNL     1      40.430   1.286  12.384  1.00  0.00    -0.063 NA
HETATM   18  N9  UNL     1      38.264   2.333  12.972  1.00  0.00    -0.327 N 
HETATM   19  C7  UNL     1      36.858   2.178  13.048  1.00  0.00     0.181 A 
ATOM     20  H9  UNL     1      38.724   3.202  13.245  1.00  0.00     0.169 HD
HETATM   21  N8  UNL     1      36.255   1.107  12.716  1.00  0.00    -0.348 N 
ATOM     22  H8  UNL     1      35.239   1.068  12.800  1.00  0.00     0.164 HD
ENDBRANCH  10  13
ENDBRANCH   1   9
BRANCH   8  23
HETATM   23  C6  UNL     1      34.860  -4.694  12.143  1.00  0.00     0.195 C 
BRANCH  23  24
HETATM   24  N7  UNL     1      34.941  -6.013  11.496  1.00  0.00    -0.295 N 
ATOM     25  H7  UNL     1      35.711  -6.325  10.905  1.00  0.00     0.175 HD
BRANCH  24  26
HETATM   26  S1  UNL     1      33.548  -6.956  11.880  1.00  0.00     0.204 S 
HETATM   27  O2  UNL     1      32.304  -6.112  11.655  1.00  0.00    -0.578 OA
HETATM   28  O3  UNL     1      33.547  -7.383  13.331  1.00  0.00    -0.578 OA
HETATM   29  O4  UNL     1      33.453  -8.344  10.958  1.00  0.00    -0.578 OA
ENDBRANCH  24  26
ENDBRANCH  23  24
ENDBRANCH   8  23
TORSDOF 5
ENDMDL
