MODEL 1
REMARK VINA RESULT: -8.945520639      0.000      0.000
REMARK  14 active torsions:
REMARK  status: ('A' for Active; 'I' for Inactive)
REMARK    1  A    between atoms: N6_23  and  C10_25 
REMARK    2  A    between atoms: C10_25  and  C11_26 
REMARK    3  A    between atoms: C11_26  and  C12_27 
REMARK    4  A    between atoms: C12_27  and  C13_28 
REMARK    5  A    between atoms: C13_28  and  C14_29 
REMARK    6  A    between atoms: C14_29  and  C15_30 
REMARK    7  A    between atoms: C15_30  and  C16_31 
REMARK    8  A    between atoms: C16_31  and  C17_32 
REMARK    9  A    between atoms: C17_32  and  C18_33 
REMARK   10  A    between atoms: C18_33  and  C19_34 
REMARK   11  A    between atoms: C19_34  and  C20_35 
REMARK       I    between atoms: C20_35  and  N7_37 
REMARK   12  A    between atoms: N7_37  and  C21_39 
REMARK   13  A    between atoms: C21_39  and  C22_40 
REMARK   14  A    between atoms: C22_40  and  C23_41 
ROOT
HETATM    1  N1  UNL     1     188.246 128.302  28.708  1.00  0.00    -0.196 NA
HETATM    2  C1  UNL     1     187.228 128.730  29.111  1.00  0.00     0.080 C 
HETATM    3  C2  UNL     1     185.972 129.268  29.620  1.00  0.00     0.234 C 
HETATM    4  C3  UNL     1     185.365 130.207  28.636  1.00  0.00     0.142 C 
HETATM    5  N2  UNL     1     184.965 131.312  29.184  1.00  0.00    -0.382 N 
ATOM      6  H21 UNL     1     184.549 131.955  28.511  1.00  0.00     0.158 HD
ATOM      7  H22 UNL     1     185.121 131.376  30.191  1.00  0.00     0.158 HD
HETATM    8  O1  UNL     1     185.154 130.122  27.278  1.00  0.00    -0.298 OA
HETATM    9  C4  UNL     1     184.733 129.111  26.385  1.00  0.00     0.094 A 
HETATM   10  C5  UNL     1     184.415 127.832  26.502  1.00  0.00     0.109 A 
HETATM   11  N3  UNL     1     184.050 127.258  25.258  1.00  0.00    -0.322 N 
ATOM     12  H3  UNL     1     183.766 126.292  25.095  1.00  0.00     0.169 HD
HETATM   13  C6  UNL     1     184.155 128.286  24.284  1.00  0.00     0.228 A 
HETATM   14  O2  UNL     1     183.931 128.232  23.040  1.00  0.00    -0.273 OA
HETATM   15  C7  UNL     1     184.592 129.500  24.977  1.00  0.00     0.170 A 
HETATM   16  C8  UNL     1     184.386 126.965  27.672  1.00  0.00     0.130 C 
HETATM   17  N4  UNL     1     184.174 125.747  27.330  1.00  0.00    -0.384 N 
ATOM     18  H41 UNL     1     184.154 125.140  28.149  1.00  0.00     0.157 HD
ATOM     19  H42 UNL     1     184.070 125.634  26.321  1.00  0.00     0.157 HD
HETATM   20  N5  UNL     1     184.533 127.125  29.096  1.00  0.00    -0.329 N 
ATOM     21  H5  UNL     1     184.212 126.305  29.609  1.00  0.00     0.168 HD
HETATM   22  C9  UNL     1     185.015 128.143  29.964  1.00  0.00     0.104 C 
HETATM   23  N6  UNL     1     184.633 128.154  31.165  1.00  0.00    -0.378 N 
ATOM     24  H6  UNL     1     185.021 128.912  31.725  1.00  0.00     0.160 HD
ENDROOT
BRANCH  23  25
HETATM   25  C10 UNL     1     183.756 127.292  31.867  1.00  0.00     0.121 C 
BRANCH  25  26
HETATM   26  C11 UNL     1     184.634 126.330  32.678  1.00  0.00     0.020 C 
BRANCH  26  27
HETATM   27  C12 UNL     1     183.811 125.243  33.290  1.00  0.00     0.002 C 
BRANCH  27  28
HETATM   28  C13 UNL     1     184.565 123.966  33.489  1.00  0.00     0.000 C 
BRANCH  28  29
HETATM   29  C14 UNL     1     183.939 122.823  32.681  1.00  0.00     0.000 C 
BRANCH  29  30
HETATM   30  C15 UNL     1     184.438 122.814  31.274  1.00  0.00     0.000 C 
BRANCH  30  31
HETATM   31  C16 UNL     1     184.610 121.393  30.805  1.00  0.00     0.000 C 
BRANCH  31  32
HETATM   32  C17 UNL     1     185.112 120.468  31.912  1.00  0.00     0.000 C 
BRANCH  32  33
HETATM   33  C18 UNL     1     186.608 120.510  31.927  1.00  0.00     0.009 C 
BRANCH  33  34
HETATM   34  C19 UNL     1     187.235 120.638  33.278  1.00  0.00     0.103 C 
BRANCH  34  35
HETATM   35  C20 UNL     1     188.211 121.746  33.407  1.00  0.00     0.217 C 
HETATM   36  O3  UNL     1     188.085 122.697  34.220  1.00  0.00    -0.274 OA
HETATM   37  N7  UNL     1     189.347 121.730  32.567  1.00  0.00    -0.361 N 
ATOM     38  H7  UNL     1     189.479 120.972  31.898  1.00  0.00     0.162 HD
BRANCH  37  39
HETATM   39  C21 UNL     1     190.316 122.790  32.662  1.00  0.00     0.128 C 
BRANCH  39  40
HETATM   40  C22 UNL     1     190.644 123.399  31.335  1.00  0.00     0.066 C 
BRANCH  40  41
HETATM   41  C23 UNL     1     192.106 123.101  31.093  1.00  0.00    -0.016 A 
HETATM   42  C24 UNL     1     192.633 121.971  30.535  1.00  0.00     0.015 A 
HETATM   43  C25 UNL     1     193.969 121.908  30.410  1.00  0.00     0.008 A 
HETATM   44  C26 UNL     1     194.690 122.985  30.855  1.00  0.00     0.050 A 
HETATM   45  S1  UNL     1     193.483 124.044  31.430  1.00  0.00    -0.106 SA
ENDBRANCH  40  41
ENDBRANCH  39  40
ENDBRANCH  37  39
ENDBRANCH  34  35
ENDBRANCH  33  34
ENDBRANCH  32  33
ENDBRANCH  31  32
ENDBRANCH  30  31
ENDBRANCH  29  30
ENDBRANCH  28  29
ENDBRANCH  27  28
ENDBRANCH  26  27
ENDBRANCH  25  26
ENDBRANCH  23  25
TORSDOF 14
ENDMDL
MODEL 2
REMARK VINA RESULT: -8.832878112      1.603      2.193
REMARK  14 active torsions:
REMARK  status: ('A' for Active; 'I' for Inactive)
REMARK    1  A    between atoms: N6_23  and  C10_25 
REMARK    2  A    between atoms: C10_25  and  C11_26 
REMARK    3  A    between atoms: C11_26  and  C12_27 
REMARK    4  A    between atoms: C12_27  and  C13_28 
REMARK    5  A    between atoms: C13_28  and  C14_29 
REMARK    6  A    between atoms: C14_29  and  C15_30 
REMARK    7  A    between atoms: C15_30  and  C16_31 
REMARK    8  A    between atoms: C16_31  and  C17_32 
REMARK    9  A    between atoms: C17_32  and  C18_33 
REMARK   10  A    between atoms: C18_33  and  C19_34 
REMARK   11  A    between atoms: C19_34  and  C20_35 
REMARK       I    between atoms: C20_35  and  N7_37 
REMARK   12  A    between atoms: N7_37  and  C21_39 
REMARK   13  A    between atoms: C21_39  and  C22_40 
REMARK   14  A    between atoms: C22_40  and  C23_41 
ROOT
HETATM    1  N1  UNL     1     188.115 130.148  26.267  1.00  0.00    -0.196 NA
HETATM    2  C1  UNL     1     187.495 130.336  27.248  1.00  0.00     0.080 C 
HETATM    3  C2  UNL     1     186.734 130.578  28.468  1.00  0.00     0.234 C 
HETATM    4  C3  UNL     1     185.372 131.088  28.146  1.00  0.00     0.142 C 
HETATM    5  N2  UNL     1     185.043 132.117  28.864  1.00  0.00    -0.382 N 
ATOM      6  H21 UNL     1     184.111 132.466  28.644  1.00  0.00     0.158 HD
ATOM      7  H22 UNL     1     185.751 132.420  29.532  1.00  0.00     0.158 HD
HETATM    8  O1  UNL     1     184.416 130.679  27.243  1.00  0.00    -0.298 OA
HETATM    9  C4  UNL     1     183.920 129.434  26.796  1.00  0.00     0.094 A 
HETATM   10  C5  UNL     1     184.211 128.168  27.042  1.00  0.00     0.109 A 
HETATM   11  N3  UNL     1     183.387 127.278  26.308  1.00  0.00    -0.322 N 
ATOM     12  H3  UNL     1     183.421 126.259  26.330  1.00  0.00     0.169 HD
HETATM   13  C6  UNL     1     182.503 128.079  25.536  1.00  0.00     0.228 A 
HETATM   14  O2  UNL     1     181.598 127.718  24.730  1.00  0.00    -0.273 OA
HETATM   15  C7  UNL     1     182.817 129.480  25.828  1.00  0.00     0.170 A 
HETATM   16  C8  UNL     1     185.213 127.578  27.920  1.00  0.00     0.130 C 
HETATM   17  N4  UNL     1     185.276 126.308  27.750  1.00  0.00    -0.384 N 
ATOM     18  H41 UNL     1     185.978 125.895  28.365  1.00  0.00     0.157 HD
ATOM     19  H42 UNL     1     184.620 125.972  27.044  1.00  0.00     0.157 HD
HETATM   20  N5  UNL     1     186.139 128.052  28.917  1.00  0.00    -0.329 N 
ATOM     21  H5  UNL     1     186.513 127.292  29.485  1.00  0.00     0.168 HD
HETATM   22  C9  UNL     1     186.661 129.316  29.306  1.00  0.00     0.104 C 
HETATM   23  N6  UNL     1     187.126 129.454  30.468  1.00  0.00    -0.378 N 
ATOM     24  H6  UNL     1     187.482 130.387  30.674  1.00  0.00     0.160 HD
ENDROOT
BRANCH  23  25
HETATM   25  C10 UNL     1     187.239 128.533  31.538  1.00  0.00     0.121 C 
BRANCH  25  26
HETATM   26  C11 UNL     1     186.069 128.810  32.490  1.00  0.00     0.020 C 
BRANCH  26  27
HETATM   27  C12 UNL     1     185.346 127.549  32.831  1.00  0.00     0.002 C 
BRANCH  27  28
HETATM   28  C13 UNL     1     184.301 127.172  31.829  1.00  0.00     0.000 C 
BRANCH  28  29
HETATM   29  C14 UNL     1     183.893 125.701  31.982  1.00  0.00     0.000 C 
BRANCH  29  30
HETATM   30  C15 UNL     1     183.643 125.351  33.412  1.00  0.00     0.000 C 
BRANCH  30  31
HETATM   31  C16 UNL     1     184.099 123.940  33.675  1.00  0.00     0.000 C 
BRANCH  31  32
HETATM   32  C17 UNL     1     184.609 123.244  32.415  1.00  0.00     0.000 C 
BRANCH  32  33
HETATM   33  C18 UNL     1     185.934 122.620  32.717  1.00  0.00     0.009 C 
BRANCH  33  34
HETATM   34  C19 UNL     1     186.954 123.534  33.316  1.00  0.00     0.103 C 
BRANCH  34  35
HETATM   35  C20 UNL     1     188.296 122.931  33.503  1.00  0.00     0.217 C 
HETATM   36  O3  UNL     1     188.708 122.472  34.598  1.00  0.00    -0.274 OA
HETATM   37  N7  UNL     1     189.157 122.871  32.385  1.00  0.00    -0.361 N 
ATOM     38  H7  UNL     1     188.851 123.235  31.483  1.00  0.00     0.162 HD
BRANCH  37  39
HETATM   39  C21 UNL     1     190.469 122.295  32.528  1.00  0.00     0.128 C 
BRANCH  39  40
HETATM   40  C22 UNL     1     191.553 123.324  32.576  1.00  0.00     0.066 C 
BRANCH  40  41
HETATM   41  C23 UNL     1     192.279 123.222  31.254  1.00  0.00    -0.016 A 
HETATM   42  C24 UNL     1     193.043 122.179  30.814  1.00  0.00     0.015 A 
HETATM   43  C25 UNL     1     193.605 122.292  29.599  1.00  0.00     0.008 A 
HETATM   44  C26 UNL     1     193.362 123.448  28.904  1.00  0.00     0.050 A 
HETATM   45  S1  UNL     1     192.363 124.332  29.966  1.00  0.00    -0.106 SA
ENDBRANCH  40  41
ENDBRANCH  39  40
ENDBRANCH  37  39
ENDBRANCH  34  35
ENDBRANCH  33  34
ENDBRANCH  32  33
ENDBRANCH  31  32
ENDBRANCH  30  31
ENDBRANCH  29  30
ENDBRANCH  28  29
ENDBRANCH  27  28
ENDBRANCH  26  27
ENDBRANCH  25  26
ENDBRANCH  23  25
TORSDOF 14
ENDMDL
MODEL 3
REMARK VINA RESULT: -8.680723863      3.697      9.554
REMARK  14 active torsions:
REMARK  status: ('A' for Active; 'I' for Inactive)
REMARK    1  A    between atoms: N6_23  and  C10_25 
REMARK    2  A    between atoms: C10_25  and  C11_26 
REMARK    3  A    between atoms: C11_26  and  C12_27 
REMARK    4  A    between atoms: C12_27  and  C13_28 
REMARK    5  A    between atoms: C13_28  and  C14_29 
REMARK    6  A    between atoms: C14_29  and  C15_30 
REMARK    7  A    between atoms: C15_30  and  C16_31 
REMARK    8  A    between atoms: C16_31  and  C17_32 
REMARK    9  A    between atoms: C17_32  and  C18_33 
REMARK   10  A    between atoms: C18_33  and  C19_34 
REMARK   11  A    between atoms: C19_34  and  C20_35 
REMARK       I    between atoms: C20_35  and  N7_37 
REMARK   12  A    between atoms: N7_37  and  C21_39 
REMARK   13  A    between atoms: C21_39  and  C22_40 
REMARK   14  A    between atoms: C22_40  and  C23_41 
ROOT
HETATM    1  N1  UNL     1     190.781 126.601  30.543  1.00  0.00    -0.196 NA
HETATM    2  C1  UNL     1     190.957 125.442  30.634  1.00  0.00     0.080 C 
HETATM    3  C2  UNL     1     191.165 124.003  30.739  1.00  0.00     0.234 C 
HETATM    4  C3  UNL     1     192.464 123.613  30.121  1.00  0.00     0.142 C 
HETATM    5  N2  UNL     1     192.354 122.584  29.339  1.00  0.00    -0.382 N 
ATOM      6  H21 UNL     1     193.242 122.316  28.916  1.00  0.00     0.158 HD
ATOM      7  H22 UNL     1     191.412 122.199  29.262  1.00  0.00     0.158 HD
HETATM    8  O1  UNL     1     193.734 124.132  30.224  1.00  0.00    -0.298 OA
HETATM    9  C4  UNL     1     194.530 124.650  31.272  1.00  0.00     0.094 A 
HETATM   10  C5  UNL     1     194.347 124.876  32.561  1.00  0.00     0.109 A 
HETATM   11  N3  UNL     1     195.501 125.423  33.177  1.00  0.00    -0.322 N 
ATOM     12  H3  UNL     1     195.603 125.680  34.158  1.00  0.00     0.169 HD
HETATM   13  C6  UNL     1     196.488 125.544  32.162  1.00  0.00     0.228 A 
HETATM   14  O2  UNL     1     197.670 125.986  32.249  1.00  0.00    -0.273 OA
HETATM   15  C7  UNL     1     195.897 125.050  30.917  1.00  0.00     0.170 A 
HETATM   16  C8  UNL     1     193.182 124.654  33.407  1.00  0.00     0.130 C 
HETATM   17  N4  UNL     1     193.364 125.156  34.574  1.00  0.00    -0.384 N 
ATOM     18  H41 UNL     1     192.548 125.001  35.166  1.00  0.00     0.157 HD
ATOM     19  H42 UNL     1     194.276 125.603  34.672  1.00  0.00     0.157 HD
HETATM   20  N5  UNL     1     191.894 124.022  33.269  1.00  0.00    -0.329 N 
ATOM     21  H5  UNL     1     191.444 123.867  34.171  1.00  0.00     0.168 HD
HETATM   22  C9  UNL     1     191.094 123.561  32.188  1.00  0.00     0.104 C 
HETATM   23  N6  UNL     1     190.213 122.688  32.407  1.00  0.00    -0.378 N 
ATOM     24  H6  UNL     1     189.681 122.408  31.584  1.00  0.00     0.160 HD
ENDROOT
BRANCH  23  25
HETATM   25  C10 UNL     1     189.838 122.029  33.603  1.00  0.00     0.121 C 
BRANCH  25  26
HETATM   26  C11 UNL     1     188.305 122.060  33.666  1.00  0.00     0.020 C 
BRANCH  26  27
HETATM   27  C12 UNL     1     187.708 121.373  32.481  1.00  0.00     0.002 C 
BRANCH  27  28
HETATM   28  C13 UNL     1     186.751 120.282  32.846  1.00  0.00     0.000 C 
BRANCH  28  29
HETATM   29  C14 UNL     1     185.416 120.447  32.108  1.00  0.00     0.000 C 
BRANCH  29  30
HETATM   30  C15 UNL     1     185.288 121.810  31.514  1.00  0.00     0.000 C 
BRANCH  30  31
HETATM   31  C16 UNL     1     184.051 122.482  32.049  1.00  0.00     0.000 C 
BRANCH  31  32
HETATM   32  C17 UNL     1     184.367 123.515  33.130  1.00  0.00     0.000 C 
BRANCH  32  33
HETATM   33  C18 UNL     1     184.817 124.778  32.466  1.00  0.00     0.009 C 
BRANCH  33  34
HETATM   34  C19 UNL     1     183.820 125.892  32.461  1.00  0.00     0.103 C 
BRANCH  34  35
HETATM   35  C20 UNL     1     183.831 126.731  31.239  1.00  0.00     0.217 C 
HETATM   36  O3  UNL     1     183.542 127.954  31.229  1.00  0.00    -0.274 OA
HETATM   37  N7  UNL     1     184.187 126.117  30.018  1.00  0.00    -0.361 N 
ATOM     38  H7  UNL     1     184.427 125.126  29.993  1.00  0.00     0.162 HD
BRANCH  37  39
HETATM   39  C21 UNL     1     184.207 126.899  28.808  1.00  0.00     0.128 C 
BRANCH  39  40
HETATM   40  C22 UNL     1     184.189 126.057  27.572  1.00  0.00     0.066 C 
BRANCH  40  41
HETATM   41  C23 UNL     1     183.785 126.982  26.447  1.00  0.00    -0.016 A 
HETATM   42  C24 UNL     1     182.563 127.564  26.260  1.00  0.00     0.015 A 
HETATM   43  C25 UNL     1     182.413 128.358  25.187  1.00  0.00     0.008 A 
HETATM   44  C26 UNL     1     183.502 128.516  24.370  1.00  0.00     0.050 A 
HETATM   45  S1  UNL     1     184.692 127.555  25.125  1.00  0.00    -0.106 SA
ENDBRANCH  40  41
ENDBRANCH  39  40
ENDBRANCH  37  39
ENDBRANCH  34  35
ENDBRANCH  33  34
ENDBRANCH  32  33
ENDBRANCH  31  32
ENDBRANCH  30  31
ENDBRANCH  29  30
ENDBRANCH  28  29
ENDBRANCH  27  28
ENDBRANCH  26  27
ENDBRANCH  25  26
ENDBRANCH  23  25
TORSDOF 14
ENDMDL
MODEL 4
REMARK VINA RESULT: -8.520987938      3.283      8.981
REMARK  14 active torsions:
REMARK  status: ('A' for Active; 'I' for Inactive)
REMARK    1  A    between atoms: N6_23  and  C10_25 
REMARK    2  A    between atoms: C10_25  and  C11_26 
REMARK    3  A    between atoms: C11_26  and  C12_27 
REMARK    4  A    between atoms: C12_27  and  C13_28 
REMARK    5  A    between atoms: C13_28  and  C14_29 
REMARK    6  A    between atoms: C14_29  and  C15_30 
REMARK    7  A    between atoms: C15_30  and  C16_31 
REMARK    8  A    between atoms: C16_31  and  C17_32 
REMARK    9  A    between atoms: C17_32  and  C18_33 
REMARK   10  A    between atoms: C18_33  and  C19_34 
REMARK   11  A    between atoms: C19_34  and  C20_35 
REMARK       I    between atoms: C20_35  and  N7_37 
REMARK   12  A    between atoms: N7_37  and  C21_39 
REMARK   13  A    between atoms: C21_39  and  C22_40 
REMARK   14  A    between atoms: C22_40  and  C23_41 
ROOT
HETATM    1  N1  UNL     1     191.042 120.476  31.554  1.00  0.00    -0.196 NA
HETATM    2  C1  UNL     1     190.503 121.302  32.194  1.00  0.00     0.080 C 
HETATM    3  C2  UNL     1     189.827 122.317  32.993  1.00  0.00     0.234 C 
HETATM    4  C3  UNL     1     190.768 122.926  33.975  1.00  0.00     0.142 C 
HETATM    5  N2  UNL     1     190.261 123.006  35.166  1.00  0.00    -0.382 N 
ATOM      6  H21 UNL     1     190.905 123.424  35.838  1.00  0.00     0.158 HD
ATOM      7  H22 UNL     1     189.310 122.647  35.255  1.00  0.00     0.158 HD
HETATM    8  O1  UNL     1     192.051 123.410  33.854  1.00  0.00    -0.298 OA
HETATM    9  C4  UNL     1     192.755 124.172  32.894  1.00  0.00     0.094 A 
HETATM   10  C5  UNL     1     192.464 124.685  31.711  1.00  0.00     0.109 A 
HETATM   11  N3  UNL     1     193.562 125.384  31.148  1.00  0.00    -0.322 N 
ATOM     12  H3  UNL     1     193.581 125.863  30.248  1.00  0.00     0.169 HD
HETATM   13  C6  UNL     1     194.631 125.288  32.079  1.00  0.00     0.228 A 
HETATM   14  O2  UNL     1     195.802 125.757  31.998  1.00  0.00    -0.273 OA
HETATM   15  C7  UNL     1     194.144 124.514  33.223  1.00  0.00     0.170 A 
HETATM   16  C8  UNL     1     191.233 124.640  30.934  1.00  0.00     0.130 C 
HETATM   17  N4  UNL     1     191.416 125.130  29.763  1.00  0.00    -0.384 N 
ATOM     18  H41 UNL     1     190.553 125.098  29.218  1.00  0.00     0.157 HD
ATOM     19  H42 UNL     1     192.374 125.448  29.614  1.00  0.00     0.157 HD
HETATM   20  N5  UNL     1     189.880 124.191  31.144  1.00  0.00    -0.329 N 
ATOM     21  H5  UNL     1     189.243 124.548  30.432  1.00  0.00     0.168 HD
HETATM   22  C9  UNL     1     189.212 123.374  32.096  1.00  0.00     0.104 C 
HETATM   23  N6  UNL     1     187.969 123.505  32.250  1.00  0.00    -0.378 N 
ATOM     24  H6  UNL     1     187.561 122.886  32.950  1.00  0.00     0.160 HD
ENDROOT
BRANCH  23  25
HETATM   25  C10 UNL     1     187.041 124.368  31.616  1.00  0.00     0.121 C 
BRANCH  25  26
HETATM   26  C11 UNL     1     186.353 125.174  32.725  1.00  0.00     0.020 C 
BRANCH  26  27
HETATM   27  C12 UNL     1     184.981 124.650  32.995  1.00  0.00     0.002 C 
BRANCH  27  28
HETATM   28  C13 UNL     1     183.896 125.629  32.674  1.00  0.00     0.000 C 
BRANCH  28  29
HETATM   29  C14 UNL     1     184.478 126.947  32.149  1.00  0.00     0.000 C 
BRANCH  29  30
HETATM   30  C15 UNL     1     183.474 127.702  31.341  1.00  0.00     0.000 C 
BRANCH  30  31
HETATM   31  C16 UNL     1     184.084 128.987  30.846  1.00  0.00     0.000 C 
BRANCH  31  32
HETATM   32  C17 UNL     1     184.642 128.862  29.430  1.00  0.00     0.000 C 
BRANCH  32  33
HETATM   33  C18 UNL     1     183.657 128.108  28.593  1.00  0.00     0.009 C 
BRANCH  33  34
HETATM   34  C19 UNL     1     184.245 127.097  27.662  1.00  0.00     0.103 C 
BRANCH  34  35
HETATM   35  C20 UNL     1     184.746 125.865  28.318  1.00  0.00     0.217 C 
HETATM   36  O3  UNL     1     185.965 125.596  28.458  1.00  0.00    -0.274 OA
HETATM   37  N7  UNL     1     183.795 124.944  28.810  1.00  0.00    -0.361 N 
ATOM     38  H7  UNL     1     182.798 125.134  28.712  1.00  0.00     0.162 HD
BRANCH  37  39
HETATM   39  C21 UNL     1     184.243 123.735  29.451  1.00  0.00     0.128 C 
BRANCH  39  40
HETATM   40  C22 UNL     1     183.611 122.505  28.879  1.00  0.00     0.066 C 
BRANCH  40  41
HETATM   41  C23 UNL     1     183.392 121.571  30.047  1.00  0.00    -0.016 A 
HETATM   42  C24 UNL     1     182.266 120.848  30.321  1.00  0.00     0.015 A 
HETATM   43  C25 UNL     1     182.279 120.074  31.419  1.00  0.00     0.008 A 
HETATM   44  C26 UNL     1     183.424 120.077  32.172  1.00  0.00     0.050 A 
HETATM   45  S1  UNL     1     184.438 121.155  31.325  1.00  0.00    -0.106 SA
ENDBRANCH  40  41
ENDBRANCH  39  40
ENDBRANCH  37  39
ENDBRANCH  34  35
ENDBRANCH  33  34
ENDBRANCH  32  33
ENDBRANCH  31  32
ENDBRANCH  30  31
ENDBRANCH  29  30
ENDBRANCH  28  29
ENDBRANCH  27  28
ENDBRANCH  26  27
ENDBRANCH  25  26
ENDBRANCH  23  25
TORSDOF 14
ENDMDL
MODEL 5
REMARK VINA RESULT: -8.513571985      3.565      8.412
REMARK  14 active torsions:
REMARK  status: ('A' for Active; 'I' for Inactive)
REMARK    1  A    between atoms: N6_23  and  C10_25 
REMARK    2  A    between atoms: C10_25  and  C11_26 
REMARK    3  A    between atoms: C11_26  and  C12_27 
REMARK    4  A    between atoms: C12_27  and  C13_28 
REMARK    5  A    between atoms: C13_28  and  C14_29 
REMARK    6  A    between atoms: C14_29  and  C15_30 
REMARK    7  A    between atoms: C15_30  and  C16_31 
REMARK    8  A    between atoms: C16_31  and  C17_32 
REMARK    9  A    between atoms: C17_32  and  C18_33 
REMARK   10  A    between atoms: C18_33  and  C19_34 
REMARK   11  A    between atoms: C19_34  and  C20_35 
REMARK       I    between atoms: C20_35  and  N7_37 
REMARK   12  A    between atoms: N7_37  and  C21_39 
REMARK   13  A    between atoms: C21_39  and  C22_40 
REMARK   14  A    between atoms: C22_40  and  C23_41 
ROOT
HETATM    1  N1  UNL     1     188.609 122.370  34.418  1.00  0.00    -0.196 NA
HETATM    2  C1  UNL     1     188.420 123.082  33.502  1.00  0.00     0.080 C 
HETATM    3  C2  UNL     1     188.200 123.968  32.365  1.00  0.00     0.234 C 
HETATM    4  C3  UNL     1     187.717 123.197  31.184  1.00  0.00     0.142 C 
HETATM    5  N2  UNL     1     188.347 123.509  30.095  1.00  0.00    -0.382 N 
ATOM      6  H21 UNL     1     188.017 122.982  29.287  1.00  0.00     0.158 HD
ATOM      7  H22 UNL     1     189.069 124.222  30.203  1.00  0.00     0.158 HD
HETATM    8  O1  UNL     1     186.744 122.235  31.039  1.00  0.00    -0.298 OA
HETATM    9  C4  UNL     1     185.440 122.033  31.548  1.00  0.00     0.094 A 
HETATM   10  C5  UNL     1     184.660 122.676  32.400  1.00  0.00     0.109 A 
HETATM   11  N3  UNL     1     183.407 122.031  32.566  1.00  0.00    -0.322 N 
ATOM     12  H3  UNL     1     182.642 122.336  33.167  1.00  0.00     0.169 HD
HETATM   13  C6  UNL     1     183.424 120.880  31.733  1.00  0.00     0.228 A 
HETATM   14  O2  UNL     1     182.525 120.007  31.562  1.00  0.00    -0.273 OA
HETATM   15  C7  UNL     1     184.723 120.851  31.056  1.00  0.00     0.170 A 
HETATM   16  C8  UNL     1     184.888 123.896  33.161  1.00  0.00     0.130 C 
HETATM   17  N4  UNL     1     183.934 124.097  33.996  1.00  0.00    -0.384 N 
ATOM     18  H41 UNL     1     184.094 124.952  34.529  1.00  0.00     0.157 HD
ATOM     19  H42 UNL     1     183.219 123.370  33.959  1.00  0.00     0.157 HD
HETATM   20  N5  UNL     1     185.898 124.923  33.213  1.00  0.00    -0.329 N 
ATOM     21  H5  UNL     1     185.579 125.748  33.721  1.00  0.00     0.168 HD
HETATM   22  C9  UNL     1     187.228 125.071  32.733  1.00  0.00     0.104 C 
HETATM   23  N6  UNL     1     187.697 126.230  32.580  1.00  0.00    -0.378 N 
ATOM     24  H6  UNL     1     188.655 126.256  32.234  1.00  0.00     0.160 HD
ENDROOT
BRANCH  23  25
HETATM   25  C10 UNL     1     187.119 127.503  32.808  1.00  0.00     0.121 C 
BRANCH  25  26
HETATM   26  C11 UNL     1     187.849 128.115  34.010  1.00  0.00     0.020 C 
BRANCH  26  27
HETATM   27  C12 UNL     1     187.182 129.375  34.456  1.00  0.00     0.002 C 
BRANCH  27  28
HETATM   28  C13 UNL     1     185.916 129.673  33.717  1.00  0.00     0.000 C 
BRANCH  28  29
HETATM   29  C14 UNL     1     185.623 131.178  33.705  1.00  0.00     0.000 C 
BRANCH  29  30
HETATM   30  C15 UNL     1     186.472 131.890  32.703  1.00  0.00     0.000 C 
BRANCH  30  31
HETATM   31  C16 UNL     1     186.487 131.116  31.411  1.00  0.00     0.000 C 
BRANCH  31  32
HETATM   32  C17 UNL     1     187.891 130.663  31.016  1.00  0.00     0.000 C 
BRANCH  32  33
HETATM   33  C18 UNL     1     187.829 130.050  29.653  1.00  0.00     0.009 C 
BRANCH  33  34
HETATM   34  C19 UNL     1     188.547 128.747  29.500  1.00  0.00     0.103 C 
BRANCH  34  35
HETATM   35  C20 UNL     1     187.708 127.628  29.009  1.00  0.00     0.217 C 
HETATM   36  O3  UNL     1     187.708 126.480  29.519  1.00  0.00    -0.274 OA
HETATM   37  N7  UNL     1     186.862 127.871  27.904  1.00  0.00    -0.361 N 
ATOM     38  H7  UNL     1     186.838 128.793  27.469  1.00  0.00     0.162 HD
BRANCH  37  39
HETATM   39  C21 UNL     1     186.033 126.809  27.397  1.00  0.00     0.128 C 
BRANCH  39  40
HETATM   40  C22 UNL     1     184.574 127.133  27.452  1.00  0.00     0.066 C 
BRANCH  40  41
HETATM   41  C23 UNL     1     184.244 127.309  28.916  1.00  0.00    -0.016 A 
HETATM   42  C24 UNL     1     183.889 128.468  29.545  1.00  0.00     0.015 A 
HETATM   43  C25 UNL     1     183.637 128.405  30.863  1.00  0.00     0.008 A 
HETATM   44  C26 UNL     1     183.757 127.180  31.464  1.00  0.00     0.050 A 
HETATM   45  S1  UNL     1     184.216 126.163  30.175  1.00  0.00    -0.106 SA
ENDBRANCH  40  41
ENDBRANCH  39  40
ENDBRANCH  37  39
ENDBRANCH  34  35
ENDBRANCH  33  34
ENDBRANCH  32  33
ENDBRANCH  31  32
ENDBRANCH  30  31
ENDBRANCH  29  30
ENDBRANCH  28  29
ENDBRANCH  27  28
ENDBRANCH  26  27
ENDBRANCH  25  26
ENDBRANCH  23  25
TORSDOF 14
ENDMDL
