MODEL 1
REMARK VINA RESULT: -6.405665419      0.000      0.000
REMARK  21 active torsions:
REMARK  status: ('A' for Active; 'I' for Inactive)
REMARK    1  A    between atoms: C2_2  and  C3_3 
REMARK    2  A    between atoms: C3_3  and  N1_4 
REMARK    3  A    between atoms: N1_4  and  C4_5 
REMARK    4  A    between atoms: N1_4  and  C6_7 
REMARK    5  A    between atoms: C6_7  and  S2_9 
REMARK    6  A    between atoms: S2_9  and  S3_10 
REMARK    7  A    between atoms: S3_10  and  C7_11 
REMARK    8  A    between atoms: C7_11  and  N3_15 
REMARK    9  A    between atoms: N3_15  and  C8_17 
REMARK   10  A    between atoms: C8_17  and  C9_18 
REMARK   11  A    between atoms: C9_18  and  C10_19 
REMARK   12  A    between atoms: C10_19  and  C11_20 
REMARK   13  A    between atoms: C11_20  and  C12_21 
REMARK   14  A    between atoms: C12_21  and  C13_22 
REMARK   15  A    between atoms: C13_22  and  C14_23 
REMARK   16  A    between atoms: C14_23  and  C15_24 
REMARK   17  A    between atoms: C15_24  and  O1_25 
REMARK   18  A    between atoms: O1_25  and  C16_26 
REMARK   19  A    between atoms: C17_30  and  O2_31 
REMARK   20  A    between atoms: C18_34  and  S4_35 
REMARK   21  A    between atoms: C20_37  and  O4_38 
ROOT
HETATM    1  C11 UNL     1     185.284 127.974  31.914  1.00  0.00     0.000 C 
ENDROOT
BRANCH   1   2
HETATM    2  C10 UNL     1     185.611 127.629  33.334  1.00  0.00     0.002 C 
BRANCH   2   3
HETATM    3  C9  UNL     1     187.087 127.645  33.577  1.00  0.00     0.020 C 
BRANCH   3   4
HETATM    4  C8  UNL     1     187.762 126.496  32.862  1.00  0.00     0.121 C 
BRANCH   4   5
HETATM    5  N3  UNL     1     188.570 125.683  33.752  1.00  0.00    -0.370 N 
ATOM      6  H3  UNL     1     188.804 126.045  34.676  1.00  0.00     0.161 HD
BRANCH   5   7
HETATM    7  C7  UNL     1     189.039 124.412  33.378  1.00  0.00     0.144 C 
HETATM    8  N2  UNL     1     189.285 123.507  34.258  1.00  0.00    -0.379 N 
ATOM      9  H22 UNL     1     189.625 122.585  33.987  1.00  0.00     0.158 HD
ATOM     10  H21 UNL     1     189.133 123.729  35.242  1.00  0.00     0.158 HD
BRANCH   7  11
HETATM   11  S3  UNL     1     189.304 124.025  31.656  1.00  0.00    -0.015 SA
BRANCH  11  12
HETATM   12  S2  UNL     1     187.594 123.227  30.730  1.00  0.00    -0.020 SA
BRANCH  12  13
HETATM   13  C6  UNL     1     186.593 122.316  31.875  1.00  0.00     0.148 C 
HETATM   14  S1  UNL     1     187.234 120.889  32.431  1.00  0.00    -0.052 SA
BRANCH  13  15
HETATM   15  N1  UNL     1     185.345 122.757  32.288  1.00  0.00    -0.363 N 
BRANCH  15  16
HETATM   16  C3  UNL     1     184.089 122.312  31.813  1.00  0.00     0.150 C 
BRANCH  16  17
HETATM   17  C2  UNL     1     184.043 121.671  30.494  1.00  0.00    -0.017 C 
HETATM   18  C1  UNL     1     183.572 120.437  30.375  1.00  0.00     0.008 C 
ENDBRANCH  16  17
ENDBRANCH  15  16
BRANCH  15  19
HETATM   19  C4  UNL     1     185.311 123.829  33.307  1.00  0.00     0.120 C 
HETATM   20  C5  UNL     1     183.895 124.164  33.667  1.00  0.00     0.026 C 
ENDBRANCH  15  19
ENDBRANCH  13  15
ENDBRANCH  12  13
ENDBRANCH  11  12
ENDBRANCH   7  11
ENDBRANCH   5   7
ENDBRANCH   4   5
ENDBRANCH   3   4
ENDBRANCH   2   3
ENDBRANCH   1   2
BRANCH   1  21
HETATM   21  C12 UNL     1     184.123 127.107  31.465  1.00  0.00     0.000 C 
BRANCH  21  22
HETATM   22  C13 UNL     1     183.914 127.111  29.985  1.00  0.00     0.002 C 
BRANCH  22  23
HETATM   23  C14 UNL     1     184.410 125.832  29.347  1.00  0.00     0.026 C 
BRANCH  23  24
HETATM   24  C15 UNL     1     185.511 126.073  28.352  1.00  0.00     0.170 C 
BRANCH  24  25
HETATM   25  O1  UNL     1     185.200 125.770  27.048  1.00  0.00    -0.357 OA
BRANCH  25  26
HETATM   26  C16 UNL     1     185.158 126.895  26.272  1.00  0.00     0.359 C 
HETATM   27  N4  UNL     1     186.103 126.870  25.174  1.00  0.00     0.004 N 
HETATM   28  C17 UNL     1     185.494 126.682  23.898  1.00  0.00     0.471 C 
ATOM     29  H42 UNL     1     186.681 127.710  25.177  1.00  0.00     0.286 HD
ATOM     30  H41 UNL     1     186.824 126.166  25.336  1.00  0.00     0.286 HD
HETATM   31  O3  UNL     1     184.600 127.683  23.527  1.00  0.00    -0.320 OA
HETATM   32  C18 UNL     1     183.949 128.232  24.634  1.00  0.00     0.220 C 
HETATM   33  C20 UNL     1     183.789 127.116  25.645  1.00  0.00     0.213 C 
BRANCH  28  34
HETATM   34  O2  UNL     1     186.511 126.688  22.938  1.00  0.00    -0.349 OA
ATOM     35  H2  UNL     1     186.199 127.184  22.191  1.00  0.00     0.214 HD
ENDBRANCH  28  34
BRANCH  32  36
HETATM   36  S4  UNL     1     184.950 129.594  25.229  1.00  0.00    -0.139 SA
HETATM   37  C19 UNL     1     184.235 130.493  26.598  1.00  0.00     0.092 C 
ENDBRANCH  32  36
BRANCH  33  38
HETATM   38  O4  UNL     1     182.843 127.473  26.604  1.00  0.00    -0.388 OA
ATOM     39  H4  UNL     1     181.962 127.445  26.250  1.00  0.00     0.210 HD
ENDBRANCH  33  38
ENDBRANCH  25  26
ENDBRANCH  24  25
ENDBRANCH  23  24
ENDBRANCH  22  23
ENDBRANCH  21  22
ENDBRANCH   1  21
TORSDOF 21
ENDMDL
MODEL 2
REMARK VINA RESULT: -6.398076933      2.474      4.167
REMARK  21 active torsions:
REMARK  status: ('A' for Active; 'I' for Inactive)
REMARK    1  A    between atoms: C2_2  and  C3_3 
REMARK    2  A    between atoms: C3_3  and  N1_4 
REMARK    3  A    between atoms: N1_4  and  C4_5 
REMARK    4  A    between atoms: N1_4  and  C6_7 
REMARK    5  A    between atoms: C6_7  and  S2_9 
REMARK    6  A    between atoms: S2_9  and  S3_10 
REMARK    7  A    between atoms: S3_10  and  C7_11 
REMARK    8  A    between atoms: C7_11  and  N3_15 
REMARK    9  A    between atoms: N3_15  and  C8_17 
REMARK   10  A    between atoms: C8_17  and  C9_18 
REMARK   11  A    between atoms: C9_18  and  C10_19 
REMARK   12  A    between atoms: C10_19  and  C11_20 
REMARK   13  A    between atoms: C11_20  and  C12_21 
REMARK   14  A    between atoms: C12_21  and  C13_22 
REMARK   15  A    between atoms: C13_22  and  C14_23 
REMARK   16  A    between atoms: C14_23  and  C15_24 
REMARK   17  A    between atoms: C15_24  and  O1_25 
REMARK   18  A    between atoms: O1_25  and  C16_26 
REMARK   19  A    between atoms: C17_30  and  O2_31 
REMARK   20  A    between atoms: C18_34  and  S4_35 
REMARK   21  A    between atoms: C20_37  and  O4_38 
ROOT
HETATM    1  C11 UNL     1     184.033 124.789  33.348  1.00  0.00     0.000 C 
ENDROOT
BRANCH   1   2
HETATM    2  C10 UNL     1     185.083 124.129  32.508  1.00  0.00     0.002 C 
BRANCH   2   3
HETATM    3  C9  UNL     1     184.476 123.321  31.407  1.00  0.00     0.020 C 
BRANCH   3   4
HETATM    4  C8  UNL     1     185.108 123.664  30.076  1.00  0.00     0.121 C 
BRANCH   4   5
HETATM    5  N3  UNL     1     186.554 123.759  30.154  1.00  0.00    -0.370 N 
ATOM      6  H3  UNL     1     187.085 122.953  30.482  1.00  0.00     0.161 HD
BRANCH   5   7
HETATM    7  C7  UNL     1     187.243 124.929  29.790  1.00  0.00     0.144 C 
HETATM    8  N2  UNL     1     186.792 125.710  28.874  1.00  0.00    -0.379 N 
ATOM      9  H22 UNL     1     187.291 126.559  28.610  1.00  0.00     0.158 HD
ATOM     10  H21 UNL     1     185.917 125.465  28.410  1.00  0.00     0.158 HD
BRANCH   7  11
HETATM   11  S3  UNL     1     188.773 125.358  30.603  1.00  0.00    -0.015 SA
BRANCH  11  12
HETATM   12  S2  UNL     1     188.743 124.945  32.663  1.00  0.00    -0.020 SA
BRANCH  12  13
HETATM   13  C6  UNL     1     189.498 123.384  33.031  1.00  0.00     0.148 C 
HETATM   14  S1  UNL     1     190.267 123.273  34.499  1.00  0.00    -0.052 SA
BRANCH  13  15
HETATM   15  N1  UNL     1     189.456 122.311  32.154  1.00  0.00    -0.363 N 
BRANCH  15  16
HETATM   16  C3  UNL     1     188.334 121.504  31.857  1.00  0.00     0.150 C 
BRANCH  16  17
HETATM   17  C2  UNL     1     187.405 121.191  32.949  1.00  0.00    -0.017 C 
HETATM   18  C1  UNL     1     186.628 120.120  32.870  1.00  0.00     0.008 C 
ENDBRANCH  16  17
ENDBRANCH  15  16
BRANCH  15  19
HETATM   19  C4  UNL     1     190.719 121.943  31.478  1.00  0.00     0.120 C 
HETATM   20  C5  UNL     1     190.779 120.461  31.254  1.00  0.00     0.026 C 
ENDBRANCH  15  19
ENDBRANCH  13  15
ENDBRANCH  12  13
ENDBRANCH  11  12
ENDBRANCH   7  11
ENDBRANCH   5   7
ENDBRANCH   4   5
ENDBRANCH   3   4
ENDBRANCH   2   3
ENDBRANCH   1   2
BRANCH   1  21
HETATM   21  C12 UNL     1     183.513 126.003  32.601  1.00  0.00     0.000 C 
BRANCH  21  22
HETATM   22  C13 UNL     1     184.593 126.837  31.994  1.00  0.00     0.002 C 
BRANCH  22  23
HETATM   23  C14 UNL     1     184.029 128.029  31.253  1.00  0.00     0.026 C 
BRANCH  23  24
HETATM   24  C15 UNL     1     183.916 127.789  29.772  1.00  0.00     0.170 C 
BRANCH  24  25
HETATM   25  O1  UNL     1     183.951 128.918  28.991  1.00  0.00    -0.357 OA
BRANCH  25  26
HETATM   26  C16 UNL     1     184.209 128.611  27.684  1.00  0.00     0.359 C 
HETATM   27  N4  UNL     1     183.200 129.104  26.768  1.00  0.00     0.004 N 
HETATM   28  C17 UNL     1     183.634 130.210  25.979  1.00  0.00     0.471 C 
ATOM     29  H42 UNL     1     182.855 128.351  26.173  1.00  0.00     0.286 HD
ATOM     30  H41 UNL     1     182.341 129.333  27.269  1.00  0.00     0.286 HD
HETATM   31  O3  UNL     1     184.717 129.942  25.146  1.00  0.00    -0.320 OA
HETATM   32  C18 UNL     1     185.575 128.991  25.703  1.00  0.00     0.220 C 
HETATM   33  C20 UNL     1     185.533 129.190  27.203  1.00  0.00     0.213 C 
BRANCH  28  34
HETATM   34  O2  UNL     1     182.573 130.573  25.141  1.00  0.00    -0.349 OA
ATOM     35  H2  UNL     1     182.906 130.601  24.252  1.00  0.00     0.214 HD
ENDBRANCH  28  34
BRANCH  32  36
HETATM   36  S4  UNL     1     185.003 127.375  25.181  1.00  0.00    -0.139 SA
HETATM   37  C19 UNL     1     185.935 126.662  23.833  1.00  0.00     0.092 C 
ENDBRANCH  32  36
BRANCH  33  38
HETATM   38  O4  UNL     1     186.615 128.546  27.800  1.00  0.00    -0.388 OA
ATOM     39  H4  UNL     1     186.851 127.755  27.330  1.00  0.00     0.210 HD
ENDBRANCH  33  38
ENDBRANCH  25  26
ENDBRANCH  24  25
ENDBRANCH  23  24
ENDBRANCH  22  23
ENDBRANCH  21  22
ENDBRANCH   1  21
TORSDOF 21
ENDMDL
MODEL 3
REMARK VINA RESULT: -6.380229135      1.736      2.430
REMARK  21 active torsions:
REMARK  status: ('A' for Active; 'I' for Inactive)
REMARK    1  A    between atoms: C2_2  and  C3_3 
REMARK    2  A    between atoms: C3_3  and  N1_4 
REMARK    3  A    between atoms: N1_4  and  C4_5 
REMARK    4  A    between atoms: N1_4  and  C6_7 
REMARK    5  A    between atoms: C6_7  and  S2_9 
REMARK    6  A    between atoms: S2_9  and  S3_10 
REMARK    7  A    between atoms: S3_10  and  C7_11 
REMARK    8  A    between atoms: C7_11  and  N3_15 
REMARK    9  A    between atoms: N3_15  and  C8_17 
REMARK   10  A    between atoms: C8_17  and  C9_18 
REMARK   11  A    between atoms: C9_18  and  C10_19 
REMARK   12  A    between atoms: C10_19  and  C11_20 
REMARK   13  A    between atoms: C11_20  and  C12_21 
REMARK   14  A    between atoms: C12_21  and  C13_22 
REMARK   15  A    between atoms: C13_22  and  C14_23 
REMARK   16  A    between atoms: C14_23  and  C15_24 
REMARK   17  A    between atoms: C15_24  and  O1_25 
REMARK   18  A    between atoms: O1_25  and  C16_26 
REMARK   19  A    between atoms: C17_30  and  O2_31 
REMARK   20  A    between atoms: C18_34  and  S4_35 
REMARK   21  A    between atoms: C20_37  and  O4_38 
ROOT
HETATM    1  C11 UNL     1     184.988 128.343  31.923  1.00  0.00     0.000 C 
ENDROOT
BRANCH   1   2
HETATM    2  C10 UNL     1     185.403 127.368  32.982  1.00  0.00     0.002 C 
BRANCH   2   3
HETATM    3  C9  UNL     1     186.868 127.458  33.267  1.00  0.00     0.020 C 
BRANCH   3   4
HETATM    4  C8  UNL     1     187.676 127.211  32.012  1.00  0.00     0.121 C 
BRANCH   4   5
HETATM    5  N3  UNL     1     187.610 125.831  31.570  1.00  0.00    -0.370 N 
ATOM      6  H3  UNL     1     186.712 125.448  31.274  1.00  0.00     0.161 HD
BRANCH   5   7
HETATM    7  C7  UNL     1     188.747 125.005  31.537  1.00  0.00     0.144 C 
HETATM    8  N2  UNL     1     189.305 124.684  30.424  1.00  0.00    -0.379 N 
ATOM      9  H22 UNL     1     190.130 124.085  30.399  1.00  0.00     0.158 HD
ATOM     10  H21 UNL     1     188.905 125.041  29.556  1.00  0.00     0.158 HD
BRANCH   7  11
HETATM   11  S3  UNL     1     189.447 124.381  33.056  1.00  0.00    -0.015 SA
BRANCH  11  12
HETATM   12  S2  UNL     1     188.532 122.603  33.701  1.00  0.00    -0.020 SA
BRANCH  12  13
HETATM   13  C6  UNL     1     187.685 121.782  32.377  1.00  0.00     0.148 C 
HETATM   14  S1  UNL     1     188.630 120.878  31.354  1.00  0.00    -0.052 SA
BRANCH  13  15
HETATM   15  N1  UNL     1     186.313 121.882  32.195  1.00  0.00    -0.363 N 
BRANCH  15  16
HETATM   16  C3  UNL     1     185.557 123.073  32.097  1.00  0.00     0.150 C 
BRANCH  16  17
HETATM   17  C2  UNL     1     185.172 123.746  33.344  1.00  0.00    -0.017 C 
HETATM   18  C1  UNL     1     183.893 123.992  33.593  1.00  0.00     0.008 C 
ENDBRANCH  16  17
ENDBRANCH  15  16
BRANCH  15  19
HETATM   19  C4  UNL     1     185.548 120.618  32.128  1.00  0.00     0.120 C 
HETATM   20  C5  UNL     1     184.342 120.784  31.252  1.00  0.00     0.026 C 
ENDBRANCH  15  19
ENDBRANCH  13  15
ENDBRANCH  12  13
ENDBRANCH  11  12
ENDBRANCH   7  11
ENDBRANCH   5   7
ENDBRANCH   4   5
ENDBRANCH   3   4
ENDBRANCH   2   3
ENDBRANCH   1   2
BRANCH   1  21
HETATM   21  C12 UNL     1     183.843 127.736  31.134  1.00  0.00     0.000 C 
BRANCH  21  22
HETATM   22  C13 UNL     1     184.090 126.324  30.715  1.00  0.00     0.002 C 
BRANCH  22  23
HETATM   23  C14 UNL     1     184.796 126.253  29.379  1.00  0.00     0.026 C 
BRANCH  23  24
HETATM   24  C15 UNL     1     183.858 125.938  28.246  1.00  0.00     0.170 C 
BRANCH  24  25
HETATM   25  O1  UNL     1     183.405 127.026  27.540  1.00  0.00    -0.357 OA
BRANCH  25  26
HETATM   26  C16 UNL     1     184.427 127.656  26.886  1.00  0.00     0.359 C 
HETATM   27  N4  UNL     1     184.540 127.272  25.494  1.00  0.00     0.004 N 
HETATM   28  C17 UNL     1     184.119 128.286  24.583  1.00  0.00     0.471 C 
ATOM     29  H42 UNL     1     185.490 126.969  25.280  1.00  0.00     0.286 HD
ATOM     30  H41 UNL     1     184.040 126.400  25.319  1.00  0.00     0.286 HD
HETATM   31  O3  UNL     1     184.852 129.468  24.649  1.00  0.00    -0.320 OA
HETATM   32  C18 UNL     1     185.316 129.718  25.942  1.00  0.00     0.220 C 
HETATM   33  C20 UNL     1     184.273 129.171  26.894  1.00  0.00     0.213 C 
BRANCH  28  34
HETATM   34  O2  UNL     1     184.291 127.788  23.286  1.00  0.00    -0.349 OA
ATOM     35  H2  UNL     1     184.870 128.383  22.825  1.00  0.00     0.214 HD
ENDBRANCH  28  34
BRANCH  32  36
HETATM   36  S4  UNL     1     186.915 128.927  26.105  1.00  0.00    -0.139 SA
HETATM   37  C19 UNL     1     188.307 130.037  25.942  1.00  0.00     0.092 C 
ENDBRANCH  32  36
BRANCH  33  38
HETATM   38  O4  UNL     1     184.470 129.694  28.170  1.00  0.00    -0.388 OA
ATOM     39  H4  UNL     1     184.012 130.519  28.281  1.00  0.00     0.210 HD
ENDBRANCH  33  38
ENDBRANCH  25  26
ENDBRANCH  24  25
ENDBRANCH  23  24
ENDBRANCH  22  23
ENDBRANCH  21  22
ENDBRANCH   1  21
TORSDOF 21
ENDMDL
MODEL 4
REMARK VINA RESULT: -6.371599460      2.031      3.241
REMARK  21 active torsions:
REMARK  status: ('A' for Active; 'I' for Inactive)
REMARK    1  A    between atoms: C2_2  and  C3_3 
REMARK    2  A    between atoms: C3_3  and  N1_4 
REMARK    3  A    between atoms: N1_4  and  C4_5 
REMARK    4  A    between atoms: N1_4  and  C6_7 
REMARK    5  A    between atoms: C6_7  and  S2_9 
REMARK    6  A    between atoms: S2_9  and  S3_10 
REMARK    7  A    between atoms: S3_10  and  C7_11 
REMARK    8  A    between atoms: C7_11  and  N3_15 
REMARK    9  A    between atoms: N3_15  and  C8_17 
REMARK   10  A    between atoms: C8_17  and  C9_18 
REMARK   11  A    between atoms: C9_18  and  C10_19 
REMARK   12  A    between atoms: C10_19  and  C11_20 
REMARK   13  A    between atoms: C11_20  and  C12_21 
REMARK   14  A    between atoms: C12_21  and  C13_22 
REMARK   15  A    between atoms: C13_22  and  C14_23 
REMARK   16  A    between atoms: C14_23  and  C15_24 
REMARK   17  A    between atoms: C15_24  and  O1_25 
REMARK   18  A    between atoms: O1_25  and  C16_26 
REMARK   19  A    between atoms: C17_30  and  O2_31 
REMARK   20  A    between atoms: C18_34  and  S4_35 
REMARK   21  A    between atoms: C20_37  and  O4_38 
ROOT
HETATM    1  C11 UNL     1     187.208 127.581  32.170  1.00  0.00     0.000 C 
ENDROOT
BRANCH   1   2
HETATM    2  C10 UNL     1     187.342 126.467  33.162  1.00  0.00     0.002 C 
BRANCH   2   3
HETATM    3  C9  UNL     1     188.746 126.343  33.661  1.00  0.00     0.020 C 
BRANCH   3   4
HETATM    4  C8  UNL     1     189.468 125.212  32.962  1.00  0.00     0.121 C 
BRANCH   4   5
HETATM    5  N3  UNL     1     188.559 124.288  32.310  1.00  0.00    -0.370 N 
ATOM      6  H3  UNL     1     188.076 124.585  31.463  1.00  0.00     0.161 HD
BRANCH   5   7
HETATM    7  C7  UNL     1     188.324 122.997  32.813  1.00  0.00     0.144 C 
HETATM    8  N2  UNL     1     188.403 122.747  34.071  1.00  0.00    -0.379 N 
ATOM      9  H22 UNL     1     188.233 121.811  34.437  1.00  0.00     0.158 HD
ATOM     10  H21 UNL     1     188.641 123.510  34.707  1.00  0.00     0.158 HD
BRANCH   7  11
HETATM   11  S3  UNL     1     187.908 121.664  31.701  1.00  0.00    -0.015 SA
BRANCH  11  12
HETATM   12  S2  UNL     1     186.203 120.599  32.312  1.00  0.00    -0.020 SA
BRANCH  12  13
HETATM   13  C6  UNL     1     184.709 121.373  31.752  1.00  0.00     0.148 C 
HETATM   14  S1  UNL     1     183.345 120.427  31.772  1.00  0.00    -0.052 SA
BRANCH  13  15
HETATM   15  N1  UNL     1     184.670 122.690  31.320  1.00  0.00    -0.363 N 
BRANCH  15  16
HETATM   16  C3  UNL     1     184.931 123.843  32.096  1.00  0.00     0.150 C 
BRANCH  16  17
HETATM   17  C2  UNL     1     184.112 124.064  33.294  1.00  0.00    -0.017 C 
HETATM   18  C1  UNL     1     183.591 125.261  33.527  1.00  0.00     0.008 C 
ENDBRANCH  16  17
ENDBRANCH  15  16
BRANCH  15  19
HETATM   19  C4  UNL     1     184.283 122.927  29.913  1.00  0.00     0.120 C 
HETATM   20  C5  UNL     1     184.379 124.387  29.584  1.00  0.00     0.026 C 
ENDBRANCH  15  19
ENDBRANCH  13  15
ENDBRANCH  12  13
ENDBRANCH  11  12
ENDBRANCH   7  11
ENDBRANCH   5   7
ENDBRANCH   4   5
ENDBRANCH   3   4
ENDBRANCH   2   3
ENDBRANCH   1   2
BRANCH   1  21
HETATM   21  C12 UNL     1     185.859 127.456  31.487  1.00  0.00     0.000 C 
BRANCH  21  22
HETATM   22  C13 UNL     1     184.890 128.522  31.883  1.00  0.00     0.002 C 
BRANCH  22  23
HETATM   23  C14 UNL     1     183.594 128.413  31.110  1.00  0.00     0.026 C 
BRANCH  23  24
HETATM   24  C15 UNL     1     183.812 128.068  29.662  1.00  0.00     0.170 C 
BRANCH  24  25
HETATM   25  O1  UNL     1     184.160 129.124  28.854  1.00  0.00    -0.357 OA
BRANCH  25  26
HETATM   26  C16 UNL     1     184.299 128.729  27.553  1.00  0.00     0.359 C 
HETATM   27  N4  UNL     1     183.235 129.204  26.692  1.00  0.00     0.004 N 
HETATM   28  C17 UNL     1     183.639 130.244  25.802  1.00  0.00     0.471 C 
ATOM     29  H42 UNL     1     182.818 128.431  26.174  1.00  0.00     0.286 HD
ATOM     30  H41 UNL     1     182.428 129.496  27.244  1.00  0.00     0.286 HD
HETATM   31  O3  UNL     1     184.640 129.885  24.904  1.00  0.00    -0.320 OA
HETATM   32  C18 UNL     1     185.509 128.937  25.449  1.00  0.00     0.220 C 
HETATM   33  C20 UNL     1     185.598 129.227  26.933  1.00  0.00     0.213 C 
BRANCH  28  34
HETATM   34  O2  UNL     1     182.526 130.597  25.030  1.00  0.00    -0.349 OA
ATOM     35  H2  UNL     1     182.228 131.448  25.327  1.00  0.00     0.214 HD
ENDBRANCH  28  34
BRANCH  32  36
HETATM   36  S4  UNL     1     184.843 127.316  25.077  1.00  0.00    -0.139 SA
HETATM   37  C19 UNL     1     186.034 126.164  24.408  1.00  0.00     0.092 C 
ENDBRANCH  32  36
BRANCH  33  38
HETATM   38  O4  UNL     1     186.703 128.579  27.481  1.00  0.00    -0.388 OA
ATOM     39  H4  UNL     1     187.100 129.097  28.172  1.00  0.00     0.210 HD
ENDBRANCH  33  38
ENDBRANCH  25  26
ENDBRANCH  24  25
ENDBRANCH  23  24
ENDBRANCH  22  23
ENDBRANCH  21  22
ENDBRANCH   1  21
TORSDOF 21
ENDMDL
MODEL 5
REMARK VINA RESULT: -6.353582156      2.673      4.657
REMARK  21 active torsions:
REMARK  status: ('A' for Active; 'I' for Inactive)
REMARK    1  A    between atoms: C2_2  and  C3_3 
REMARK    2  A    between atoms: C3_3  and  N1_4 
REMARK    3  A    between atoms: N1_4  and  C4_5 
REMARK    4  A    between atoms: N1_4  and  C6_7 
REMARK    5  A    between atoms: C6_7  and  S2_9 
REMARK    6  A    between atoms: S2_9  and  S3_10 
REMARK    7  A    between atoms: S3_10  and  C7_11 
REMARK    8  A    between atoms: C7_11  and  N3_15 
REMARK    9  A    between atoms: N3_15  and  C8_17 
REMARK   10  A    between atoms: C8_17  and  C9_18 
REMARK   11  A    between atoms: C9_18  and  C10_19 
REMARK   12  A    between atoms: C10_19  and  C11_20 
REMARK   13  A    between atoms: C11_20  and  C12_21 
REMARK   14  A    between atoms: C12_21  and  C13_22 
REMARK   15  A    between atoms: C13_22  and  C14_23 
REMARK   16  A    between atoms: C14_23  and  C15_24 
REMARK   17  A    between atoms: C15_24  and  O1_25 
REMARK   18  A    between atoms: O1_25  and  C16_26 
REMARK   19  A    between atoms: C17_30  and  O2_31 
REMARK   20  A    between atoms: C18_34  and  S4_35 
REMARK   21  A    between atoms: C20_37  and  O4_38 
ROOT
HETATM    1  C11 UNL     1     184.180 124.075  33.393  1.00  0.00     0.000 C 
ENDROOT
BRANCH   1   2
HETATM    2  C10 UNL     1     184.437 123.368  32.098  1.00  0.00     0.002 C 
BRANCH   2   3
HETATM    3  C9  UNL     1     185.485 122.311  32.249  1.00  0.00     0.020 C 
BRANCH   3   4
HETATM    4  C8  UNL     1     186.717 122.869  32.926  1.00  0.00     0.121 C 
BRANCH   4   5
HETATM    5  N3  UNL     1     187.539 123.657  32.027  1.00  0.00    -0.370 N 
ATOM      6  H3  UNL     1     187.713 124.637  32.247  1.00  0.00     0.161 HD
BRANCH   5   7
HETATM    7  C7  UNL     1     188.102 123.110  30.861  1.00  0.00     0.144 C 
HETATM    8  N2  UNL     1     187.987 123.702  29.725  1.00  0.00    -0.379 N 
ATOM      9  H22 UNL     1     188.395 123.305  28.879  1.00  0.00     0.158 HD
ATOM     10  H21 UNL     1     187.475 124.584  29.683  1.00  0.00     0.158 HD
BRANCH   7  11
HETATM   11  S3  UNL     1     188.996 121.567  30.935  1.00  0.00    -0.015 SA
BRANCH  11  12
HETATM   12  S2  UNL     1     190.635 121.641  32.249  1.00  0.00    -0.020 SA
BRANCH  12  13
HETATM   13  C6  UNL     1     191.216 123.299  32.482  1.00  0.00     0.148 C 
HETATM   14  S1  UNL     1     191.130 123.892  34.031  1.00  0.00    -0.052 SA
BRANCH  13  15
HETATM   15  N1  UNL     1     191.714 124.067  31.440  1.00  0.00    -0.363 N 
BRANCH  15  16
HETATM   16  C3  UNL     1     192.386 123.597  30.288  1.00  0.00     0.150 C 
BRANCH  16  17
HETATM   17  C2  UNL     1     193.759 123.104  30.449  1.00  0.00    -0.017 C 
HETATM   18  C1  UNL     1     194.023 121.816  30.276  1.00  0.00     0.008 C 
ENDBRANCH  16  17
ENDBRANCH  15  16
BRANCH  15  19
HETATM   19  C4  UNL     1     191.562 125.534  31.551  1.00  0.00     0.120 C 
HETATM   20  C5  UNL     1     190.567 126.034  30.546  1.00  0.00     0.026 C 
ENDBRANCH  15  19
ENDBRANCH  13  15
ENDBRANCH  12  13
ENDBRANCH  11  12
ENDBRANCH   7  11
ENDBRANCH   5   7
ENDBRANCH   4   5
ENDBRANCH   3   4
ENDBRANCH   2   3
ENDBRANCH   1   2
BRANCH   1  21
HETATM   21  C12 UNL     1     183.745 125.495  33.086  1.00  0.00     0.000 C 
BRANCH  21  22
HETATM   22  C13 UNL     1     184.021 125.912  31.678  1.00  0.00     0.002 C 
BRANCH  22  23
HETATM   23  C14 UNL     1     183.693 127.372  31.452  1.00  0.00     0.026 C 
BRANCH  23  24
HETATM   24  C15 UNL     1     184.065 127.840  30.072  1.00  0.00     0.170 C 
BRANCH  24  25
HETATM   25  O1  UNL     1     183.484 127.142  29.041  1.00  0.00    -0.357 OA
BRANCH  25  26
HETATM   26  C16 UNL     1     183.746 127.729  27.834  1.00  0.00     0.359 C 
HETATM   27  N4  UNL     1     184.892 127.159  27.155  1.00  0.00     0.004 N 
HETATM   28  C17 UNL     1     184.550 126.358  26.026  1.00  0.00     0.471 C 
ATOM     29  H42 UNL     1     185.554 127.889  26.891  1.00  0.00     0.286 HD
ATOM     30  H41 UNL     1     185.472 126.632  27.808  1.00  0.00     0.286 HD
HETATM   31  O3  UNL     1     183.883 127.039  25.010  1.00  0.00    -0.320 OA
HETATM   32  C18 UNL     1     183.084 128.067  25.514  1.00  0.00     0.220 C 
HETATM   33  C20 UNL     1     182.578 127.606  26.865  1.00  0.00     0.213 C 
BRANCH  28  34
HETATM   34  O2  UNL     1     185.742 125.885  25.466  1.00  0.00    -0.349 OA
ATOM     35  H2  UNL     1     186.014 126.506  24.801  1.00  0.00     0.214 HD
ENDBRANCH  28  34
BRANCH  32  36
HETATM   36  S4  UNL     1     184.094 129.545  25.598  1.00  0.00    -0.139 SA
HETATM   37  C19 UNL     1     183.169 131.058  25.825  1.00  0.00     0.092 C 
ENDBRANCH  32  36
BRANCH  33  38
HETATM   38  O4  UNL     1     181.500 128.393  27.265  1.00  0.00    -0.388 OA
ATOM     39  H4  UNL     1     181.084 128.041  28.044  1.00  0.00     0.210 HD
ENDBRANCH  33  38
ENDBRANCH  25  26
ENDBRANCH  24  25
ENDBRANCH  23  24
ENDBRANCH  22  23
ENDBRANCH  21  22
ENDBRANCH   1  21
TORSDOF 21
ENDMDL
