MODEL 1
REMARK VINA RESULT: -7.220907187      0.000      0.000
REMARK  16 active torsions:
REMARK  status: ('A' for Active; 'I' for Inactive)
REMARK    1  A    between atoms: C2_2  and  N1_3 
REMARK       I    between atoms: N1_3  and  C3_5 
REMARK       I    between atoms: C3_5  and  N4_10 
REMARK    2  A    between atoms: N4_10  and  C5_12 
REMARK    3  A    between atoms: C5_12  and  C6_13 
REMARK    4  A    between atoms: C6_13  and  C7_14 
REMARK    5  A    between atoms: C7_14  and  C8_15 
REMARK    6  A    between atoms: C8_15  and  C9_16 
REMARK    7  A    between atoms: C9_16  and  C10_17 
REMARK    8  A    between atoms: C10_17  and  C11_18 
REMARK    9  A    between atoms: C11_18  and  C12_19 
REMARK   10  A    between atoms: C12_19  and  C13_20 
REMARK   11  A    between atoms: C13_20  and  C14_21 
REMARK   12  A    between atoms: C14_21  and  N5_22 
REMARK   13  A    between atoms: C16_24  and  C17_25 
REMARK   14  A    between atoms: C20_28  and  C21_29 
REMARK   15  A    between atoms: C21_29  and  C22_30 
REMARK   16  A    between atoms: C24_36  and  O2_37 
ROOT
HETATM    1  N1  UNL     1     183.799 121.691  31.480  1.00  0.00    -0.226 N 
ATOM      2  H1  UNL     1     183.075 122.403  31.575  1.00  0.00     0.177 HD
HETATM    3  C3  UNL     1     185.140 122.085  31.215  1.00  0.00     0.682 C 
HETATM    4  N2  UNL     1     185.287 123.177  30.502  1.00  0.00    -0.126 N 
ATOM      5  H2  UNL     1     184.461 123.681  30.179  1.00  0.00     0.197 HD
HETATM    6  C4  UNL     1     186.570 123.666  30.176  1.00  0.00     0.196 C 
HETATM    7  N3  UNL     1     187.623 124.073  29.887  1.00  0.00    -0.171 NA
HETATM    8  N4  UNL     1     186.276 121.387  31.662  1.00  0.00    -0.226 N 
ATOM      9  H4  UNL     1     186.573 120.546  31.167  1.00  0.00     0.177 HD
ENDROOT
BRANCH   1  10
HETATM   10  C2  UNL     1     183.448 120.296  31.616  1.00  0.00     0.133 C 
HETATM   11  C1  UNL     1     182.058 120.187  32.207  1.00  0.00     0.027 C 
ENDBRANCH   1  10
BRANCH   8  12
HETATM   12  C5  UNL     1     187.044 121.844  32.830  1.00  0.00     0.138 C 
BRANCH  12  13
HETATM   13  C6  UNL     1     188.502 121.607  32.596  1.00  0.00     0.020 C 
BRANCH  13  14
HETATM   14  C7  UNL     1     188.709 120.667  31.458  1.00  0.00     0.002 C 
BRANCH  14  15
HETATM   15  C8  UNL     1     189.768 121.199  30.532  1.00  0.00     0.000 C 
BRANCH  15  16
HETATM   16  C9  UNL     1     191.119 120.862  31.206  1.00  0.00     0.000 C 
BRANCH  16  17
HETATM   17  C10 UNL     1     191.983 122.092  31.173  1.00  0.00     0.000 C 
BRANCH  17  18
HETATM   18  C11 UNL     1     193.204 121.893  30.294  1.00  0.00     0.000 C 
BRANCH  18  19
HETATM   19  C12 UNL     1     193.140 122.809  29.112  1.00  0.00     0.002 C 
BRANCH  19  20
HETATM   20  C13 UNL     1     194.003 124.004  29.327  1.00  0.00     0.022 C 
BRANCH  20  21
HETATM   21  C14 UNL     1     193.248 125.276  29.231  1.00  0.00     0.150 C 
BRANCH  21  22
HETATM   22  N5  UNL     1     192.386 125.505  30.384  1.00  0.00    -0.287 N 
HETATM   23  C15 UNL     1     191.069 125.724  30.438  1.00  0.00     0.144 A 
HETATM   24  C16 UNL     1     190.681 125.907  31.745  1.00  0.00     0.083 A 
HETATM   25  N7  UNL     1     191.797 125.791  32.466  1.00  0.00    -0.284 N 
HETATM   26  N8  UNL     1     192.817 125.551  31.664  1.00  0.00    -0.240 N 
ATOM     27  H7  UNL     1     191.853 125.875  33.481  1.00  0.00     0.188 HD
ATOM     28  H8  UNL     1     193.783 125.420  31.964  1.00  0.00     0.208 HD
BRANCH  24  29
HETATM   29  C17 UNL     1     189.314 126.169  32.227  1.00  0.00     0.035 A 
HETATM   30  C18 UNL     1     188.556 125.311  32.982  1.00  0.00     0.022 A 
HETATM   31  C19 UNL     1     187.334 125.724  33.336  1.00  0.00     0.016 A 
HETATM   32  C20 UNL     1     186.939 126.965  32.920  1.00  0.00    -0.012 A 
HETATM   33  S2  UNL     1     188.300 127.518  32.040  1.00  0.00    -0.092 SA
BRANCH  32  34
HETATM   34  C21 UNL     1     185.651 127.704  33.145  1.00  0.00     0.097 C 
BRANCH  34  35
HETATM   35  C22 UNL     1     185.026 127.858  31.783  1.00  0.00     0.043 A 
HETATM   36  S1  UNL     1     185.103 129.179  30.701  1.00  0.00    -0.029 SA
HETATM   37  C23 UNL     1     184.156 128.523  29.444  1.00  0.00     0.290 A 
HETATM   38  O1  UNL     1     183.821 129.029  28.312  1.00  0.00    -0.260 OA
HETATM   39  N6  UNL     1     183.823 127.321  29.911  1.00  0.00    -0.297 N 
HETATM   40  C24 UNL     1     184.252 126.966  31.090  1.00  0.00     0.157 A 
ATOM     41  H6  UNL     1     183.244 126.690  29.357  1.00  0.00     0.171 HD
BRANCH  40  42
HETATM   42  O2  UNL     1     183.941 125.695  31.665  1.00  0.00    -0.345 OA
ATOM     43  H2  UNL     1     183.368 125.644  32.421  1.00  0.00     0.219 HD
ENDBRANCH  40  42
ENDBRANCH  34  35
ENDBRANCH  32  34
ENDBRANCH  24  29
ENDBRANCH  21  22
ENDBRANCH  20  21
ENDBRANCH  19  20
ENDBRANCH  18  19
ENDBRANCH  17  18
ENDBRANCH  16  17
ENDBRANCH  15  16
ENDBRANCH  14  15
ENDBRANCH  13  14
ENDBRANCH  12  13
ENDBRANCH   8  12
TORSDOF 16
ENDMDL
MODEL 2
REMARK VINA RESULT: -7.175691213      2.474      6.783
REMARK  16 active torsions:
REMARK  status: ('A' for Active; 'I' for Inactive)
REMARK    1  A    between atoms: C2_2  and  N1_3 
REMARK       I    between atoms: N1_3  and  C3_5 
REMARK       I    between atoms: C3_5  and  N4_10 
REMARK    2  A    between atoms: N4_10  and  C5_12 
REMARK    3  A    between atoms: C5_12  and  C6_13 
REMARK    4  A    between atoms: C6_13  and  C7_14 
REMARK    5  A    between atoms: C7_14  and  C8_15 
REMARK    6  A    between atoms: C8_15  and  C9_16 
REMARK    7  A    between atoms: C9_16  and  C10_17 
REMARK    8  A    between atoms: C10_17  and  C11_18 
REMARK    9  A    between atoms: C11_18  and  C12_19 
REMARK   10  A    between atoms: C12_19  and  C13_20 
REMARK   11  A    between atoms: C13_20  and  C14_21 
REMARK   12  A    between atoms: C14_21  and  N5_22 
REMARK   13  A    between atoms: C16_24  and  C17_25 
REMARK   14  A    between atoms: C20_28  and  C21_29 
REMARK   15  A    between atoms: C21_29  and  C22_30 
REMARK   16  A    between atoms: C24_36  and  O2_37 
ROOT
HETATM    1  N1  UNL     1     192.310 123.520  29.436  1.00  0.00    -0.226 N 
ATOM      2  H1  UNL     1     192.077 123.480  28.444  1.00  0.00     0.177 HD
HETATM    3  C3  UNL     1     192.449 124.783  30.075  1.00  0.00     0.682 C 
HETATM    4  N2  UNL     1     192.898 125.760  29.322  1.00  0.00    -0.126 N 
ATOM      5  H2  UNL     1     193.122 125.578  28.343  1.00  0.00     0.197 HD
HETATM    6  C4  UNL     1     193.078 127.058  29.845  1.00  0.00     0.196 C 
HETATM    7  N3  UNL     1     193.245 128.131  30.267  1.00  0.00    -0.171 NA
HETATM    8  N4  UNL     1     192.140 125.029  31.424  1.00  0.00    -0.226 N 
ATOM      9  H4  UNL     1     192.802 124.748  32.148  1.00  0.00     0.177 HD
ENDROOT
BRANCH   1  10
HETATM   10  C2  UNL     1     192.493 122.291  30.174  1.00  0.00     0.133 C 
HETATM   11  C1  UNL     1     193.970 121.957  30.227  1.00  0.00     0.027 C 
ENDBRANCH   1  10
BRANCH   8  12
HETATM   12  C5  UNL     1     190.882 125.684  31.814  1.00  0.00     0.138 C 
BRANCH  12  13
HETATM   13  C6  UNL     1     189.885 124.651  32.230  1.00  0.00     0.020 C 
BRANCH  13  14
HETATM   14  C7  UNL     1     188.882 124.420  31.152  1.00  0.00     0.002 C 
BRANCH  14  15
HETATM   15  C8  UNL     1     188.110 123.158  31.424  1.00  0.00     0.000 C 
BRANCH  15  16
HETATM   16  C9  UNL     1     189.001 122.003  30.909  1.00  0.00     0.000 C 
BRANCH  16  17
HETATM   17  C10 UNL     1     188.499 120.717  31.505  1.00  0.00     0.000 C 
BRANCH  17  18
HETATM   18  C11 UNL     1     187.362 120.961  32.479  1.00  0.00     0.000 C 
BRANCH  18  19
HETATM   19  C12 UNL     1     186.214 120.052  32.166  1.00  0.00     0.002 C 
BRANCH  19  20
HETATM   20  C13 UNL     1     184.933 120.811  32.150  1.00  0.00     0.022 C 
BRANCH  20  21
HETATM   21  C14 UNL     1     184.726 121.551  30.882  1.00  0.00     0.150 C 
BRANCH  21  22
HETATM   22  N5  UNL     1     184.560 122.984  31.090  1.00  0.00    -0.287 N 
HETATM   23  C15 UNL     1     184.593 123.986  30.206  1.00  0.00     0.144 A 
HETATM   24  C16 UNL     1     184.406 125.184  30.856  1.00  0.00     0.083 A 
HETATM   25  N7  UNL     1     184.260 124.871  32.145  1.00  0.00    -0.284 N 
HETATM   26  N8  UNL     1     184.350 123.563  32.293  1.00  0.00    -0.240 N 
ATOM     27  H7  UNL     1     184.103 125.540  32.899  1.00  0.00     0.188 HD
ATOM     28  H8  UNL     1     184.272 123.065  33.180  1.00  0.00     0.208 HD
BRANCH  24  29
HETATM   29  C17 UNL     1     184.371 126.521  30.239  1.00  0.00     0.035 A 
HETATM   30  C18 UNL     1     183.735 127.621  30.755  1.00  0.00     0.022 A 
HETATM   31  C19 UNL     1     183.819 128.759  30.056  1.00  0.00     0.016 A 
HETATM   32  C20 UNL     1     184.530 128.737  28.889  1.00  0.00    -0.012 A 
HETATM   33  S2  UNL     1     185.063 127.111  28.804  1.00  0.00    -0.092 SA
BRANCH  32  34
HETATM   34  C21 UNL     1     184.805 129.828  27.893  1.00  0.00     0.097 C 
BRANCH  34  35
HETATM   35  C22 UNL     1     184.532 129.222  26.541  1.00  0.00     0.043 A 
HETATM   36  S1  UNL     1     185.623 128.505  25.438  1.00  0.00    -0.029 SA
HETATM   37  C23 UNL     1     184.505 128.097  24.216  1.00  0.00     0.290 A 
HETATM   38  O1  UNL     1     184.692 127.516  23.086  1.00  0.00    -0.260 OA
HETATM   39  N6  UNL     1     183.346 128.529  24.709  1.00  0.00    -0.297 N 
HETATM   40  C24 UNL     1     183.338 129.101  25.882  1.00  0.00     0.157 A 
ATOM     41  H6  UNL     1     182.482 128.415  24.181  1.00  0.00     0.171 HD
BRANCH  40  42
HETATM   42  O2  UNL     1     182.138 129.593  26.483  1.00  0.00    -0.345 OA
ATOM     43  H2  UNL     1     181.730 129.109  27.191  1.00  0.00     0.219 HD
ENDBRANCH  40  42
ENDBRANCH  34  35
ENDBRANCH  32  34
ENDBRANCH  24  29
ENDBRANCH  21  22
ENDBRANCH  20  21
ENDBRANCH  19  20
ENDBRANCH  18  19
ENDBRANCH  17  18
ENDBRANCH  16  17
ENDBRANCH  15  16
ENDBRANCH  14  15
ENDBRANCH  13  14
ENDBRANCH  12  13
ENDBRANCH   8  12
TORSDOF 16
ENDMDL
MODEL 3
REMARK VINA RESULT: -7.124110188      3.688      6.035
REMARK  16 active torsions:
REMARK  status: ('A' for Active; 'I' for Inactive)
REMARK    1  A    between atoms: C2_2  and  N1_3 
REMARK       I    between atoms: N1_3  and  C3_5 
REMARK       I    between atoms: C3_5  and  N4_10 
REMARK    2  A    between atoms: N4_10  and  C5_12 
REMARK    3  A    between atoms: C5_12  and  C6_13 
REMARK    4  A    between atoms: C6_13  and  C7_14 
REMARK    5  A    between atoms: C7_14  and  C8_15 
REMARK    6  A    between atoms: C8_15  and  C9_16 
REMARK    7  A    between atoms: C9_16  and  C10_17 
REMARK    8  A    between atoms: C10_17  and  C11_18 
REMARK    9  A    between atoms: C11_18  and  C12_19 
REMARK   10  A    between atoms: C12_19  and  C13_20 
REMARK   11  A    between atoms: C13_20  and  C14_21 
REMARK   12  A    between atoms: C14_21  and  N5_22 
REMARK   13  A    between atoms: C16_24  and  C17_25 
REMARK   14  A    between atoms: C20_28  and  C21_29 
REMARK   15  A    between atoms: C21_29  and  C22_30 
REMARK   16  A    between atoms: C24_36  and  O2_37 
ROOT
HETATM    1  N1  UNL     1     184.694 121.331  30.911  1.00  0.00    -0.226 N 
ATOM      2  H1  UNL     1     185.242 120.910  30.161  1.00  0.00     0.177 HD
HETATM    3  C3  UNL     1     185.355 122.051  31.945  1.00  0.00     0.682 C 
HETATM    4  N2  UNL     1     186.560 121.632  32.255  1.00  0.00    -0.126 N 
ATOM      5  H2  UNL     1     186.958 120.835  31.758  1.00  0.00     0.197 HD
HETATM    6  C4  UNL     1     187.313 122.267  33.265  1.00  0.00     0.196 C 
HETATM    7  N3  UNL     1     187.942 122.773  34.106  1.00  0.00    -0.171 NA
HETATM    8  N4  UNL     1     184.803 123.150  32.626  1.00  0.00    -0.226 N 
ATOM      9  H4  UNL     1     184.122 122.986  33.368  1.00  0.00     0.177 HD
ENDROOT
BRANCH   1  10
HETATM   10  C2  UNL     1     183.256 121.189  30.909  1.00  0.00     0.133 C 
HETATM   11  C1  UNL     1     182.858 120.132  31.919  1.00  0.00     0.027 C 
ENDBRANCH   1  10
BRANCH   8  12
HETATM   12  C5  UNL     1     185.187 124.529  32.292  1.00  0.00     0.138 C 
BRANCH  12  13
HETATM   13  C6  UNL     1     184.240 125.082  31.274  1.00  0.00     0.020 C 
BRANCH  13  14
HETATM   14  C7  UNL     1     183.771 126.439  31.672  1.00  0.00     0.002 C 
BRANCH  14  15
HETATM   15  C8  UNL     1     184.902 127.221  32.282  1.00  0.00     0.000 C 
BRANCH  15  16
HETATM   16  C9  UNL     1     184.846 128.620  31.627  1.00  0.00     0.000 C 
BRANCH  16  17
HETATM   17  C10 UNL     1     185.612 129.580  32.494  1.00  0.00     0.000 C 
BRANCH  17  18
HETATM   18  C11 UNL     1     185.900 128.988  33.861  1.00  0.00     0.000 C 
BRANCH  18  19
HETATM   19  C12 UNL     1     187.349 129.158  34.199  1.00  0.00     0.002 C 
BRANCH  19  20
HETATM   20  C13 UNL     1     188.127 127.954  33.795  1.00  0.00     0.022 C 
BRANCH  20  21
HETATM   21  C14 UNL     1     189.401 128.299  33.122  1.00  0.00     0.150 C 
BRANCH  21  22
HETATM   22  N5  UNL     1     189.197 128.930  31.824  1.00  0.00    -0.287 N 
HETATM   23  C15 UNL     1     188.640 128.440  30.713  1.00  0.00     0.144 A 
HETATM   24  C16 UNL     1     188.677 129.389  29.717  1.00  0.00     0.083 A 
HETATM   25  N7  UNL     1     189.267 130.454  30.263  1.00  0.00    -0.284 N 
HETATM   26  N8  UNL     1     189.579 130.189  31.517  1.00  0.00    -0.240 N 
ATOM     27  H7  UNL     1     189.449 131.336  29.784  1.00  0.00     0.188 HD
ATOM     28  H8  UNL     1     190.039 130.837  32.158  1.00  0.00     0.208 HD
BRANCH  24  29
HETATM   29  C17 UNL     1     188.162 129.242  28.345  1.00  0.00     0.035 A 
HETATM   30  C18 UNL     1     188.642 129.896  27.239  1.00  0.00     0.022 A 
HETATM   31  C19 UNL     1     188.053 129.630  26.068  1.00  0.00     0.016 A 
HETATM   32  C20 UNL     1     187.024 128.730  26.065  1.00  0.00    -0.012 A 
HETATM   33  S2  UNL     1     186.911 128.282  27.714  1.00  0.00    -0.092 SA
BRANCH  32  34
HETATM   34  C21 UNL     1     186.171 128.228  24.935  1.00  0.00     0.097 C 
BRANCH  34  35
HETATM   35  C22 UNL     1     184.769 128.156  25.484  1.00  0.00     0.043 A 
HETATM   36  S1  UNL     1     183.663 129.421  25.794  1.00  0.00    -0.029 SA
HETATM   37  C23 UNL     1     182.367 128.479  26.375  1.00  0.00     0.290 A 
HETATM   38  O1  UNL     1     181.205 128.837  26.787  1.00  0.00    -0.260 OA
HETATM   39  N6  UNL     1     182.840 127.236  26.305  1.00  0.00    -0.297 N 
HETATM   40  C24 UNL     1     184.051 127.051  25.858  1.00  0.00     0.157 A 
ATOM     41  H6  UNL     1     182.267 126.444  26.594  1.00  0.00     0.171 HD
BRANCH  40  42
HETATM   42  O2  UNL     1     184.636 125.751  25.751  1.00  0.00    -0.345 OA
ATOM     43  H2  UNL     1     184.536 125.127  26.460  1.00  0.00     0.219 HD
ENDBRANCH  40  42
ENDBRANCH  34  35
ENDBRANCH  32  34
ENDBRANCH  24  29
ENDBRANCH  21  22
ENDBRANCH  20  21
ENDBRANCH  19  20
ENDBRANCH  18  19
ENDBRANCH  17  18
ENDBRANCH  16  17
ENDBRANCH  15  16
ENDBRANCH  14  15
ENDBRANCH  13  14
ENDBRANCH  12  13
ENDBRANCH   8  12
TORSDOF 16
ENDMDL
MODEL 4
REMARK VINA RESULT: -7.120008845      4.851      8.211
REMARK  16 active torsions:
REMARK  status: ('A' for Active; 'I' for Inactive)
REMARK    1  A    between atoms: C2_2  and  N1_3 
REMARK       I    between atoms: N1_3  and  C3_5 
REMARK       I    between atoms: C3_5  and  N4_10 
REMARK    2  A    between atoms: N4_10  and  C5_12 
REMARK    3  A    between atoms: C5_12  and  C6_13 
REMARK    4  A    between atoms: C6_13  and  C7_14 
REMARK    5  A    between atoms: C7_14  and  C8_15 
REMARK    6  A    between atoms: C8_15  and  C9_16 
REMARK    7  A    between atoms: C9_16  and  C10_17 
REMARK    8  A    between atoms: C10_17  and  C11_18 
REMARK    9  A    between atoms: C11_18  and  C12_19 
REMARK   10  A    between atoms: C12_19  and  C13_20 
REMARK   11  A    between atoms: C13_20  and  C14_21 
REMARK   12  A    between atoms: C14_21  and  N5_22 
REMARK   13  A    between atoms: C16_24  and  C17_25 
REMARK   14  A    between atoms: C20_28  and  C21_29 
REMARK   15  A    between atoms: C21_29  and  C22_30 
REMARK   16  A    between atoms: C24_36  and  O2_37 
ROOT
HETATM    1  N1  UNL     1     185.336 124.624  31.568  1.00  0.00    -0.226 N 
ATOM      2  H1  UNL     1     186.334 124.726  31.752  1.00  0.00     0.177 HD
HETATM    3  C3  UNL     1     184.840 124.829  30.251  1.00  0.00     0.682 C 
HETATM    4  N2  UNL     1     185.489 125.710  29.525  1.00  0.00    -0.126 N 
ATOM      5  H2  UNL     1     186.294 126.194  29.923  1.00  0.00     0.197 HD
HETATM    6  C4  UNL     1     185.090 125.998  28.203  1.00  0.00     0.196 C 
HETATM    7  N3  UNL     1     184.763 126.257  27.114  1.00  0.00    -0.171 NA
HETATM    8  N4  UNL     1     183.730 124.160  29.707  1.00  0.00    -0.226 N 
ATOM      9  H4  UNL     1     182.790 124.467  29.957  1.00  0.00     0.177 HD
ENDROOT
BRANCH   1  10
HETATM   10  C2  UNL     1     184.445 124.272  32.650  1.00  0.00     0.133 C 
HETATM   11  C1  UNL     1     183.712 125.513  33.117  1.00  0.00     0.027 C 
ENDBRANCH   1  10
BRANCH   8  12
HETATM   12  C5  UNL     1     183.896 123.028  28.783  1.00  0.00     0.138 C 
BRANCH  12  13
HETATM   13  C6  UNL     1     182.855 121.993  29.065  1.00  0.00     0.020 C 
BRANCH  13  14
HETATM   14  C7  UNL     1     183.473 120.763  29.638  1.00  0.00     0.002 C 
BRANCH  14  15
HETATM   15  C8  UNL     1     182.596 120.200  30.723  1.00  0.00     0.000 C 
BRANCH  15  16
HETATM   16  C9  UNL     1     183.442 120.257  32.016  1.00  0.00     0.000 C 
BRANCH  16  17
HETATM   17  C10 UNL     1     184.824 120.729  31.657  1.00  0.00     0.000 C 
BRANCH  17  18
HETATM   18  C11 UNL     1     185.883 120.052  32.507  1.00  0.00     0.000 C 
BRANCH  18  19
HETATM   19  C12 UNL     1     187.246 120.348  31.961  1.00  0.00     0.002 C 
BRANCH  19  20
HETATM   20  C13 UNL     1     187.742 121.656  32.473  1.00  0.00     0.022 C 
BRANCH  20  21
HETATM   21  C14 UNL     1     188.354 122.487  31.409  1.00  0.00     0.150 C 
BRANCH  21  22
HETATM   22  N5  UNL     1     189.804 122.346  31.351  1.00  0.00    -0.287 N 
HETATM   23  C15 UNL     1     190.762 123.216  31.682  1.00  0.00     0.144 A 
HETATM   24  C16 UNL     1     191.998 122.660  31.445  1.00  0.00     0.083 A 
HETATM   25  N7  UNL     1     191.752 121.438  30.967  1.00  0.00    -0.284 N 
HETATM   26  N8  UNL     1     190.448 121.243  30.909  1.00  0.00    -0.240 N 
ATOM     27  H7  UNL     1     192.462 120.760  30.689  1.00  0.00     0.188 HD
ATOM     28  H8  UNL     1     189.995 120.390  30.580  1.00  0.00     0.208 HD
BRANCH  24  29
HETATM   29  C17 UNL     1     193.306 123.293  31.681  1.00  0.00     0.035 A 
HETATM   30  C18 UNL     1     194.469 122.993  31.017  1.00  0.00     0.022 A 
HETATM   31  C19 UNL     1     195.564 123.680  31.362  1.00  0.00     0.016 A 
HETATM   32  C20 UNL     1     195.439 124.624  32.343  1.00  0.00    -0.012 A 
HETATM   33  S2  UNL     1     193.780 124.519  32.756  1.00  0.00    -0.092 SA
BRANCH  32  34
HETATM   34  C21 UNL     1     196.461 125.545  32.946  1.00  0.00     0.097 C 
BRANCH  34  35
HETATM   35  C22 UNL     1     196.447 125.255  34.425  1.00  0.00     0.043 A 
HETATM   36  S1  UNL     1     196.095 126.303  35.728  1.00  0.00    -0.029 SA
HETATM   37  C23 UNL     1     196.300 125.189  37.002  1.00  0.00     0.290 A 
HETATM   38  O1  UNL     1     196.177 125.352  38.270  1.00  0.00    -0.260 OA
HETATM   39  N6  UNL     1     196.629 124.064  36.371  1.00  0.00    -0.297 N 
HETATM   40  C24 UNL     1     196.709 124.076  35.069  1.00  0.00     0.157 A 
ATOM     41  H6  UNL     1     196.814 123.209  36.895  1.00  0.00     0.171 HD
BRANCH  40  42
HETATM   42  O2  UNL     1     197.056 122.913  34.314  1.00  0.00    -0.345 OA
ATOM     43  H2  UNL     1     196.619 122.087  34.488  1.00  0.00     0.219 HD
ENDBRANCH  40  42
ENDBRANCH  34  35
ENDBRANCH  32  34
ENDBRANCH  24  29
ENDBRANCH  21  22
ENDBRANCH  20  21
ENDBRANCH  19  20
ENDBRANCH  18  19
ENDBRANCH  17  18
ENDBRANCH  16  17
ENDBRANCH  15  16
ENDBRANCH  14  15
ENDBRANCH  13  14
ENDBRANCH  12  13
ENDBRANCH   8  12
TORSDOF 16
ENDMDL
MODEL 5
REMARK VINA RESULT: -7.108686721      2.467      3.536
REMARK  16 active torsions:
REMARK  status: ('A' for Active; 'I' for Inactive)
REMARK    1  A    between atoms: C2_2  and  N1_3 
REMARK       I    between atoms: N1_3  and  C3_5 
REMARK       I    between atoms: C3_5  and  N4_10 
REMARK    2  A    between atoms: N4_10  and  C5_12 
REMARK    3  A    between atoms: C5_12  and  C6_13 
REMARK    4  A    between atoms: C6_13  and  C7_14 
REMARK    5  A    between atoms: C7_14  and  C8_15 
REMARK    6  A    between atoms: C8_15  and  C9_16 
REMARK    7  A    between atoms: C9_16  and  C10_17 
REMARK    8  A    between atoms: C10_17  and  C11_18 
REMARK    9  A    between atoms: C11_18  and  C12_19 
REMARK   10  A    between atoms: C12_19  and  C13_20 
REMARK   11  A    between atoms: C13_20  and  C14_21 
REMARK   12  A    between atoms: C14_21  and  N5_22 
REMARK   13  A    between atoms: C16_24  and  C17_25 
REMARK   14  A    between atoms: C20_28  and  C21_29 
REMARK   15  A    between atoms: C21_29  and  C22_30 
REMARK   16  A    between atoms: C24_36  and  O2_37 
ROOT
HETATM    1  N1  UNL     1     186.427 120.589  32.520  1.00  0.00    -0.226 N 
ATOM      2  H1  UNL     1     186.556 119.838  33.197  1.00  0.00     0.177 HD
HETATM    3  C3  UNL     1     187.332 121.688  32.510  1.00  0.00     0.682 C 
HETATM    4  N2  UNL     1     187.844 122.019  33.673  1.00  0.00    -0.126 N 
ATOM      5  H2  UNL     1     187.581 121.493  34.506  1.00  0.00     0.197 HD
HETATM    6  C4  UNL     1     188.752 123.092  33.787  1.00  0.00     0.196 C 
HETATM    7  N3  UNL     1     189.493 123.985  33.900  1.00  0.00    -0.171 NA
HETATM    8  N4  UNL     1     187.691 122.410  31.359  1.00  0.00    -0.226 N 
ATOM      9  H4  UNL     1     187.051 123.114  30.991  1.00  0.00     0.177 HD
ENDROOT
BRANCH   1  10
HETATM   10  C2  UNL     1     185.329 120.524  31.583  1.00  0.00     0.133 C 
HETATM   11  C1  UNL     1     184.253 121.502  32.007  1.00  0.00     0.027 C 
ENDBRANCH   1  10
BRANCH   8  12
HETATM   12  C5  UNL     1     188.971 122.171  30.675  1.00  0.00     0.138 C 
BRANCH  12  13
HETATM   13  C6  UNL     1     189.338 120.726  30.786  1.00  0.00     0.020 C 
BRANCH  13  14
HETATM   14  C7  UNL     1     190.703 120.571  31.364  1.00  0.00     0.002 C 
BRANCH  14  15
HETATM   15  C8  UNL     1     191.432 121.886  31.332  1.00  0.00     0.000 C 
BRANCH  15  16
HETATM   16  C9  UNL     1     192.760 121.611  30.589  1.00  0.00     0.000 C 
BRANCH  16  17
HETATM   17  C10 UNL     1     193.631 122.832  30.707  1.00  0.00     0.000 C 
BRANCH  17  18
HETATM   18  C11 UNL     1     193.880 123.472  29.354  1.00  0.00     0.000 C 
BRANCH  18  19
HETATM   19  C12 UNL     1     192.815 124.484  29.062  1.00  0.00     0.002 C 
BRANCH  19  20
HETATM   20  C13 UNL     1     193.255 125.844  29.480  1.00  0.00     0.022 C 
BRANCH  20  21
HETATM   21  C14 UNL     1     192.663 126.261  30.773  1.00  0.00     0.150 C 
BRANCH  21  22
HETATM   22  N5  UNL     1     191.207 126.306  30.733  1.00  0.00    -0.287 N 
HETATM   23  C15 UNL     1     190.394 127.160  30.104  1.00  0.00     0.144 A 
HETATM   24  C16 UNL     1     189.083 126.832  30.363  1.00  0.00     0.083 A 
HETATM   25  N7  UNL     1     189.136 125.763  31.160  1.00  0.00    -0.284 N 
HETATM   26  N8  UNL     1     190.396 125.443  31.385  1.00  0.00    -0.240 N 
ATOM     27  H7  UNL     1     188.327 125.269  31.537  1.00  0.00     0.188 HD
ATOM     28  H8  UNL     1     190.711 124.663  31.962  1.00  0.00     0.208 HD
BRANCH  24  29
HETATM   29  C17 UNL     1     187.887 127.523  29.854  1.00  0.00     0.035 A 
HETATM   30  C18 UNL     1     186.588 127.191  30.145  1.00  0.00     0.022 A 
HETATM   31  C19 UNL     1     185.627 127.941  29.595  1.00  0.00     0.016 A 
HETATM   32  C20 UNL     1     186.012 128.977  28.791  1.00  0.00    -0.012 A 
HETATM   33  S2  UNL     1     187.721 128.867  28.829  1.00  0.00    -0.092 SA
BRANCH  32  34
HETATM   34  C21 UNL     1     185.191 129.984  28.038  1.00  0.00     0.097 C 
BRANCH  34  35
HETATM   35  C22 UNL     1     184.763 129.294  26.769  1.00  0.00     0.043 A 
HETATM   36  S1  UNL     1     185.647 129.033  25.329  1.00  0.00    -0.029 SA
HETATM   37  C23 UNL     1     184.447 128.201  24.451  1.00  0.00     0.290 A 
HETATM   38  O1  UNL     1     184.480 127.715  23.262  1.00  0.00    -0.260 OA
HETATM   39  N6  UNL     1     183.423 128.160  25.300  1.00  0.00    -0.297 N 
HETATM   40  C24 UNL     1     183.562 128.706  26.476  1.00  0.00     0.157 A 
ATOM     41  H6  UNL     1     182.546 127.710  25.037  1.00  0.00     0.171 HD
BRANCH  40  42
HETATM   42  O2  UNL     1     182.512 128.708  27.447  1.00  0.00    -0.345 OA
ATOM     43  H2  UNL     1     181.615 128.855  27.174  1.00  0.00     0.219 HD
ENDBRANCH  40  42
ENDBRANCH  34  35
ENDBRANCH  32  34
ENDBRANCH  24  29
ENDBRANCH  21  22
ENDBRANCH  20  21
ENDBRANCH  19  20
ENDBRANCH  18  19
ENDBRANCH  17  18
ENDBRANCH  16  17
ENDBRANCH  15  16
ENDBRANCH  14  15
ENDBRANCH  13  14
ENDBRANCH  12  13
ENDBRANCH   8  12
TORSDOF 16
ENDMDL
