MODEL 1
REMARK VINA RESULT: -8.432729862      0.000      0.000
REMARK  16 active torsions:
REMARK  status: ('A' for Active; 'I' for Inactive)
REMARK    1  A    between atoms: C2_2  and  C3_3 
REMARK    2  A    between atoms: C3_3  and  C4_4 
REMARK    3  A    between atoms: C4_4  and  C5_5 
REMARK    4  A    between atoms: C5_5  and  C6_6 
REMARK    5  A    between atoms: C6_6  and  C7_7 
REMARK    6  A    between atoms: C7_7  and  N1_8 
REMARK    7  A    between atoms: C7_7  and  C25_41 
REMARK    8  A    between atoms: N1_8  and  C8_10 
REMARK    9  A    between atoms: C8_10  and  O1_11 
REMARK   10  A    between atoms: C8_10  and  C9_13 
REMARK   11  A    between atoms: C10_16  and  N3_17 
REMARK   12  A    between atoms: C12_21  and  N4_22 
REMARK   13  A    between atoms: C13_24  and  N5_25 
REMARK   14  A    between atoms: N5_25  and  C14_27 
REMARK   15  A    between atoms: C14_27  and  C15_28 
REMARK   16  A    between atoms: C15_28  and  C16_29 
ROOT
HETATM    1  C9  UNL     1     188.815 123.962  32.648  1.00  0.00     0.128 C 
HETATM    2  N2  UNL     1     188.629 124.540  31.441  1.00  0.00    -0.337 N 
ATOM      3  H2  UNL     1     189.273 124.259  30.702  1.00  0.00     0.167 HD
HETATM    4  C10 UNL     1     187.674 125.461  31.095  1.00  0.00     0.114 C 
HETATM    5  C11 UNL     1     186.374 125.472  31.555  1.00  0.00     0.061 A 
HETATM    6  C12 UNL     1     185.573 126.315  30.819  1.00  0.00     0.049 A 
HETATM    7  C19 UNL     1     184.221 126.496  31.146  1.00  0.00     0.031 A 
HETATM    8  C20 UNL     1     183.718 125.817  32.206  1.00  0.00     0.011 A 
HETATM    9  C21 UNL     1     184.507 124.962  32.959  1.00  0.00    -0.034 A 
HETATM   10  C22 UNL     1     183.940 124.225  34.120  1.00  0.00     0.050 C 
HETATM   11  C23 UNL     1     185.836 124.778  32.647  1.00  0.00     0.057 A 
HETATM   12  N6  UNL     1     186.471 123.923  33.444  1.00  0.00    -0.320 N 
ATOM     13  H6  UNL     1     185.883 123.458  34.137  1.00  0.00     0.169 HD
HETATM   14  C24 UNL     1     187.780 123.578  33.473  1.00  0.00     0.273 C 
HETATM   15  O2  UNL     1     188.131 122.790  34.383  1.00  0.00    -0.266 OA
ENDROOT
BRANCH   1  16
HETATM   16  C8  UNL     1     190.222 123.729  33.112  1.00  0.00     0.271 C 
BRANCH  16  17
HETATM   17  N1  UNL     1     190.525 122.383  32.888  1.00  0.00    -0.380 N 
ATOM     18  H1  UNL     1     190.782 121.773  33.665  1.00  0.00     0.157 HD
BRANCH  17  19
HETATM   19  C7  UNL     1     190.469 121.870  31.542  1.00  0.00     0.157 C 
BRANCH  19  20
HETATM   20  C6  UNL     1     190.006 120.453  31.469  1.00  0.00     0.033 C 
BRANCH  20  21
HETATM   21  C5  UNL     1     188.652 120.334  30.867  1.00  0.00     0.002 C 
BRANCH  21  22
HETATM   22  C4  UNL     1     187.548 120.298  31.904  1.00  0.00     0.000 C 
BRANCH  22  23
HETATM   23  C3  UNL     1     186.397 121.130  31.371  1.00  0.00    -0.000 C 
BRANCH  23  24
HETATM   24  C2  UNL     1     185.103 120.794  32.098  1.00  0.00    -0.005 C 
HETATM   25  C1  UNL     1     183.932 121.557  31.518  1.00  0.00     0.005 C 
ENDBRANCH  23  24
ENDBRANCH  22  23
ENDBRANCH  21  22
ENDBRANCH  20  21
ENDBRANCH  19  20
BRANCH  19  26
HETATM   26  C25 UNL     1     191.690 122.166  30.787  1.00  0.00     0.170 A 
HETATM   27  N7  UNL     1     191.987 122.971  29.765  1.00  0.00    -0.325 N 
HETATM   28  C26 UNL     1     193.265 122.884  29.431  1.00  0.00     0.100 A 
ATOM     29  H7  UNL     1     191.313 123.577  29.299  1.00  0.00     0.169 HD
HETATM   30  C27 UNL     1     193.978 123.605  28.366  1.00  0.00     0.091 C 
HETATM   31  N8  UNL     1     193.788 121.982  30.285  1.00  0.00    -0.247 N 
HETATM   32  O3  UNL     1     192.849 121.573  31.071  1.00  0.00    -0.221 OA
ATOM     33  H8  UNL     1     194.760 121.674  30.307  1.00  0.00     0.196 HD
ENDBRANCH  19  26
ENDBRANCH  17  19
ENDBRANCH  16  17
BRANCH  16  34
HETATM   34  O1  UNL     1     190.991 124.649  32.416  1.00  0.00    -0.371 OA
ATOM     35  H1  UNL     1     191.725 125.021  32.891  1.00  0.00     0.212 HD
ENDBRANCH  16  34
ENDBRANCH   1  16
BRANCH   4  36
HETATM   36  N3  UNL     1     188.046 126.391  30.287  1.00  0.00    -0.385 N 
ATOM     37  H32 UNL     1     189.012 126.715  30.332  1.00  0.00     0.157 HD
ATOM     38  H31 UNL     1     187.338 126.736  29.639  1.00  0.00     0.157 HD
ENDBRANCH   4  36
BRANCH   6  39
HETATM   39  N4  UNL     1     186.140 126.986  29.705  1.00  0.00    -0.352 N 
HETATM   40  C13 UNL     1     185.829 128.192  29.421  1.00  0.00     0.176 C 
ATOM     41  H4  UNL     1     186.813 126.494  29.117  1.00  0.00     0.166 HD
BRANCH  40  42
HETATM   42  N5  UNL     1     184.904 129.000  30.158  1.00  0.00    -0.386 N 
ATOM     43  H5  UNL     1     183.923 128.725  30.209  1.00  0.00     0.160 HD
BRANCH  42  44
HETATM   44  C14 UNL     1     185.339 130.182  30.817  1.00  0.00     0.120 C 
BRANCH  44  45
HETATM   45  C15 UNL     1     186.332 129.946  31.892  1.00  0.00     0.023 C 
BRANCH  45  46
HETATM   46  C16 UNL     1     185.843 129.384  33.169  1.00  0.00    -0.021 C 
HETATM   47  C17 UNL     1     185.855 130.536  34.198  1.00  0.00     0.009 C 
HETATM   48  C18 UNL     1     186.618 128.271  33.796  1.00  0.00     0.009 C 
ENDBRANCH  45  46
ENDBRANCH  44  45
ENDBRANCH  42  44
ENDBRANCH  40  42
ENDBRANCH   6  39
TORSDOF 16
ENDMDL
MODEL 2
REMARK VINA RESULT: -8.295216387      1.754      2.950
REMARK  16 active torsions:
REMARK  status: ('A' for Active; 'I' for Inactive)
REMARK    1  A    between atoms: C2_2  and  C3_3 
REMARK    2  A    between atoms: C3_3  and  C4_4 
REMARK    3  A    between atoms: C4_4  and  C5_5 
REMARK    4  A    between atoms: C5_5  and  C6_6 
REMARK    5  A    between atoms: C6_6  and  C7_7 
REMARK    6  A    between atoms: C7_7  and  N1_8 
REMARK    7  A    between atoms: C7_7  and  C25_41 
REMARK    8  A    between atoms: N1_8  and  C8_10 
REMARK    9  A    between atoms: C8_10  and  O1_11 
REMARK   10  A    between atoms: C8_10  and  C9_13 
REMARK   11  A    between atoms: C10_16  and  N3_17 
REMARK   12  A    between atoms: C12_21  and  N4_22 
REMARK   13  A    between atoms: C13_24  and  N5_25 
REMARK   14  A    between atoms: N5_25  and  C14_27 
REMARK   15  A    between atoms: C14_27  and  C15_28 
REMARK   16  A    between atoms: C15_28  and  C16_29 
ROOT
HETATM    1  C9  UNL     1     188.758 124.018  32.624  1.00  0.00     0.128 C 
HETATM    2  N2  UNL     1     188.588 124.630  31.432  1.00  0.00    -0.337 N 
ATOM      3  H2  UNL     1     189.237 124.364  30.691  1.00  0.00     0.167 HD
HETATM    4  C10 UNL     1     187.646 125.569  31.103  1.00  0.00     0.114 C 
HETATM    5  C11 UNL     1     186.341 125.581  31.551  1.00  0.00     0.061 A 
HETATM    6  C12 UNL     1     185.555 126.451  30.830  1.00  0.00     0.049 A 
HETATM    7  C19 UNL     1     184.202 126.636  31.150  1.00  0.00     0.031 A 
HETATM    8  C20 UNL     1     183.683 125.933  32.187  1.00  0.00     0.011 A 
HETATM    9  C21 UNL     1     184.457 125.051  32.923  1.00  0.00    -0.034 A 
HETATM   10  C22 UNL     1     183.872 124.288  34.059  1.00  0.00     0.050 C 
HETATM   11  C23 UNL     1     185.787 124.862  32.619  1.00  0.00     0.057 A 
HETATM   12  N6  UNL     1     186.406 123.981  33.398  1.00  0.00    -0.320 N 
ATOM     13  H6  UNL     1     185.808 123.502  34.073  1.00  0.00     0.169 HD
HETATM   14  C24 UNL     1     187.712 123.622  33.430  1.00  0.00     0.273 C 
HETATM   15  O2  UNL     1     188.047 122.807  34.321  1.00  0.00    -0.266 OA
ENDROOT
BRANCH   1  16
HETATM   16  C8  UNL     1     190.158 123.759  33.094  1.00  0.00     0.271 C 
BRANCH  16  17
HETATM   17  N1  UNL     1     190.430 122.403  32.892  1.00  0.00    -0.380 N 
ATOM     18  H1  UNL     1     190.646 121.793  33.681  1.00  0.00     0.157 HD
BRANCH  17  19
HETATM   19  C7  UNL     1     190.401 121.879  31.548  1.00  0.00     0.157 C 
BRANCH  19  20
HETATM   20  C6  UNL     1     189.946 120.460  31.478  1.00  0.00     0.033 C 
BRANCH  20  21
HETATM   21  C5  UNL     1     188.592 120.331  30.878  1.00  0.00     0.002 C 
BRANCH  21  22
HETATM   22  C4  UNL     1     187.490 120.280  31.918  1.00  0.00     0.000 C 
BRANCH  22  23
HETATM   23  C3  UNL     1     186.348 121.139  31.411  1.00  0.00    -0.000 C 
BRANCH  23  24
HETATM   24  C2  UNL     1     185.024 120.691  32.013  1.00  0.00    -0.005 C 
HETATM   25  C1  UNL     1     183.884 121.573  31.553  1.00  0.00     0.005 C 
ENDBRANCH  23  24
ENDBRANCH  22  23
ENDBRANCH  21  22
ENDBRANCH  20  21
ENDBRANCH  19  20
BRANCH  19  26
HETATM   26  C25 UNL     1     191.633 122.176  30.813  1.00  0.00     0.170 A 
HETATM   27  N7  UNL     1     191.942 122.967  29.784  1.00  0.00    -0.325 N 
HETATM   28  C26 UNL     1     193.228 122.888  29.477  1.00  0.00     0.100 A 
ATOM     29  H7  UNL     1     191.271 123.558  29.294  1.00  0.00     0.169 HD
HETATM   30  C27 UNL     1     193.954 123.599  28.414  1.00  0.00     0.091 C 
HETATM   31  N8  UNL     1     193.742 122.006  30.356  1.00  0.00    -0.247 N 
HETATM   32  O3  UNL     1     192.793 121.600  31.130  1.00  0.00    -0.221 OA
ATOM     33  H8  UNL     1     194.717 121.709  30.403  1.00  0.00     0.196 HD
ENDBRANCH  19  26
ENDBRANCH  17  19
ENDBRANCH  16  17
BRANCH  16  34
HETATM   34  O1  UNL     1     190.950 124.650  32.387  1.00  0.00    -0.371 OA
ATOM     35  H1  UNL     1     191.844 124.744  32.692  1.00  0.00     0.212 HD
ENDBRANCH  16  34
ENDBRANCH   1  16
BRANCH   4  36
HETATM   36  N3  UNL     1     188.033 126.518  30.324  1.00  0.00    -0.385 N 
ATOM     37  H32 UNL     1     188.962 126.915  30.469  1.00  0.00     0.157 HD
ATOM     38  H31 UNL     1     187.378 126.801  29.595  1.00  0.00     0.157 HD
ENDBRANCH   4  36
BRANCH   6  39
HETATM   39  N4  UNL     1     186.139 127.147  29.741  1.00  0.00    -0.352 N 
HETATM   40  C13 UNL     1     185.578 127.186  28.594  1.00  0.00     0.176 C 
ATOM     41  H4  UNL     1     187.029 127.627  29.876  1.00  0.00     0.166 HD
BRANCH  40  42
HETATM   42  N5  UNL     1     184.332 126.560  28.264  1.00  0.00    -0.386 N 
ATOM     43  H5  UNL     1     183.905 125.908  28.922  1.00  0.00     0.160 HD
BRANCH  42  44
HETATM   44  C14 UNL     1     183.686 126.840  27.029  1.00  0.00     0.120 C 
BRANCH  44  45
HETATM   45  C15 UNL     1     183.847 128.238  26.564  1.00  0.00     0.023 C 
BRANCH  45  46
HETATM   46  C16 UNL     1     182.634 128.962  26.127  1.00  0.00    -0.021 C 
HETATM   47  C17 UNL     1     181.871 128.019  25.170  1.00  0.00     0.009 C 
HETATM   48  C18 UNL     1     182.806 130.246  25.382  1.00  0.00     0.009 C 
ENDBRANCH  45  46
ENDBRANCH  44  45
ENDBRANCH  42  44
ENDBRANCH  40  42
ENDBRANCH   6  39
TORSDOF 16
ENDMDL
MODEL 3
REMARK VINA RESULT: -8.173271725      2.891      8.307
REMARK  16 active torsions:
REMARK  status: ('A' for Active; 'I' for Inactive)
REMARK    1  A    between atoms: C2_2  and  C3_3 
REMARK    2  A    between atoms: C3_3  and  C4_4 
REMARK    3  A    between atoms: C4_4  and  C5_5 
REMARK    4  A    between atoms: C5_5  and  C6_6 
REMARK    5  A    between atoms: C6_6  and  C7_7 
REMARK    6  A    between atoms: C7_7  and  N1_8 
REMARK    7  A    between atoms: C7_7  and  C25_41 
REMARK    8  A    between atoms: N1_8  and  C8_10 
REMARK    9  A    between atoms: C8_10  and  O1_11 
REMARK   10  A    between atoms: C8_10  and  C9_13 
REMARK   11  A    between atoms: C10_16  and  N3_17 
REMARK   12  A    between atoms: C12_21  and  N4_22 
REMARK   13  A    between atoms: C13_24  and  N5_25 
REMARK   14  A    between atoms: N5_25  and  C14_27 
REMARK   15  A    between atoms: C14_27  and  C15_28 
REMARK   16  A    between atoms: C15_28  and  C16_29 
ROOT
HETATM    1  C9  UNL     1     185.717 125.178  29.979  1.00  0.00     0.128 C 
HETATM    2  N2  UNL     1     186.638 125.321  30.956  1.00  0.00    -0.337 N 
ATOM      3  H2  UNL     1     186.790 126.270  31.299  1.00  0.00     0.167 HD
HETATM    4  C10 UNL     1     187.393 124.338  31.541  1.00  0.00     0.114 C 
HETATM    5  C11 UNL     1     186.957 123.060  31.825  1.00  0.00     0.061 A 
HETATM    6  C12 UNL     1     187.816 122.397  32.672  1.00  0.00     0.049 A 
HETATM    7  C19 UNL     1     187.570 121.071  33.057  1.00  0.00     0.031 A 
HETATM    8  C20 UNL     1     186.462 120.456  32.577  1.00  0.00     0.011 A 
HETATM    9  C21 UNL     1     185.584 121.106  31.725  1.00  0.00    -0.034 A 
HETATM   10  C22 UNL     1     184.372 120.415  31.206  1.00  0.00     0.050 C 
HETATM   11  C23 UNL     1     185.816 122.408  31.340  1.00  0.00     0.057 A 
HETATM   12  N6  UNL     1     184.889 122.911  30.530  1.00  0.00    -0.320 N 
ATOM     13  H6  UNL     1     184.089 122.302  30.354  1.00  0.00     0.169 HD
HETATM   14  C24 UNL     1     184.847 124.112  29.905  1.00  0.00     0.273 C 
HETATM   15  O2  UNL     1     183.878 124.308  29.134  1.00  0.00    -0.266 OA
ENDROOT
BRANCH   1  16
HETATM   16  C8  UNL     1     185.640 126.236  28.919  1.00  0.00     0.271 C 
BRANCH  16  17
HETATM   17  N1  UNL     1     186.056 127.442  29.491  1.00  0.00    -0.380 N 
ATOM     18  H1  UNL     1     187.015 127.556  29.821  1.00  0.00     0.157 HD
BRANCH  17  19
HETATM   19  C7  UNL     1     185.108 128.522  29.607  1.00  0.00     0.157 C 
BRANCH  19  20
HETATM   20  C6  UNL     1     184.356 128.511  30.895  1.00  0.00     0.033 C 
BRANCH  20  21
HETATM   21  C5  UNL     1     185.030 129.315  31.948  1.00  0.00     0.002 C 
BRANCH  21  22
HETATM   22  C4  UNL     1     185.627 128.462  33.048  1.00  0.00     0.000 C 
BRANCH  22  23
HETATM   23  C3  UNL     1     186.176 129.402  34.105  1.00  0.00    -0.000 C 
BRANCH  23  24
HETATM   24  C2  UNL     1     185.826 130.847  33.779  1.00  0.00    -0.005 C 
HETATM   25  C1  UNL     1     185.509 131.631  35.033  1.00  0.00     0.005 C 
ENDBRANCH  23  24
ENDBRANCH  22  23
ENDBRANCH  21  22
ENDBRANCH  20  21
ENDBRANCH  19  20
BRANCH  19  26
HETATM   26  C25 UNL     1     184.283 128.664  28.404  1.00  0.00     0.170 A 
HETATM   27  N7  UNL     1     184.509 129.078  27.156  1.00  0.00    -0.325 N 
HETATM   28  C26 UNL     1     183.414 129.019  26.416  1.00  0.00     0.100 A 
ATOM     29  H7  UNL     1     185.415 129.400  26.815  1.00  0.00     0.169 HD
HETATM   30  C27 UNL     1     183.252 129.383  25.000  1.00  0.00     0.091 C 
HETATM   31  N8  UNL     1     182.460 128.546  27.242  1.00  0.00    -0.247 N 
HETATM   32  O3  UNL     1     182.989 128.345  28.402  1.00  0.00    -0.221 OA
ATOM     33  H8  UNL     1     181.485 128.377  26.994  1.00  0.00     0.196 HD
ENDBRANCH  19  26
ENDBRANCH  17  19
ENDBRANCH  16  17
BRANCH  16  34
HETATM   34  O1  UNL     1     186.416 125.761  27.873  1.00  0.00    -0.371 OA
ATOM     35  H1  UNL     1     186.912 124.970  28.049  1.00  0.00     0.212 HD
ENDBRANCH  16  34
ENDBRANCH   1  16
BRANCH   4  36
HETATM   36  N3  UNL     1     188.610 124.646  31.826  1.00  0.00    -0.385 N 
ATOM     37  H32 UNL     1     189.049 124.196  32.629  1.00  0.00     0.157 HD
ATOM     38  H31 UNL     1     189.061 125.322  31.210  1.00  0.00     0.157 HD
ENDBRANCH   4  36
BRANCH   6  39
HETATM   39  N4  UNL     1     188.950 123.092  33.164  1.00  0.00    -0.352 N 
HETATM   40  C13 UNL     1     190.136 122.657  32.972  1.00  0.00     0.176 C 
ATOM     41  H4  UNL     1     188.816 123.959  33.685  1.00  0.00     0.166 HD
BRANCH  40  42
HETATM   42  N5  UNL     1     190.471 121.460  32.261  1.00  0.00    -0.386 N 
ATOM     43  H5  UNL     1     190.401 120.558  32.731  1.00  0.00     0.160 HD
BRANCH  42  44
HETATM   44  C14 UNL     1     190.900 121.518  30.907  1.00  0.00     0.120 C 
BRANCH  44  45
HETATM   45  C15 UNL     1     191.745 122.692  30.588  1.00  0.00     0.023 C 
BRANCH  45  46
HETATM   46  C16 UNL     1     192.828 122.512  29.597  1.00  0.00    -0.021 C 
HETATM   47  C17 UNL     1     194.060 121.991  30.371  1.00  0.00     0.009 C 
HETATM   48  C18 UNL     1     193.300 123.709  28.839  1.00  0.00     0.009 C 
ENDBRANCH  45  46
ENDBRANCH  44  45
ENDBRANCH  42  44
ENDBRANCH  40  42
ENDBRANCH   6  39
TORSDOF 16
ENDMDL
MODEL 4
REMARK VINA RESULT: -8.126816049      2.990      8.175
REMARK  16 active torsions:
REMARK  status: ('A' for Active; 'I' for Inactive)
REMARK    1  A    between atoms: C2_2  and  C3_3 
REMARK    2  A    between atoms: C3_3  and  C4_4 
REMARK    3  A    between atoms: C4_4  and  C5_5 
REMARK    4  A    between atoms: C5_5  and  C6_6 
REMARK    5  A    between atoms: C6_6  and  C7_7 
REMARK    6  A    between atoms: C7_7  and  N1_8 
REMARK    7  A    between atoms: C7_7  and  C25_41 
REMARK    8  A    between atoms: N1_8  and  C8_10 
REMARK    9  A    between atoms: C8_10  and  O1_11 
REMARK   10  A    between atoms: C8_10  and  C9_13 
REMARK   11  A    between atoms: C10_16  and  N3_17 
REMARK   12  A    between atoms: C12_21  and  N4_22 
REMARK   13  A    between atoms: C13_24  and  N5_25 
REMARK   14  A    between atoms: N5_25  and  C14_27 
REMARK   15  A    between atoms: C14_27  and  C15_28 
REMARK   16  A    between atoms: C15_28  and  C16_29 
ROOT
HETATM    1  C9  UNL     1     185.907 124.826  30.448  1.00  0.00     0.128 C 
HETATM    2  N2  UNL     1     186.528 125.476  31.456  1.00  0.00    -0.337 N 
ATOM      3  H2  UNL     1     186.178 126.409  31.675  1.00  0.00     0.167 HD
HETATM    4  C10 UNL     1     187.574 125.027  32.220  1.00  0.00     0.114 C 
HETATM    5  C11 UNL     1     187.749 123.727  32.646  1.00  0.00     0.061 A 
HETATM    6  C12 UNL     1     188.705 123.631  33.631  1.00  0.00     0.049 A 
HETATM    7  C19 UNL     1     189.057 122.388  34.177  1.00  0.00     0.031 A 
HETATM    8  C20 UNL     1     188.431 121.279  33.712  1.00  0.00     0.011 A 
HETATM    9  C21 UNL     1     187.465 121.354  32.722  1.00  0.00    -0.034 A 
HETATM   10  C22 UNL     1     186.788 120.127  32.223  1.00  0.00     0.050 C 
HETATM   11  C23 UNL     1     187.111 122.569  32.179  1.00  0.00     0.057 A 
HETATM   12  N6  UNL     1     186.165 122.497  31.248  1.00  0.00    -0.320 N 
ATOM     13  H6  UNL     1     185.769 121.567  31.103  1.00  0.00     0.169 HD
HETATM   14  C24 UNL     1     185.648 123.472  30.462  1.00  0.00     0.273 C 
HETATM   15  O2  UNL     1     184.804 123.114  29.608  1.00  0.00    -0.266 OA
ENDROOT
BRANCH   1  16
HETATM   16  C8  UNL     1     185.480 125.621  29.250  1.00  0.00     0.271 C 
BRANCH  16  17
HETATM   17  N1  UNL     1     184.287 126.273  29.576  1.00  0.00    -0.380 N 
ATOM     18  H1  UNL     1     183.471 125.741  29.878  1.00  0.00     0.157 HD
BRANCH  17  19
HETATM   19  C7  UNL     1     184.230 127.711  29.478  1.00  0.00     0.157 C 
BRANCH  19  20
HETATM   20  C6  UNL     1     183.690 128.364  30.707  1.00  0.00     0.033 C 
BRANCH  20  21
HETATM   21  C5  UNL     1     184.589 129.432  31.217  1.00  0.00     0.002 C 
BRANCH  21  22
HETATM   22  C4  UNL     1     185.903 128.894  31.746  1.00  0.00     0.000 C 
BRANCH  22  23
HETATM   23  C3  UNL     1     185.702 128.569  33.214  1.00  0.00    -0.000 C 
BRANCH  23  24
HETATM   24  C2  UNL     1     186.521 129.504  34.093  1.00  0.00    -0.005 C 
HETATM   25  C1  UNL     1     185.761 130.775  34.399  1.00  0.00     0.005 C 
ENDBRANCH  23  24
ENDBRANCH  22  23
ENDBRANCH  21  22
ENDBRANCH  20  21
ENDBRANCH  19  20
BRANCH  19  26
HETATM   26  C25 UNL     1     183.626 128.155  28.219  1.00  0.00     0.170 A 
HETATM   27  N7  UNL     1     182.787 127.608  27.339  1.00  0.00    -0.325 N 
HETATM   28  C26 UNL     1     182.531 128.430  26.333  1.00  0.00     0.100 A 
ATOM     29  H7  UNL     1     182.392 126.672  27.428  1.00  0.00     0.169 HD
HETATM   30  C27 UNL     1     181.660 128.200  25.170  1.00  0.00     0.091 C 
HETATM   31  N8  UNL     1     183.245 129.541  26.600  1.00  0.00    -0.247 N 
HETATM   32  O3  UNL     1     183.880 129.360  27.709  1.00  0.00    -0.221 OA
ATOM     33  H8  UNL     1     183.278 130.382  26.025  1.00  0.00     0.196 HD
ENDBRANCH  19  26
ENDBRANCH  17  19
ENDBRANCH  16  17
BRANCH  16  34
HETATM   34  O1  UNL     1     186.559 126.439  28.953  1.00  0.00    -0.371 OA
ATOM     35  H1  UNL     1     186.840 127.025  29.647  1.00  0.00     0.212 HD
ENDBRANCH  16  34
ENDBRANCH   1  16
BRANCH   4  36
HETATM   36  N3  UNL     1     188.462 125.901  32.541  1.00  0.00    -0.385 N 
ATOM     37  H32 UNL     1     188.275 126.882  32.331  1.00  0.00     0.157 HD
ATOM     38  H31 UNL     1     189.299 125.546  33.003  1.00  0.00     0.157 HD
ENDBRANCH   4  36
BRANCH   6  39
HETATM   39  N4  UNL     1     189.316 124.822  34.099  1.00  0.00    -0.352 N 
HETATM   40  C13 UNL     1     190.571 124.884  34.330  1.00  0.00     0.176 C 
ATOM     41  H4  UNL     1     188.740 125.649  34.256  1.00  0.00     0.166 HD
BRANCH  40  42
HETATM   42  N5  UNL     1     191.496 123.805  34.154  1.00  0.00    -0.386 N 
ATOM     43  H5  UNL     1     191.472 123.010  34.793  1.00  0.00     0.160 HD
BRANCH  42  44
HETATM   44  C14 UNL     1     192.447 123.832  33.098  1.00  0.00     0.120 C 
BRANCH  44  45
HETATM   45  C15 UNL     1     191.883 123.511  31.766  1.00  0.00     0.023 C 
BRANCH  45  46
HETATM   46  C16 UNL     1     191.822 122.088  31.369  1.00  0.00    -0.021 C 
HETATM   47  C17 UNL     1     192.962 121.858  30.353  1.00  0.00     0.009 C 
HETATM   48  C18 UNL     1     190.579 121.592  30.705  1.00  0.00     0.009 C 
ENDBRANCH  45  46
ENDBRANCH  44  45
ENDBRANCH  42  44
ENDBRANCH  40  42
ENDBRANCH   6  39
TORSDOF 16
ENDMDL
MODEL 5
REMARK VINA RESULT: -8.125415017      3.915      8.267
REMARK  16 active torsions:
REMARK  status: ('A' for Active; 'I' for Inactive)
REMARK    1  A    between atoms: C2_2  and  C3_3 
REMARK    2  A    between atoms: C3_3  and  C4_4 
REMARK    3  A    between atoms: C4_4  and  C5_5 
REMARK    4  A    between atoms: C5_5  and  C6_6 
REMARK    5  A    between atoms: C6_6  and  C7_7 
REMARK    6  A    between atoms: C7_7  and  N1_8 
REMARK    7  A    between atoms: C7_7  and  C25_41 
REMARK    8  A    between atoms: N1_8  and  C8_10 
REMARK    9  A    between atoms: C8_10  and  O1_11 
REMARK   10  A    between atoms: C8_10  and  C9_13 
REMARK   11  A    between atoms: C10_16  and  N3_17 
REMARK   12  A    between atoms: C12_21  and  N4_22 
REMARK   13  A    between atoms: C13_24  and  N5_25 
REMARK   14  A    between atoms: N5_25  and  C14_27 
REMARK   15  A    between atoms: C14_27  and  C15_28 
REMARK   16  A    between atoms: C15_28  and  C16_29 
ROOT
HETATM    1  C9  UNL     1     189.216 122.613  33.372  1.00  0.00     0.128 C 
HETATM    2  N2  UNL     1     189.629 123.412  34.380  1.00  0.00    -0.337 N 
ATOM      3  H2  UNL     1     189.169 123.277  35.280  1.00  0.00     0.167 HD
HETATM    4  C10 UNL     1     190.595 124.383  34.333  1.00  0.00     0.114 C 
HETATM    5  C11 UNL     1     191.767 124.308  33.609  1.00  0.00     0.061 A 
HETATM    6  C12 UNL     1     192.668 125.278  33.984  1.00  0.00     0.049 A 
HETATM    7  C19 UNL     1     193.911 125.395  33.344  1.00  0.00     0.031 A 
HETATM    8  C20 UNL     1     194.206 124.526  32.346  1.00  0.00     0.011 A 
HETATM    9  C21 UNL     1     193.313 123.541  31.955  1.00  0.00    -0.034 A 
HETATM   10  C22 UNL     1     193.653 122.596  30.857  1.00  0.00     0.050 C 
HETATM   11  C23 UNL     1     192.090 123.418  32.576  1.00  0.00     0.057 A 
HETATM   12  N6  UNL     1     191.338 122.426  32.109  1.00  0.00    -0.320 N 
ATOM     13  H6  UNL     1     191.785 121.837  31.405  1.00  0.00     0.169 HD
HETATM   14  C24 UNL     1     190.068 122.080  32.429  1.00  0.00     0.273 C 
HETATM   15  O2  UNL     1     189.566 121.131  31.780  1.00  0.00    -0.266 OA
ENDROOT
BRANCH   1  16
HETATM   16  C8  UNL     1     187.755 122.293  33.275  1.00  0.00     0.271 C 
BRANCH  16  17
HETATM   17  N1  UNL     1     187.303 122.743  32.031  1.00  0.00    -0.380 N 
ATOM     18  H1  UNL     1     187.893 122.659  31.203  1.00  0.00     0.157 HD
BRANCH  17  19
HETATM   19  C7  UNL     1     185.988 123.328  31.937  1.00  0.00     0.157 C 
BRANCH  19  20
HETATM   20  C6  UNL     1     185.461 123.808  33.248  1.00  0.00     0.033 C 
BRANCH  20  21
HETATM   21  C5  UNL     1     184.022 124.174  33.177  1.00  0.00     0.002 C 
BRANCH  21  22
HETATM   22  C4  UNL     1     183.787 125.665  33.306  1.00  0.00     0.000 C 
BRANCH  22  23
HETATM   23  C3  UNL     1     183.838 126.256  31.910  1.00  0.00    -0.000 C 
BRANCH  23  24
HETATM   24  C2  UNL     1     184.707 127.505  31.881  1.00  0.00    -0.005 C 
HETATM   25  C1  UNL     1     185.601 127.580  33.099  1.00  0.00     0.005 C 
ENDBRANCH  23  24
ENDBRANCH  22  23
ENDBRANCH  21  22
ENDBRANCH  20  21
ENDBRANCH  19  20
BRANCH  19  26
HETATM   26  C25 UNL     1     185.066 122.493  31.162  1.00  0.00     0.170 A 
HETATM   27  N7  UNL     1     184.557 121.269  31.315  1.00  0.00    -0.325 N 
HETATM   28  C26 UNL     1     183.746 120.950  30.319  1.00  0.00     0.100 A 
ATOM     29  H7  UNL     1     184.767 120.656  32.102  1.00  0.00     0.169 HD
HETATM   30  C27 UNL     1     182.995 119.701  30.123  1.00  0.00     0.091 C 
HETATM   31  N8  UNL     1     183.751 122.025  29.507  1.00  0.00    -0.247 N 
HETATM   32  O3  UNL     1     184.530 122.919  30.018  1.00  0.00    -0.221 OA
ATOM     33  H8  UNL     1     183.228 122.118  28.636  1.00  0.00     0.196 HD
ENDBRANCH  19  26
ENDBRANCH  17  19
ENDBRANCH  16  17
BRANCH  16  34
HETATM   34  O1  UNL     1     187.665 120.928  33.496  1.00  0.00    -0.371 OA
ATOM     35  H1  UNL     1     186.874 120.628  33.929  1.00  0.00     0.212 HD
ENDBRANCH  16  34
ENDBRANCH   1  16
BRANCH   4  36
HETATM   36  N3  UNL     1     190.364 125.451  35.013  1.00  0.00    -0.385 N 
ATOM     37  H32 UNL     1     189.396 125.753  35.128  1.00  0.00     0.157 HD
ATOM     38  H31 UNL     1     191.178 125.921  35.409  1.00  0.00     0.157 HD
ENDBRANCH   4  36
BRANCH   6  39
HETATM   39  N4  UNL     1     192.322 126.149  35.048  1.00  0.00    -0.352 N 
HETATM   40  C13 UNL     1     193.007 126.195  36.125  1.00  0.00     0.176 C 
ATOM     41  H4  UNL     1     191.506 126.754  34.951  1.00  0.00     0.166 HD
BRANCH  40  42
HETATM   42  N5  UNL     1     194.172 125.407  36.395  1.00  0.00    -0.386 N 
ATOM     43  H5  UNL     1     194.100 124.390  36.417  1.00  0.00     0.160 HD
BRANCH  42  44
HETATM   44  C14 UNL     1     195.428 126.030  36.634  1.00  0.00     0.120 C 
BRANCH  44  45
HETATM   45  C15 UNL     1     196.593 125.244  36.165  1.00  0.00     0.023 C 
BRANCH  45  46
HETATM   46  C16 UNL     1     197.073 124.143  37.028  1.00  0.00    -0.021 C 
HETATM   47  C17 UNL     1     198.458 124.566  37.563  1.00  0.00     0.009 C 
HETATM   48  C18 UNL     1     197.268 122.795  36.412  1.00  0.00     0.009 C 
ENDBRANCH  45  46
ENDBRANCH  44  45
ENDBRANCH  42  44
ENDBRANCH  40  42
ENDBRANCH   6  39
TORSDOF 16
ENDMDL
