MODEL 1
REMARK VINA RESULT: -8.222700270      0.000      0.000
REMARK  18 active torsions:
REMARK  status: ('A' for Active; 'I' for Inactive)
REMARK    1  A    between atoms: S1_2  and  C2_3 
REMARK       I    between atoms: C2_3  and  N1_5 
REMARK    2  A    between atoms: N1_5  and  C3_7 
REMARK    3  A    between atoms: C3_7  and  C4_8 
REMARK    4  A    between atoms: C4_8  and  C5_9 
REMARK    5  A    between atoms: C5_9  and  C6_10 
REMARK    6  A    between atoms: C6_10  and  C7_11 
REMARK    7  A    between atoms: C7_11  and  C8_12 
REMARK    8  A    between atoms: C8_12  and  C9_13 
REMARK    9  A    between atoms: C10_14  and  C11_15 
REMARK   10  A    between atoms: C11_15  and  C12_16 
REMARK   11  A    between atoms: C12_16  and  C13_17 
REMARK   12  A    between atoms: C13_17  and  C14_18 
REMARK   13  A    between atoms: C14_18  and  S2_19 
REMARK   14  A    between atoms: S2_19  and  C15_20 
REMARK   15  A    between atoms: C15_20  and  C16_21 
REMARK   16  A    between atoms: C17_23  and  N2_24 
REMARK   17  A    between atoms: C21_33  and  N5_34 
REMARK   18  A    between atoms: C24_41  and  O4_42 
ROOT
HETATM    1  C16 UNL     1     185.952 130.193  30.106  1.00  0.00     0.162 C 
HETATM    2  O2  UNL     1     186.013 129.246  29.089  1.00  0.00    -0.358 OA
HETATM    3  C17 UNL     1     186.809 129.816  28.128  1.00  0.00     0.233 C 
HETATM    4  C23 UNL     1     186.667 131.313  28.193  1.00  0.00     0.088 C 
HETATM    5  C24 UNL     1     185.606 131.447  29.293  1.00  0.00     0.152 C 
ENDROOT
BRANCH   1   6
HETATM    6  C15 UNL     1     184.827 129.879  31.085  1.00  0.00     0.108 C 
BRANCH   6   7
HETATM    7  S2  UNL     1     185.028 128.270  31.839  1.00  0.00    -0.166 SA
BRANCH   7   8
HETATM    8  C14 UNL     1     183.849 127.090  31.235  1.00  0.00     0.077 C 
BRANCH   8   9
HETATM    9  C13 UNL     1     184.278 125.666  31.425  1.00  0.00     0.037 C 
BRANCH   9  10
HETATM   10  C12 UNL     1     184.038 125.058  32.720  1.00  0.00    -0.026 C 
BRANCH  10  11
HETATM   11  C11 UNL     1     184.590 123.973  33.239  1.00  0.00    -0.004 C 
BRANCH  11  12
HETATM   12  C10 UNL     1     186.021 123.834  33.308  1.00  0.00    -0.004 C 
HETATM   13  C9  UNL     1     186.647 122.736  32.995  1.00  0.00    -0.027 C 
BRANCH  13  14
HETATM   14  C8  UNL     1     186.017 121.495  32.532  1.00  0.00     0.027 C 
BRANCH  14  15
HETATM   15  C7  UNL     1     187.019 120.572  31.852  1.00  0.00     0.004 C 
BRANCH  15  16
HETATM   16  C6  UNL     1     188.229 121.280  31.348  1.00  0.00     0.000 C 
BRANCH  16  17
HETATM   17  C5  UNL     1     189.307 120.371  30.826  1.00  0.00     0.002 C 
BRANCH  17  18
HETATM   18  C4  UNL     1     190.655 120.655  31.448  1.00  0.00     0.020 C 
BRANCH  18  19
HETATM   19  C3  UNL     1     190.783 122.149  31.606  1.00  0.00     0.123 C 
BRANCH  19  20
HETATM   20  N1  UNL     1     192.127 122.640  31.520  1.00  0.00    -0.352 N 
HETATM   21  C2  UNL     1     192.771 122.875  30.286  1.00  0.00     0.279 C 
HETATM   22  O1  UNL     1     192.181 122.662  29.217  1.00  0.00    -0.260 OA
ATOM     23  H1  UNL     1     192.637 122.826  32.383  1.00  0.00     0.163 HD
BRANCH  21  24
HETATM   24  S1  UNL     1     194.457 123.487  30.226  1.00  0.00    -0.074 SA
HETATM   25  C1  UNL     1     194.540 124.997  29.243  1.00  0.00     0.100 C 
ENDBRANCH  21  24
ENDBRANCH  19  20
ENDBRANCH  18  19
ENDBRANCH  17  18
ENDBRANCH  16  17
ENDBRANCH  15  16
ENDBRANCH  14  15
ENDBRANCH  13  14
ENDBRANCH  11  12
ENDBRANCH  10  11
ENDBRANCH   9  10
ENDBRANCH   8   9
ENDBRANCH   7   8
ENDBRANCH   6   7
ENDBRANCH   1   6
BRANCH   5  26
HETATM   26  O4  UNL     1     185.763 132.590  30.035  1.00  0.00    -0.393 OA
ATOM     27  H4  UNL     1     186.535 132.545  30.587  1.00  0.00     0.210 HD
ENDBRANCH   5  26
BRANCH   3  28
HETATM   28  N2  UNL     1     186.453 129.392  26.786  1.00  0.00    -0.299 N 
HETATM   29  C18 UNL     1     187.282 129.218  25.727  1.00  0.00     0.188 A 
HETATM   30  N3  UNL     1     186.518 128.819  24.693  1.00  0.00    -0.345 N 
HETATM   31  C19 UNL     1     185.224 128.736  25.080  1.00  0.00     0.147 A 
ATOM     32  H3  UNL     1     186.864 128.609  23.756  1.00  0.00     0.167 HD
HETATM   33  C20 UNL     1     184.052 128.383  24.431  1.00  0.00     0.290 A 
HETATM   34  C22 UNL     1     185.200 129.105  26.412  1.00  0.00     0.159 A 
HETATM   35  O3  UNL     1     184.101 128.052  23.218  1.00  0.00    -0.265 OA
HETATM   36  N4  UNL     1     182.894 128.408  25.128  1.00  0.00    -0.154 N 
HETATM   37  C21 UNL     1     182.914 128.772  26.422  1.00  0.00     0.680 A 
ATOM     38  H4  UNL     1     182.015 128.155  24.677  1.00  0.00     0.187 HD
HETATM   39  N6  UNL     1     184.020 129.120  27.089  1.00  0.00    -0.174 N 
ATOM     40  H6  UNL     1     183.981 129.388  28.073  1.00  0.00     0.186 HD
BRANCH  37  41
HETATM   41  N5  UNL     1     181.795 128.787  27.066  1.00  0.00    -0.234 N 
ATOM     42  H52 UNL     1     181.573 127.981  27.650  1.00  0.00     0.174 HD
ATOM     43  H51 UNL     1     181.190 129.601  26.958  1.00  0.00     0.174 HD
ENDBRANCH  37  41
ENDBRANCH   3  28
TORSDOF 18
ENDMDL
MODEL 2
REMARK VINA RESULT: -8.146076564      2.365      3.635
REMARK  18 active torsions:
REMARK  status: ('A' for Active; 'I' for Inactive)
REMARK    1  A    between atoms: S1_2  and  C2_3 
REMARK       I    between atoms: C2_3  and  N1_5 
REMARK    2  A    between atoms: N1_5  and  C3_7 
REMARK    3  A    between atoms: C3_7  and  C4_8 
REMARK    4  A    between atoms: C4_8  and  C5_9 
REMARK    5  A    between atoms: C5_9  and  C6_10 
REMARK    6  A    between atoms: C6_10  and  C7_11 
REMARK    7  A    between atoms: C7_11  and  C8_12 
REMARK    8  A    between atoms: C8_12  and  C9_13 
REMARK    9  A    between atoms: C10_14  and  C11_15 
REMARK   10  A    between atoms: C11_15  and  C12_16 
REMARK   11  A    between atoms: C12_16  and  C13_17 
REMARK   12  A    between atoms: C13_17  and  C14_18 
REMARK   13  A    between atoms: C14_18  and  S2_19 
REMARK   14  A    between atoms: S2_19  and  C15_20 
REMARK   15  A    between atoms: C15_20  and  C16_21 
REMARK   16  A    between atoms: C17_23  and  N2_24 
REMARK   17  A    between atoms: C21_33  and  N5_34 
REMARK   18  A    between atoms: C24_41  and  O4_42 
ROOT
HETATM    1  C16 UNL     1     187.206 129.224  30.114  1.00  0.00     0.162 C 
HETATM    2  O2  UNL     1     186.335 129.282  29.031  1.00  0.00    -0.358 OA
HETATM    3  C17 UNL     1     185.970 127.978  28.807  1.00  0.00     0.233 C 
HETATM    4  C23 UNL     1     187.091 127.070  29.234  1.00  0.00     0.088 C 
HETATM    5  C24 UNL     1     188.146 128.103  29.651  1.00  0.00     0.152 C 
ENDROOT
BRANCH   1   6
HETATM    6  C15 UNL     1     187.983 130.526  30.267  1.00  0.00     0.108 C 
BRANCH   6   7
HETATM    7  S2  UNL     1     188.347 130.888  31.980  1.00  0.00    -0.166 SA
BRANCH   7   8
HETATM    8  C14 UNL     1     187.132 130.214  33.084  1.00  0.00     0.077 C 
BRANCH   8   9
HETATM    9  C13 UNL     1     187.555 128.923  33.719  1.00  0.00     0.037 C 
BRANCH   9  10
HETATM   10  C12 UNL     1     186.742 127.748  33.461  1.00  0.00    -0.026 C 
BRANCH  10  11
HETATM   11  C11 UNL     1     185.426 127.657  33.366  1.00  0.00    -0.004 C 
BRANCH  11  12
HETATM   12  C10 UNL     1     184.806 127.102  32.190  1.00  0.00    -0.004 C 
HETATM   13  C9  UNL     1     184.034 126.055  32.218  1.00  0.00    -0.027 C 
BRANCH  13  14
HETATM   14  C8  UNL     1     183.675 125.289  33.416  1.00  0.00     0.027 C 
BRANCH  14  15
HETATM   15  C7  UNL     1     184.092 123.829  33.300  1.00  0.00     0.004 C 
BRANCH  15  16
HETATM   16  C6  UNL     1     185.569 123.637  33.260  1.00  0.00     0.000 C 
BRANCH  16  17
HETATM   17  C5  UNL     1     186.052 122.780  32.123  1.00  0.00     0.002 C 
BRANCH  17  18
HETATM   18  C4  UNL     1     185.676 121.326  32.294  1.00  0.00     0.020 C 
BRANCH  18  19
HETATM   19  C3  UNL     1     186.952 120.532  32.415  1.00  0.00     0.123 C 
BRANCH  19  20
HETATM   20  N1  UNL     1     188.142 121.273  32.118  1.00  0.00    -0.352 N 
HETATM   21  C2  UNL     1     189.158 120.772  31.276  1.00  0.00     0.279 C 
HETATM   22  O1  UNL     1     189.049 119.652  30.756  1.00  0.00    -0.260 OA
ATOM     23  H1  UNL     1     188.259 122.198  32.530  1.00  0.00     0.163 HD
BRANCH  21  24
HETATM   24  S1  UNL     1     190.633 121.734  30.934  1.00  0.00    -0.074 SA
HETATM   25  C1  UNL     1     190.296 123.494  31.143  1.00  0.00     0.100 C 
ENDBRANCH  21  24
ENDBRANCH  19  20
ENDBRANCH  18  19
ENDBRANCH  17  18
ENDBRANCH  16  17
ENDBRANCH  15  16
ENDBRANCH  14  15
ENDBRANCH  13  14
ENDBRANCH  11  12
ENDBRANCH  10  11
ENDBRANCH   9  10
ENDBRANCH   8   9
ENDBRANCH   7   8
ENDBRANCH   6   7
ENDBRANCH   1   6
BRANCH   5  26
HETATM   26  O4  UNL     1     188.941 127.655  30.675  1.00  0.00    -0.393 OA
ATOM     27  H4  UNL     1     189.476 128.353  31.034  1.00  0.00     0.210 HD
ENDBRANCH   5  26
BRANCH   3  28
HETATM   28  N2  UNL     1     185.689 127.711  27.408  1.00  0.00    -0.299 N 
HETATM   29  C18 UNL     1     186.081 126.639  26.675  1.00  0.00     0.188 A 
HETATM   30  N3  UNL     1     185.591 126.812  25.433  1.00  0.00    -0.345 N 
HETATM   31  C19 UNL     1     184.897 127.972  25.369  1.00  0.00     0.147 A 
ATOM     32  H3  UNL     1     185.724 126.165  24.656  1.00  0.00     0.167 HD
HETATM   33  C20 UNL     1     184.205 128.618  24.357  1.00  0.00     0.290 A 
HETATM   34  C22 UNL     1     184.969 128.531  26.631  1.00  0.00     0.159 A 
HETATM   35  O3  UNL     1     184.154 128.088  23.217  1.00  0.00    -0.265 OA
HETATM   36  N4  UNL     1     183.607 129.798  24.634  1.00  0.00    -0.154 N 
HETATM   37  C21 UNL     1     183.701 130.307  25.874  1.00  0.00     0.680 A 
ATOM     38  H4  UNL     1     183.091 130.297  23.909  1.00  0.00     0.187 HD
HETATM   39  N6  UNL     1     184.358 129.720  26.882  1.00  0.00    -0.174 N 
ATOM     40  H6  UNL     1     184.398 130.149  27.806  1.00  0.00     0.186 HD
BRANCH  37  41
HETATM   41  N5  UNL     1     183.120 131.436  26.114  1.00  0.00    -0.234 N 
ATOM     42  H52 UNL     1     183.616 132.289  25.855  1.00  0.00     0.174 HD
ATOM     43  H51 UNL     1     182.198 131.418  26.548  1.00  0.00     0.174 HD
ENDBRANCH  37  41
ENDBRANCH   3  28
TORSDOF 18
ENDMDL
MODEL 3
REMARK VINA RESULT: -8.038253213      3.829      9.180
REMARK  18 active torsions:
REMARK  status: ('A' for Active; 'I' for Inactive)
REMARK    1  A    between atoms: S1_2  and  C2_3 
REMARK       I    between atoms: C2_3  and  N1_5 
REMARK    2  A    between atoms: N1_5  and  C3_7 
REMARK    3  A    between atoms: C3_7  and  C4_8 
REMARK    4  A    between atoms: C4_8  and  C5_9 
REMARK    5  A    between atoms: C5_9  and  C6_10 
REMARK    6  A    between atoms: C6_10  and  C7_11 
REMARK    7  A    between atoms: C7_11  and  C8_12 
REMARK    8  A    between atoms: C8_12  and  C9_13 
REMARK    9  A    between atoms: C10_14  and  C11_15 
REMARK   10  A    between atoms: C11_15  and  C12_16 
REMARK   11  A    between atoms: C12_16  and  C13_17 
REMARK   12  A    between atoms: C13_17  and  C14_18 
REMARK   13  A    between atoms: C14_18  and  S2_19 
REMARK   14  A    between atoms: S2_19  and  C15_20 
REMARK   15  A    between atoms: C15_20  and  C16_21 
REMARK   16  A    between atoms: C17_23  and  N2_24 
REMARK   17  A    between atoms: C21_33  and  N5_34 
REMARK   18  A    between atoms: C24_41  and  O4_42 
ROOT
HETATM    1  C16 UNL     1     187.194 122.027  31.573  1.00  0.00     0.162 C 
HETATM    2  O2  UNL     1     188.237 122.931  31.747  1.00  0.00    -0.358 OA
HETATM    3  C17 UNL     1     189.278 122.407  31.021  1.00  0.00     0.233 C 
HETATM    4  C23 UNL     1     189.152 120.908  30.987  1.00  0.00     0.088 C 
HETATM    5  C24 UNL     1     187.919 120.710  31.879  1.00  0.00     0.152 C 
ENDROOT
BRANCH   1   6
HETATM    6  C15 UNL     1     186.086 122.262  32.593  1.00  0.00     0.108 C 
BRANCH   6   7
HETATM    7  S2  UNL     1     184.857 123.412  31.989  1.00  0.00    -0.166 SA
BRANCH   7   8
HETATM    8  C14 UNL     1     184.825 124.918  32.927  1.00  0.00     0.077 C 
BRANCH   8   9
HETATM    9  C13 UNL     1     183.744 125.864  32.499  1.00  0.00     0.037 C 
BRANCH   9  10
HETATM   10  C12 UNL     1     183.993 126.687  31.329  1.00  0.00    -0.026 C 
BRANCH  10  11
HETATM   11  C11 UNL     1     183.668 127.952  31.124  1.00  0.00    -0.004 C 
BRANCH  11  12
HETATM   12  C10 UNL     1     184.546 128.833  30.398  1.00  0.00    -0.004 C 
HETATM   13  C9  UNL     1     185.296 129.727  30.975  1.00  0.00    -0.027 C 
BRANCH  13  14
HETATM   14  C8  UNL     1     185.370 129.978  32.419  1.00  0.00     0.027 C 
BRANCH  14  15
HETATM   15  C7  UNL     1     186.683 129.484  33.012  1.00  0.00     0.004 C 
BRANCH  15  16
HETATM   16  C6  UNL     1     186.558 128.180  33.721  1.00  0.00     0.000 C 
BRANCH  16  17
HETATM   17  C5  UNL     1     187.635 127.186  33.386  1.00  0.00     0.002 C 
BRANCH  17  18
HETATM   18  C4  UNL     1     188.283 127.464  32.049  1.00  0.00     0.020 C 
BRANCH  18  19
HETATM   19  C3  UNL     1     187.839 126.388  31.089  1.00  0.00     0.123 C 
BRANCH  19  20
HETATM   20  N1  UNL     1     187.318 126.880  29.849  1.00  0.00    -0.352 N 
HETATM   21  C2  UNL     1     186.746 126.031  28.877  1.00  0.00     0.279 C 
HETATM   22  O1  UNL     1     186.672 124.810  29.072  1.00  0.00    -0.260 OA
ATOM     23  H1  UNL     1     187.363 127.881  29.660  1.00  0.00     0.163 HD
BRANCH  21  24
HETATM   24  S1  UNL     1     186.109 126.691  27.334  1.00  0.00    -0.074 SA
HETATM   25  C1  UNL     1     184.306 126.611  27.316  1.00  0.00     0.100 C 
ENDBRANCH  21  24
ENDBRANCH  19  20
ENDBRANCH  18  19
ENDBRANCH  17  18
ENDBRANCH  16  17
ENDBRANCH  15  16
ENDBRANCH  14  15
ENDBRANCH  13  14
ENDBRANCH  11  12
ENDBRANCH  10  11
ENDBRANCH   9  10
ENDBRANCH   8   9
ENDBRANCH   7   8
ENDBRANCH   6   7
ENDBRANCH   1   6
BRANCH   5  26
HETATM   26  O4  UNL     1     187.171 119.623  31.504  1.00  0.00    -0.393 OA
ATOM     27  H4  UNL     1     187.022 119.608  30.567  1.00  0.00     0.210 HD
ENDBRANCH   5  26
BRANCH   3  28
HETATM   28  N2  UNL     1     190.573 122.734  31.589  1.00  0.00    -0.299 N 
HETATM   29  C18 UNL     1     190.874 122.946  32.894  1.00  0.00     0.188 A 
HETATM   30  N3  UNL     1     192.192 123.216  32.953  1.00  0.00    -0.345 N 
HETATM   31  C19 UNL     1     192.727 123.177  31.711  1.00  0.00     0.147 A 
ATOM     32  H3  UNL     1     192.710 123.420  33.808  1.00  0.00     0.167 HD
HETATM   33  C20 UNL     1     194.006 123.374  31.214  1.00  0.00     0.290 A 
HETATM   34  C22 UNL     1     191.686 122.870  30.855  1.00  0.00     0.159 A 
HETATM   35  O3  UNL     1     194.936 123.652  32.013  1.00  0.00    -0.265 OA
HETATM   36  N4  UNL     1     194.206 123.258  29.882  1.00  0.00    -0.154 N 
HETATM   37  C21 UNL     1     193.166 122.958  29.084  1.00  0.00     0.680 A 
ATOM     38  H4  UNL     1     195.136 123.398  29.486  1.00  0.00     0.187 HD
HETATM   39  N6  UNL     1     191.916 122.760  29.520  1.00  0.00    -0.174 N 
ATOM     40  H6  UNL     1     191.162 122.533  28.871  1.00  0.00     0.186 HD
BRANCH  37  41
HETATM   41  N5  UNL     1     193.384 122.852  27.816  1.00  0.00    -0.234 N 
ATOM     42  H52 UNL     1     194.277 122.460  27.519  1.00  0.00     0.174 HD
ATOM     43  H51 UNL     1     192.654 123.166  27.176  1.00  0.00     0.174 HD
ENDBRANCH  37  41
ENDBRANCH   3  28
TORSDOF 18
ENDMDL
MODEL 4
REMARK VINA RESULT: -8.007998575      2.174      3.684
REMARK  18 active torsions:
REMARK  status: ('A' for Active; 'I' for Inactive)
REMARK    1  A    between atoms: S1_2  and  C2_3 
REMARK       I    between atoms: C2_3  and  N1_5 
REMARK    2  A    between atoms: N1_5  and  C3_7 
REMARK    3  A    between atoms: C3_7  and  C4_8 
REMARK    4  A    between atoms: C4_8  and  C5_9 
REMARK    5  A    between atoms: C5_9  and  C6_10 
REMARK    6  A    between atoms: C6_10  and  C7_11 
REMARK    7  A    between atoms: C7_11  and  C8_12 
REMARK    8  A    between atoms: C8_12  and  C9_13 
REMARK    9  A    between atoms: C10_14  and  C11_15 
REMARK   10  A    between atoms: C11_15  and  C12_16 
REMARK   11  A    between atoms: C12_16  and  C13_17 
REMARK   12  A    between atoms: C13_17  and  C14_18 
REMARK   13  A    between atoms: C14_18  and  S2_19 
REMARK   14  A    between atoms: S2_19  and  C15_20 
REMARK   15  A    between atoms: C15_20  and  C16_21 
REMARK   16  A    between atoms: C17_23  and  N2_24 
REMARK   17  A    between atoms: C21_33  and  N5_34 
REMARK   18  A    between atoms: C24_41  and  O4_42 
ROOT
HETATM    1  C16 UNL     1     186.948 131.169  29.490  1.00  0.00     0.162 C 
HETATM    2  O2  UNL     1     186.048 130.655  28.563  1.00  0.00    -0.358 OA
HETATM    3  C17 UNL     1     186.602 129.465  28.161  1.00  0.00     0.233 C 
HETATM    4  C23 UNL     1     188.100 129.557  28.263  1.00  0.00     0.088 C 
HETATM    5  C24 UNL     1     188.261 131.016  28.711  1.00  0.00     0.152 C 
ENDROOT
BRANCH   1   6
HETATM    6  C15 UNL     1     186.675 132.642  29.767  1.00  0.00     0.108 C 
BRANCH   6   7
HETATM    7  S2  UNL     1     186.819 133.032  31.506  1.00  0.00    -0.166 SA
BRANCH   7   8
HETATM    8  C14 UNL     1     187.172 131.599  32.491  1.00  0.00     0.077 C 
BRANCH   8   9
HETATM    9  C13 UNL     1     186.056 131.224  33.420  1.00  0.00     0.037 C 
BRANCH   9  10
HETATM   10  C12 UNL     1     185.988 129.845  33.869  1.00  0.00    -0.026 C 
BRANCH  10  11
HETATM   11  C11 UNL     1     185.606 128.774  33.194  1.00  0.00    -0.004 C 
BRANCH  11  12
HETATM   12  C10 UNL     1     186.347 127.542  33.282  1.00  0.00    -0.004 C 
HETATM   13  C9  UNL     1     185.861 126.389  32.922  1.00  0.00    -0.027 C 
BRANCH  13  14
HETATM   14  C8  UNL     1     184.517 126.160  32.381  1.00  0.00     0.027 C 
BRANCH  14  15
HETATM   15  C7  UNL     1     183.707 125.217  33.260  1.00  0.00     0.004 C 
BRANCH  15  16
HETATM   16  C6  UNL     1     184.314 123.863  33.393  1.00  0.00     0.000 C 
BRANCH  16  17
HETATM   17  C5  UNL     1     184.298 123.050  32.129  1.00  0.00     0.002 C 
BRANCH  17  18
HETATM   18  C4  UNL     1     185.416 122.035  32.080  1.00  0.00     0.020 C 
BRANCH  18  19
HETATM   19  C3  UNL     1     186.683 122.722  32.524  1.00  0.00     0.123 C 
BRANCH  19  20
HETATM   20  N1  UNL     1     187.867 121.925  32.392  1.00  0.00    -0.352 N 
HETATM   21  C2  UNL     1     188.691 121.975  31.247  1.00  0.00     0.279 C 
HETATM   22  O1  UNL     1     188.412 122.727  30.303  1.00  0.00    -0.260 OA
ATOM     23  H1  UNL     1     188.123 121.298  33.154  1.00  0.00     0.163 HD
BRANCH  21  24
HETATM   24  S1  UNL     1     190.163 120.955  31.123  1.00  0.00    -0.074 SA
HETATM   25  C1  UNL     1     191.615 121.985  30.833  1.00  0.00     0.100 C 
ENDBRANCH  21  24
ENDBRANCH  19  20
ENDBRANCH  18  19
ENDBRANCH  17  18
ENDBRANCH  16  17
ENDBRANCH  15  16
ENDBRANCH  14  15
ENDBRANCH  13  14
ENDBRANCH  11  12
ENDBRANCH  10  11
ENDBRANCH   9  10
ENDBRANCH   8   9
ENDBRANCH   7   8
ENDBRANCH   6   7
ENDBRANCH   1   6
BRANCH   5  26
HETATM   26  O4  UNL     1     189.354 131.196  29.521  1.00  0.00    -0.393 OA
ATOM     27  H4  UNL     1     189.877 130.406  29.584  1.00  0.00     0.210 HD
ENDBRANCH   5  26
BRANCH   3  28
HETATM   28  N2  UNL     1     186.268 129.132  26.788  1.00  0.00    -0.299 N 
HETATM   29  C18 UNL     1     187.124 128.913  25.758  1.00  0.00     0.188 A 
HETATM   30  N3  UNL     1     186.373 128.634  24.677  1.00  0.00    -0.345 N 
HETATM   31  C19 UNL     1     185.060 128.672  25.004  1.00  0.00     0.147 A 
ATOM     32  H3  UNL     1     186.739 128.425  23.747  1.00  0.00     0.167 HD
HETATM   33  C20 UNL     1     183.890 128.468  24.290  1.00  0.00     0.290 A 
HETATM   34  C22 UNL     1     185.010 128.990  26.348  1.00  0.00     0.159 A 
HETATM   35  O3  UNL     1     183.962 128.179  23.068  1.00  0.00    -0.265 OA
HETATM   36  N4  UNL     1     182.709 128.586  24.937  1.00  0.00    -0.154 N 
HETATM   37  C21 UNL     1     182.705 128.896  26.245  1.00  0.00     0.680 A 
ATOM     38  H4  UNL     1     181.831 128.442  24.439  1.00  0.00     0.187 HD
HETATM   39  N6  UNL     1     183.808 129.102  26.974  1.00  0.00    -0.174 N 
ATOM     40  H6  UNL     1     183.750 129.335  27.966  1.00  0.00     0.186 HD
BRANCH  37  41
HETATM   41  N5  UNL     1     181.564 129.003  26.841  1.00  0.00    -0.234 N 
ATOM     42  H52 UNL     1     181.398 129.839  27.401  1.00  0.00     0.174 HD
ATOM     43  H51 UNL     1     180.889 128.248  26.722  1.00  0.00     0.174 HD
ENDBRANCH  37  41
ENDBRANCH   3  28
TORSDOF 18
ENDMDL
MODEL 5
REMARK VINA RESULT: -7.967545280      1.418      2.104
REMARK  18 active torsions:
REMARK  status: ('A' for Active; 'I' for Inactive)
REMARK    1  A    between atoms: S1_2  and  C2_3 
REMARK       I    between atoms: C2_3  and  N1_5 
REMARK    2  A    between atoms: N1_5  and  C3_7 
REMARK    3  A    between atoms: C3_7  and  C4_8 
REMARK    4  A    between atoms: C4_8  and  C5_9 
REMARK    5  A    between atoms: C5_9  and  C6_10 
REMARK    6  A    between atoms: C6_10  and  C7_11 
REMARK    7  A    between atoms: C7_11  and  C8_12 
REMARK    8  A    between atoms: C8_12  and  C9_13 
REMARK    9  A    between atoms: C10_14  and  C11_15 
REMARK   10  A    between atoms: C11_15  and  C12_16 
REMARK   11  A    between atoms: C12_16  and  C13_17 
REMARK   12  A    between atoms: C13_17  and  C14_18 
REMARK   13  A    between atoms: C14_18  and  S2_19 
REMARK   14  A    between atoms: S2_19  and  C15_20 
REMARK   15  A    between atoms: C15_20  and  C16_21 
REMARK   16  A    between atoms: C17_23  and  N2_24 
REMARK   17  A    between atoms: C21_33  and  N5_34 
REMARK   18  A    between atoms: C24_41  and  O4_42 
ROOT
HETATM    1  C16 UNL     1     186.627 129.520  30.083  1.00  0.00     0.162 C 
HETATM    2  O2  UNL     1     185.880 128.977  29.043  1.00  0.00    -0.358 OA
HETATM    3  C17 UNL     1     186.809 128.424  28.197  1.00  0.00     0.233 C 
HETATM    4  C23 UNL     1     188.096 129.196  28.303  1.00  0.00     0.088 C 
HETATM    5  C24 UNL     1     187.680 130.300  29.285  1.00  0.00     0.152 C 
ENDROOT
BRANCH   1   6
HETATM    6  C15 UNL     1     185.790 130.480  30.919  1.00  0.00     0.108 C 
BRANCH   6   7
HETATM    7  S2  UNL     1     185.538 129.870  32.581  1.00  0.00    -0.166 SA
BRANCH   7   8
HETATM    8  C14 UNL     1     186.658 128.557  32.995  1.00  0.00     0.077 C 
BRANCH   8   9
HETATM    9  C13 UNL     1     185.981 127.233  33.181  1.00  0.00     0.037 C 
BRANCH   9  10
HETATM   10  C12 UNL     1     184.982 126.843  32.203  1.00  0.00    -0.026 C 
BRANCH  10  11
HETATM   11  C11 UNL     1     183.917 126.075  32.370  1.00  0.00    -0.004 C 
BRANCH  11  12
HETATM   12  C10 UNL     1     183.787 125.235  33.532  1.00  0.00    -0.004 C 
HETATM   13  C9  UNL     1     183.905 123.939  33.492  1.00  0.00    -0.027 C 
BRANCH  13  14
HETATM   14  C8  UNL     1     184.182 123.142  32.292  1.00  0.00     0.027 C 
BRANCH  14  15
HETATM   15  C7  UNL     1     185.459 122.326  32.438  1.00  0.00     0.004 C 
BRANCH  15  16
HETATM   16  C6  UNL     1     186.700 123.145  32.338  1.00  0.00     0.000 C 
BRANCH  16  17
HETATM   17  C5  UNL     1     187.559 123.122  33.571  1.00  0.00     0.002 C 
BRANCH  17  18
HETATM   18  C4  UNL     1     188.395 121.867  33.670  1.00  0.00     0.020 C 
BRANCH  18  19
HETATM   19  C3  UNL     1     188.969 121.586  32.304  1.00  0.00     0.123 C 
BRANCH  19  20
HETATM   20  N1  UNL     1     190.372 121.853  32.185  1.00  0.00    -0.352 N 
HETATM   21  C2  UNL     1     191.013 121.995  30.936  1.00  0.00     0.279 C 
HETATM   22  O1  UNL     1     190.369 121.893  29.882  1.00  0.00    -0.260 OA
ATOM     23  H1  UNL     1     190.928 121.943  33.035  1.00  0.00     0.163 HD
BRANCH  21  24
HETATM   24  S1  UNL     1     192.774 122.325  30.834  1.00  0.00    -0.074 SA
HETATM   25  C1  UNL     1     193.225 122.808  29.155  1.00  0.00     0.100 C 
ENDBRANCH  21  24
ENDBRANCH  19  20
ENDBRANCH  18  19
ENDBRANCH  17  18
ENDBRANCH  16  17
ENDBRANCH  15  16
ENDBRANCH  14  15
ENDBRANCH  13  14
ENDBRANCH  11  12
ENDBRANCH  10  11
ENDBRANCH   9  10
ENDBRANCH   8   9
ENDBRANCH   7   8
ENDBRANCH   6   7
ENDBRANCH   1   6
BRANCH   5  26
HETATM   26  O4  UNL     1     188.719 130.708  30.083  1.00  0.00    -0.393 OA
ATOM     27  H4  UNL     1     188.561 131.571  30.449  1.00  0.00     0.210 HD
ENDBRANCH   5  26
BRANCH   3  28
HETATM   28  N2  UNL     1     186.385 128.452  26.809  1.00  0.00    -0.299 N 
HETATM   29  C18 UNL     1     187.172 128.456  25.704  1.00  0.00     0.188 A 
HETATM   30  N3  UNL     1     186.351 128.484  24.638  1.00  0.00    -0.345 N 
HETATM   31  C19 UNL     1     185.061 128.498  25.049  1.00  0.00     0.147 A 
ATOM     32  H3  UNL     1     186.655 128.493  23.664  1.00  0.00     0.167 HD
HETATM   33  C20 UNL     1     183.846 128.526  24.385  1.00  0.00     0.290 A 
HETATM   34  C22 UNL     1     185.100 128.478  26.430  1.00  0.00     0.159 A 
HETATM   35  O3  UNL     1     183.837 128.543  23.127  1.00  0.00    -0.265 OA
HETATM   36  N4  UNL     1     182.709 128.534  25.116  1.00  0.00    -0.154 N 
HETATM   37  C21 UNL     1     182.791 128.514  26.458  1.00  0.00     0.680 A 
ATOM     38  H4  UNL     1     181.799 128.556  24.656  1.00  0.00     0.187 HD
HETATM   39  N6  UNL     1     183.941 128.486  27.142  1.00  0.00    -0.174 N 
ATOM     40  H6  UNL     1     183.948 128.471  28.162  1.00  0.00     0.186 HD
BRANCH  37  41
HETATM   41  N5  UNL     1     181.691 128.521  27.134  1.00  0.00    -0.234 N 
ATOM     42  H52 UNL     1     181.574 127.811  27.857  1.00  0.00     0.174 HD
ATOM     43  H51 UNL     1     180.996 129.234  26.913  1.00  0.00     0.174 HD
ENDBRANCH  37  41
ENDBRANCH   3  28
TORSDOF 18
ENDMDL
