MODEL 1
REMARK VINA RESULT: -6.467391018      0.000      0.000
REMARK  4 active torsions:
REMARK  status: ('A' for Active; 'I' for Inactive)
REMARK    1  A    between atoms: C2_2  and  N1_4 
REMARK       I    between atoms: N1_4  and  C4_6 
REMARK       I    between atoms: C4_6  and  N2_8 
REMARK    2  A    between atoms: N5_18  and  C9_20 
REMARK    3  A    between atoms: C9_20  and  C10_21 
REMARK    4  A    between atoms: C10_21  and  C13_24 
ROOT
HETATM    1  N1  UNL     1      43.422  -1.658  27.870  1.00  0.00    -0.339 N 
ATOM      2  H1  UNL     1      42.801  -0.979  27.429  1.00  0.00     0.164 HD
HETATM    3  C4  UNL     1      43.473  -1.747  29.272  1.00  0.00     0.321 C 
HETATM    4  O1  UNL     1      44.230  -2.576  29.817  1.00  0.00    -0.247 OA
HETATM    5  N2  UNL     1      42.670  -0.902  30.066  1.00  0.00    -0.309 N 
ATOM      6  H2  UNL     1      43.078  -0.104  30.555  1.00  0.00     0.170 HD
HETATM    7  C5  UNL     1      41.407  -1.156  30.162  1.00  0.00     0.039 A 
HETATM    8  C6  UNL     1      40.643  -2.247  29.540  1.00  0.00     0.061 A 
HETATM    9  C7  UNL     1      39.384  -2.104  29.923  1.00  0.00     0.064 A 
HETATM   10  N3  UNL     1      38.181  -2.683  29.771  1.00  0.00    -0.298 N 
ATOM     11  H3  UNL     1      37.983  -3.513  29.212  1.00  0.00     0.187 HD
HETATM   12  N4  UNL     1      37.300  -1.992  30.470  1.00  0.00    -0.285 N 
ATOM     13  H4  UNL     1      36.307  -2.214  30.530  1.00  0.00     0.188 HD
HETATM   14  C8  UNL     1      37.890  -0.954  31.093  1.00  0.00     0.128 A 
HETATM   15  N5  UNL     1      37.303  -0.095  31.849  1.00  0.00    -0.374 N 
ATOM     16  H5  UNL     1      36.299  -0.186  32.007  1.00  0.00     0.161 HD
HETATM   17  C17 UNL     1      39.234  -1.015  30.750  1.00  0.00     0.039 A 
HETATM   18  C18 UNL     1      40.397  -0.409  30.930  1.00  0.00     0.047 A 
ENDROOT
BRANCH  15  19
HETATM   19  C9  UNL     1      38.013   0.997  32.485  1.00  0.00     0.130 C 
BRANCH  19  20
HETATM   20  C10 UNL     1      37.554   1.178  33.909  1.00  0.00    -0.025 C 
HETATM   21  C11 UNL     1      36.673   2.401  33.990  1.00  0.00     0.017 C 
HETATM   22  C12 UNL     1      36.673  -0.014  34.243  1.00  0.00     0.017 C 
BRANCH  20  23
HETATM   23  C13 UNL     1      38.678   1.206  34.890  1.00  0.00    -0.043 C 
HETATM   24  C14 UNL     1      39.953   0.610  34.336  1.00  0.00     0.015 C 
HETATM   25  C15 UNL     1      38.338   0.397  36.134  1.00  0.00     0.015 C 
HETATM   26  C16 UNL     1      39.017   2.606  35.357  1.00  0.00     0.015 C 
ENDBRANCH  20  23
ENDBRANCH  19  20
ENDBRANCH  15  19
BRANCH   1  27
HETATM   27  C2  UNL     1      44.241  -2.520  27.052  1.00  0.00     0.078 C 
HETATM   28  C1  UNL     1      44.541  -1.786  25.759  1.00  0.00     0.032 C 
HETATM   29  C3  UNL     1      43.431  -3.778  26.773  1.00  0.00     0.032 C 
ENDBRANCH   1  27
TORSDOF 4
ENDMDL
MODEL 2
REMARK VINA RESULT: -6.365468678      2.323      3.417
REMARK  4 active torsions:
REMARK  status: ('A' for Active; 'I' for Inactive)
REMARK    1  A    between atoms: C2_2  and  N1_4 
REMARK       I    between atoms: N1_4  and  C4_6 
REMARK       I    between atoms: C4_6  and  N2_8 
REMARK    2  A    between atoms: N5_18  and  C9_20 
REMARK    3  A    between atoms: C9_20  and  C10_21 
REMARK    4  A    between atoms: C10_21  and  C13_24 
ROOT
HETATM    1  N1  UNL     1      43.613  -2.173  27.132  1.00  0.00    -0.339 N 
ATOM      2  H1  UNL     1      42.681  -2.585  27.181  1.00  0.00     0.164 HD
HETATM    3  C4  UNL     1      43.980  -1.164  28.039  1.00  0.00     0.321 C 
HETATM    4  O1  UNL     1      45.119  -0.658  27.983  1.00  0.00    -0.247 OA
HETATM    5  N2  UNL     1      43.062  -0.720  29.014  1.00  0.00    -0.309 N 
ATOM      6  H2  UNL     1      42.584   0.176  28.910  1.00  0.00     0.170 HD
HETATM    7  C5  UNL     1      42.837  -1.470  30.042  1.00  0.00     0.039 A 
HETATM    8  C6  UNL     1      43.422  -2.779  30.365  1.00  0.00     0.061 A 
HETATM    9  C7  UNL     1      42.894  -3.166  31.515  1.00  0.00     0.064 A 
HETATM   10  N3  UNL     1      42.939  -4.187  32.387  1.00  0.00    -0.298 N 
ATOM     11  H3  UNL     1      43.512  -5.026  32.297  1.00  0.00     0.187 HD
HETATM   12  N4  UNL     1      42.114  -3.916  33.381  1.00  0.00    -0.285 N 
ATOM     13  H4  UNL     1      41.954  -4.526  34.183  1.00  0.00     0.188 HD
HETATM   14  C8  UNL     1      41.511  -2.726  33.195  1.00  0.00     0.128 A 
HETATM   15  N5  UNL     1      40.656  -2.182  33.985  1.00  0.00    -0.374 N 
ATOM     16  H5  UNL     1      40.392  -2.676  34.838  1.00  0.00     0.161 HD
HETATM   17  C17 UNL     1      42.005  -2.231  31.996  1.00  0.00     0.039 A 
HETATM   18  C18 UNL     1      41.927  -1.202  31.167  1.00  0.00     0.047 A 
ENDROOT
BRANCH  15  19
HETATM   19  C9  UNL     1      40.051  -0.893  33.710  1.00  0.00     0.130 C 
BRANCH  19  20
HETATM   20  C10 UNL     1      38.569  -1.036  33.474  1.00  0.00    -0.025 C 
HETATM   21  C11 UNL     1      38.176  -2.479  33.679  1.00  0.00     0.017 C 
HETATM   22  C12 UNL     1      37.871  -0.238  34.563  1.00  0.00     0.017 C 
BRANCH  20  23
HETATM   23  C13 UNL     1      38.129  -0.495  32.155  1.00  0.00    -0.043 C 
HETATM   24  C14 UNL     1      38.923   0.719  31.725  1.00  0.00     0.015 C 
HETATM   25  C15 UNL     1      36.674  -0.054  32.203  1.00  0.00     0.015 C 
HETATM   26  C16 UNL     1      38.242  -1.509  31.036  1.00  0.00     0.015 C 
ENDBRANCH  20  23
ENDBRANCH  19  20
ENDBRANCH  15  19
BRANCH   1  27
HETATM   27  C2  UNL     1      44.548  -2.632  26.131  1.00  0.00     0.078 C 
HETATM   28  C1  UNL     1      44.398  -1.740  24.914  1.00  0.00     0.032 C 
HETATM   29  C3  UNL     1      44.172  -4.066  25.788  1.00  0.00     0.032 C 
ENDBRANCH   1  27
TORSDOF 4
ENDMDL
MODEL 3
REMARK VINA RESULT: -6.322380421      0.670      1.469
REMARK  4 active torsions:
REMARK  status: ('A' for Active; 'I' for Inactive)
REMARK    1  A    between atoms: C2_2  and  N1_4 
REMARK       I    between atoms: N1_4  and  C4_6 
REMARK       I    between atoms: C4_6  and  N2_8 
REMARK    2  A    between atoms: N5_18  and  C9_20 
REMARK    3  A    between atoms: C9_20  and  C10_21 
REMARK    4  A    between atoms: C10_21  and  C13_24 
ROOT
HETATM    1  N1  UNL     1      43.415  -1.503  27.574  1.00  0.00    -0.339 N 
ATOM      2  H1  UNL     1      42.674  -0.957  27.134  1.00  0.00     0.164 HD
HETATM    3  C4  UNL     1      43.550  -1.498  28.973  1.00  0.00     0.321 C 
HETATM    4  O1  UNL     1      44.455  -2.165  29.514  1.00  0.00    -0.247 OA
HETATM    5  N2  UNL     1      42.663  -0.741  29.767  1.00  0.00    -0.309 N 
ATOM      6  H2  UNL     1      42.964   0.138  30.189  1.00  0.00     0.170 HD
HETATM    7  C5  UNL     1      41.463  -1.182  29.950  1.00  0.00     0.039 A 
HETATM    8  C6  UNL     1      40.851  -2.414  29.432  1.00  0.00     0.061 A 
HETATM    9  C7  UNL     1      39.606  -2.446  29.880  1.00  0.00     0.064 A 
HETATM   10  N3  UNL     1      38.504  -3.212  29.829  1.00  0.00    -0.298 N 
ATOM     11  H3  UNL     1      38.412  -4.095  29.327  1.00  0.00     0.187 HD
HETATM   12  N4  UNL     1      37.561  -2.625  30.542  1.00  0.00    -0.285 N 
ATOM     13  H4  UNL     1      36.619  -2.994  30.671  1.00  0.00     0.188 HD
HETATM   14  C8  UNL     1      38.009  -1.472  31.075  1.00  0.00     0.128 A 
HETATM   15  N5  UNL     1      37.332  -0.671  31.817  1.00  0.00    -0.374 N 
ATOM     16  H5  UNL     1      36.364  -0.907  32.039  1.00  0.00     0.161 HD
HETATM   17  C17 UNL     1      39.326  -1.344  30.656  1.00  0.00     0.039 A 
HETATM   18  C18 UNL     1      40.387  -0.556  30.736  1.00  0.00     0.047 A 
ENDROOT
BRANCH  15  19
HETATM   19  C9  UNL     1      37.890   0.555  32.353  1.00  0.00     0.130 C 
BRANCH  19  20
HETATM   20  C10 UNL     1      38.101   0.443  33.841  1.00  0.00    -0.025 C 
HETATM   21  C11 UNL     1      37.529  -0.869  34.321  1.00  0.00     0.017 C 
HETATM   22  C12 UNL     1      39.602   0.370  34.069  1.00  0.00     0.017 C 
BRANCH  20  23
HETATM   23  C13 UNL     1      37.579   1.617  34.600  1.00  0.00    -0.043 C 
HETATM   24  C14 UNL     1      36.749   1.215  35.799  1.00  0.00     0.015 C 
HETATM   25  C15 UNL     1      36.674   2.474  33.726  1.00  0.00     0.015 C 
HETATM   26  C16 UNL     1      38.678   2.522  35.113  1.00  0.00     0.015 C 
ENDBRANCH  20  23
ENDBRANCH  19  20
ENDBRANCH  15  19
BRANCH   1  27
HETATM   27  C2  UNL     1      44.319  -2.276  26.755  1.00  0.00     0.078 C 
HETATM   28  C1  UNL     1      44.482  -1.551  25.433  1.00  0.00     0.032 C 
HETATM   29  C3  UNL     1      43.676  -3.637  26.537  1.00  0.00     0.032 C 
ENDBRANCH   1  27
TORSDOF 4
ENDMDL
MODEL 4
REMARK VINA RESULT: -6.012392818      7.266      8.837
REMARK  4 active torsions:
REMARK  status: ('A' for Active; 'I' for Inactive)
REMARK    1  A    between atoms: C2_2  and  N1_4 
REMARK       I    between atoms: N1_4  and  C4_6 
REMARK       I    between atoms: C4_6  and  N2_8 
REMARK    2  A    between atoms: N5_18  and  C9_20 
REMARK    3  A    between atoms: C9_20  and  C10_21 
REMARK    4  A    between atoms: C10_21  and  C13_24 
ROOT
HETATM    1  N1  UNL     1      49.664  -1.530  37.185  1.00  0.00    -0.339 N 
ATOM      2  H1  UNL     1      49.668  -0.536  37.411  1.00  0.00     0.164 HD
HETATM    3  C4  UNL     1      48.455  -2.247  37.209  1.00  0.00     0.321 C 
HETATM    4  O1  UNL     1      48.446  -3.464  36.933  1.00  0.00    -0.247 OA
HETATM    5  N2  UNL     1      47.251  -1.594  37.544  1.00  0.00    -0.309 N 
ATOM      6  H2  UNL     1      46.823  -1.729  38.461  1.00  0.00     0.170 HD
HETATM    7  C5  UNL     1      46.699  -0.821  36.669  1.00  0.00     0.039 A 
HETATM    8  C6  UNL     1      47.158  -0.505  35.308  1.00  0.00     0.061 A 
HETATM    9  C7  UNL     1      46.273   0.329  34.786  1.00  0.00     0.064 A 
HETATM   10  N3  UNL     1      46.032   1.010  33.653  1.00  0.00    -0.298 N 
ATOM     11  H3  UNL     1      46.614   1.004  32.816  1.00  0.00     0.187 HD
HETATM   12  N4  UNL     1      44.911   1.689  33.812  1.00  0.00    -0.285 N 
ATOM     13  H4  UNL     1      44.495   2.293  33.103  1.00  0.00     0.188 HD
HETATM   14  C8  UNL     1      44.390   1.476  35.035  1.00  0.00     0.128 A 
HETATM   15  N5  UNL     1      43.305   1.992  35.493  1.00  0.00    -0.374 N 
ATOM     16  H5  UNL     1      42.771   2.623  34.895  1.00  0.00     0.161 HD
HETATM   17  C17 UNL     1      45.258   0.601  35.673  1.00  0.00     0.039 A 
HETATM   18  C18 UNL     1      45.453  -0.051  36.810  1.00  0.00     0.047 A 
ENDROOT
BRANCH  15  19
HETATM   19  C9  UNL     1      42.811   1.711  36.827  1.00  0.00     0.130 C 
BRANCH  19  20
HETATM   20  C10 UNL     1      42.958   2.917  37.719  1.00  0.00    -0.025 C 
HETATM   21  C11 UNL     1      43.711   3.992  36.971  1.00  0.00     0.017 C 
HETATM   22  C12 UNL     1      41.559   3.459  37.961  1.00  0.00     0.017 C 
BRANCH  20  23
HETATM   23  C13 UNL     1      43.562   2.599  39.045  1.00  0.00    -0.043 C 
HETATM   24  C14 UNL     1      45.075   2.637  39.023  1.00  0.00     0.015 C 
HETATM   25  C15 UNL     1      43.180   1.198  39.498  1.00  0.00     0.015 C 
HETATM   26  C16 UNL     1      43.118   3.550  40.137  1.00  0.00     0.015 C 
ENDBRANCH  20  23
ENDBRANCH  19  20
ENDBRANCH  15  19
BRANCH   1  27
HETATM   27  C2  UNL     1      50.901  -2.193  36.843  1.00  0.00     0.078 C 
HETATM   28  C1  UNL     1      51.672  -2.428  38.127  1.00  0.00     0.032 C 
HETATM   29  C3  UNL     1      51.672  -1.258  35.924  1.00  0.00     0.032 C 
ENDBRANCH   1  27
TORSDOF 4
ENDMDL
MODEL 5
REMARK VINA RESULT: -5.965506190      7.214      8.825
REMARK  4 active torsions:
REMARK  status: ('A' for Active; 'I' for Inactive)
REMARK    1  A    between atoms: C2_2  and  N1_4 
REMARK       I    between atoms: N1_4  and  C4_6 
REMARK       I    between atoms: C4_6  and  N2_8 
REMARK    2  A    between atoms: N5_18  and  C9_20 
REMARK    3  A    between atoms: C9_20  and  C10_21 
REMARK    4  A    between atoms: C10_21  and  C13_24 
ROOT
HETATM    1  N1  UNL     1      49.791  -0.631  36.936  1.00  0.00    -0.339 N 
ATOM      2  H1  UNL     1      49.918   0.322  36.596  1.00  0.00     0.164 HD
HETATM    3  C4  UNL     1      48.675  -0.947  37.729  1.00  0.00     0.321 C 
HETATM    4  O1  UNL     1      48.515  -2.112  38.146  1.00  0.00    -0.247 OA
HETATM    5  N2  UNL     1      47.732   0.051  38.055  1.00  0.00    -0.309 N 
ATOM      6  H2  UNL     1      47.711   0.462  38.989  1.00  0.00     0.170 HD
HETATM    7  C5  UNL     1      46.896   0.436  37.149  1.00  0.00     0.039 A 
HETATM    8  C6  UNL     1      46.772  -0.033  35.761  1.00  0.00     0.061 A 
HETATM    9  C7  UNL     1      45.777   0.646  35.212  1.00  0.00     0.064 A 
HETATM   10  N3  UNL     1      45.117   0.761  34.047  1.00  0.00    -0.298 N 
ATOM     11  H3  UNL     1      45.308   0.230  33.197  1.00  0.00     0.187 HD
HETATM   12  N4  UNL     1      44.180   1.679  34.193  1.00  0.00    -0.285 N 
ATOM     13  H4  UNL     1      43.531   1.964  33.460  1.00  0.00     0.188 HD
HETATM   14  C8  UNL     1      44.196   2.187  35.440  1.00  0.00     0.128 A 
HETATM   15  N5  UNL     1      43.409   3.096  35.894  1.00  0.00    -0.374 N 
ATOM     16  H5  UNL     1      42.698   3.484  35.274  1.00  0.00     0.161 HD
HETATM   17  C17 UNL     1      45.221   1.530  36.108  1.00  0.00     0.039 A 
HETATM   18  C18 UNL     1      45.841   1.454  37.275  1.00  0.00     0.047 A 
ENDROOT
BRANCH  15  19
HETATM   19  C9  UNL     1      43.492   3.590  37.255  1.00  0.00     0.130 C 
BRANCH  19  20
HETATM   20  C10 UNL     1      42.230   3.278  38.017  1.00  0.00    -0.025 C 
HETATM   21  C11 UNL     1      41.521   4.571  38.343  1.00  0.00     0.017 C 
HETATM   22  C12 UNL     1      41.321   2.514  37.070  1.00  0.00     0.017 C 
BRANCH  20  23
HETATM   23  C13 UNL     1      42.463   2.425  39.218  1.00  0.00    -0.043 C 
HETATM   24  C14 UNL     1      42.567   0.954  38.880  1.00  0.00     0.015 C 
HETATM   25  C15 UNL     1      41.317   2.552  40.210  1.00  0.00     0.015 C 
HETATM   26  C16 UNL     1      43.730   2.791  39.963  1.00  0.00     0.015 C 
ENDBRANCH  20  23
ENDBRANCH  19  20
ENDBRANCH  15  19
BRANCH   1  27
HETATM   27  C2  UNL     1      50.759  -1.648  36.598  1.00  0.00     0.078 C 
HETATM   28  C1  UNL     1      51.672  -1.835  37.794  1.00  0.00     0.032 C 
HETATM   29  C3  UNL     1      51.550  -1.136  35.403  1.00  0.00     0.032 C 
ENDBRANCH   1  27
TORSDOF 4
ENDMDL
