MODEL 1
REMARK VINA RESULT: -6.551989557      0.000      0.000
REMARK  7 active torsions:
REMARK  status: ('A' for Active; 'I' for Inactive)
REMARK    1  A    between atoms: C2_2  and  N1_4 
REMARK       I    between atoms: N1_4  and  C4_5 
REMARK       I    between atoms: C4_5  and  N2_7 
REMARK    2  A    between atoms: N2_7  and  C5_9 
REMARK    3  A    between atoms: C5_9  and  C6_13 
REMARK    4  A    between atoms: C6_13  and  C7_14 
REMARK    5  A    between atoms: C7_14  and  N4_15 
REMARK       I    between atoms: N4_15  and  C8_17 
REMARK       I    between atoms: C8_17  and  N5_19 
REMARK    6  A    between atoms: N5_19  and  C9_21 
REMARK    7  A    between atoms: C13_27  and  C14_28 
ROOT
HETATM    1  N4  UNL     1      43.385  -3.808  26.875  1.00  0.00    -0.342 N 
ATOM      2  H4  UNL     1      42.612  -3.954  26.225  1.00  0.00     0.164 HD
HETATM    3  C8  UNL     1      43.380  -4.398  28.172  1.00  0.00     0.321 C 
HETATM    4  O2  UNL     1      44.320  -4.232  28.991  1.00  0.00    -0.247 OA
HETATM    5  N5  UNL     1      42.294  -5.220  28.615  1.00  0.00    -0.294 N 
ATOM      6  H5  UNL     1      42.269  -6.191  28.305  1.00  0.00     0.172 HD
ENDROOT
BRANCH   1   7
HETATM    7  C7  UNL     1      44.522  -2.997  26.514  1.00  0.00     0.132 C 
BRANCH   7   8
HETATM    8  C6  UNL     1      44.196  -1.538  26.427  1.00  0.00     0.096 C 
BRANCH   8   9
HETATM    9  C5  UNL     1      44.202  -0.963  27.789  1.00  0.00     0.081 C 
HETATM   10  N3  UNL     1      45.344  -0.468  28.260  1.00  0.00    -0.389 N 
ATOM     11  H32 UNL     1      45.348  -0.071  29.200  1.00  0.00     0.157 HD
ATOM     12  H31 UNL     1      46.139  -0.562  27.629  1.00  0.00     0.157 HD
BRANCH   9  13
HETATM   13  N2  UNL     1      43.115  -0.834  28.652  1.00  0.00    -0.286 N 
HETATM   14  C4  UNL     1      43.096  -1.061  30.057  1.00  0.00     0.399 C 
HETATM   15  N1  UNL     1      41.986  -0.912  30.779  1.00  0.00    -0.362 NA
HETATM   16  O1  UNL     1      44.218  -1.421  30.598  1.00  0.00    -0.230 OA
ATOM     17  H2  UNL     1      42.234  -0.543  28.228  1.00  0.00     0.173 HD
BRANCH  15  18
HETATM   18  C2  UNL     1      41.021  -0.659  31.427  1.00  0.00     0.060 C 
HETATM   19  C1  UNL     1      40.954  -0.930  32.930  1.00  0.00     0.079 C 
HETATM   20  C3  UNL     1      39.733  -0.043  30.889  1.00  0.00     0.079 C 
ENDBRANCH  15  18
ENDBRANCH   9  13
ENDBRANCH   8   9
ENDBRANCH   7   8
ENDBRANCH   1   7
BRANCH   5  21
HETATM   21  C9  UNL     1      41.346  -4.804  29.383  1.00  0.00     0.115 A 
HETATM   22  N6  UNL     1      40.414  -3.949  28.984  1.00  0.00    -0.352 N 
HETATM   23  C10 UNL     1      39.448  -3.551  29.819  1.00  0.00     0.089 A 
ATOM     24  H6  UNL     1      40.434  -3.591  28.029  1.00  0.00     0.166 HD
HETATM   25  C11 UNL     1      39.423  -4.035  31.107  1.00  0.00     0.018 A 
HETATM   26  C12 UNL     1      40.380  -4.923  31.545  1.00  0.00     0.012 A 
HETATM   27  C13 UNL     1      41.354  -5.318  30.684  1.00  0.00    -0.011 A 
BRANCH  27  28
HETATM   28  C14 UNL     1      42.426  -6.276  31.081  1.00  0.00     0.014 C 
HETATM   29  C15 UNL     1      41.758  -7.499  31.659  1.00  0.00     0.015 C 
HETATM   30  C16 UNL     1      43.304  -5.583  32.103  1.00  0.00     0.015 C 
ENDBRANCH  27  28
ENDBRANCH   5  21
TORSDOF 7
ENDMDL
MODEL 2
REMARK VINA RESULT: -6.462080200      6.952      9.236
REMARK  7 active torsions:
REMARK  status: ('A' for Active; 'I' for Inactive)
REMARK    1  A    between atoms: C2_2  and  N1_4 
REMARK       I    between atoms: N1_4  and  C4_5 
REMARK       I    between atoms: C4_5  and  N2_7 
REMARK    2  A    between atoms: N2_7  and  C5_9 
REMARK    3  A    between atoms: C5_9  and  C6_13 
REMARK    4  A    between atoms: C6_13  and  C7_14 
REMARK    5  A    between atoms: C7_14  and  N4_15 
REMARK       I    between atoms: N4_15  and  C8_17 
REMARK       I    between atoms: C8_17  and  N5_19 
REMARK    6  A    between atoms: N5_19  and  C9_21 
REMARK    7  A    between atoms: C13_27  and  C14_28 
ROOT
HETATM    1  N4  UNL     1      46.411   1.339  35.967  1.00  0.00    -0.342 N 
ATOM      2  H4  UNL     1      46.968   2.182  36.108  1.00  0.00     0.164 HD
HETATM    3  C8  UNL     1      46.789   0.097  36.554  1.00  0.00     0.321 C 
HETATM    4  O2  UNL     1      46.119  -0.956  36.394  1.00  0.00    -0.247 OA
HETATM    5  N5  UNL     1      47.964  -0.019  37.366  1.00  0.00    -0.294 N 
ATOM      6  H5  UNL     1      47.908   0.286  38.337  1.00  0.00     0.172 HD
ENDROOT
BRANCH   1   7
HETATM    7  C7  UNL     1      45.210   1.361  35.167  1.00  0.00     0.132 C 
BRANCH   7   8
HETATM    8  C6  UNL     1      45.465   1.058  33.723  1.00  0.00     0.096 C 
BRANCH   8   9
HETATM    9  C5  UNL     1      44.618  -0.083  33.315  1.00  0.00     0.081 C 
HETATM   10  N3  UNL     1      43.835  -0.648  34.232  1.00  0.00    -0.389 N 
ATOM     11  H32 UNL     1      43.251  -1.435  33.950  1.00  0.00     0.157 HD
ATOM     12  H31 UNL     1      43.918  -0.247  35.165  1.00  0.00     0.157 HD
BRANCH   9  13
HETATM   13  N2  UNL     1      44.504  -0.631  32.039  1.00  0.00    -0.286 N 
HETATM   14  C4  UNL     1      43.307  -0.865  31.303  1.00  0.00     0.399 C 
HETATM   15  N1  UNL     1      43.324  -1.406  30.086  1.00  0.00    -0.362 NA
HETATM   16  O1  UNL     1      42.198  -0.522  31.882  1.00  0.00    -0.230 OA
ATOM     17  H2  UNL     1      45.376  -0.894  31.580  1.00  0.00     0.173 HD
BRANCH  15  18
HETATM   18  C2  UNL     1      43.362  -1.776  28.956  1.00  0.00     0.060 C 
HETATM   19  C1  UNL     1      44.246  -1.104  27.906  1.00  0.00     0.079 C 
HETATM   20  C3  UNL     1      42.565  -2.944  28.383  1.00  0.00     0.079 C 
ENDBRANCH  15  18
ENDBRANCH   9  13
ENDBRANCH   8   9
ENDBRANCH   7   8
ENDBRANCH   1   7
BRANCH   5  21
HETATM   21  C9  UNL     1      49.087  -0.486  36.940  1.00  0.00     0.115 A 
HETATM   22  N6  UNL     1      49.633  -0.119  35.788  1.00  0.00    -0.352 N 
HETATM   23  C10 UNL     1      50.804  -0.631  35.392  1.00  0.00     0.089 A 
ATOM     24  H6  UNL     1      49.154   0.561  35.198  1.00  0.00     0.166 HD
HETATM   25  C11 UNL     1      51.447  -1.548  36.191  1.00  0.00     0.018 A 
HETATM   26  C12 UNL     1      50.900  -1.945  37.391  1.00  0.00     0.012 A 
HETATM   27  C13 UNL     1      49.711  -1.415  37.779  1.00  0.00    -0.011 A 
BRANCH  27  28
HETATM   28  C14 UNL     1      49.053  -1.793  39.063  1.00  0.00     0.014 C 
HETATM   29  C15 UNL     1      50.046  -1.559  40.174  1.00  0.00     0.015 C 
HETATM   30  C16 UNL     1      48.659  -3.252  38.963  1.00  0.00     0.015 C 
ENDBRANCH  27  28
ENDBRANCH   5  21
TORSDOF 7
ENDMDL
MODEL 3
REMARK VINA RESULT: -6.363935873      5.301      7.089
REMARK  7 active torsions:
REMARK  status: ('A' for Active; 'I' for Inactive)
REMARK    1  A    between atoms: C2_2  and  N1_4 
REMARK       I    between atoms: N1_4  and  C4_5 
REMARK       I    between atoms: C4_5  and  N2_7 
REMARK    2  A    between atoms: N2_7  and  C5_9 
REMARK    3  A    between atoms: C5_9  and  C6_13 
REMARK    4  A    between atoms: C6_13  and  C7_14 
REMARK    5  A    between atoms: C7_14  and  N4_15 
REMARK       I    between atoms: N4_15  and  C8_17 
REMARK       I    between atoms: C8_17  and  N5_19 
REMARK    6  A    between atoms: N5_19  and  C9_21 
REMARK    7  A    between atoms: C13_27  and  C14_28 
ROOT
HETATM    1  N4  UNL     1      44.537  -0.677  32.683  1.00  0.00    -0.342 N 
ATOM      2  H4  UNL     1      45.368  -1.267  32.721  1.00  0.00     0.164 HD
HETATM    3  C8  UNL     1      43.423  -1.020  31.862  1.00  0.00     0.321 C 
HETATM    4  O2  UNL     1      42.388  -0.308  31.799  1.00  0.00    -0.247 OA
HETATM    5  N5  UNL     1      43.424  -2.207  31.060  1.00  0.00    -0.294 N 
ATOM      6  H5  UNL     1      43.210  -3.094  31.515  1.00  0.00     0.172 HD
ENDROOT
BRANCH   1   7
HETATM    7  C7  UNL     1      44.445   0.536  33.459  1.00  0.00     0.132 C 
BRANCH   7   8
HETATM    8  C6  UNL     1      44.564   0.297  34.933  1.00  0.00     0.096 C 
BRANCH   8   9
HETATM    9  C5  UNL     1      45.831   0.886  35.415  1.00  0.00     0.081 C 
HETATM   10  N3  UNL     1      45.805   2.122  35.910  1.00  0.00    -0.389 N 
ATOM     11  H32 UNL     1      46.680   2.528  36.242  1.00  0.00     0.157 HD
ATOM     12  H31 UNL     1      44.890   2.570  35.881  1.00  0.00     0.157 HD
BRANCH   9  13
HETATM   13  N2  UNL     1      47.082   0.273  35.455  1.00  0.00    -0.286 N 
HETATM   14  C4  UNL     1      47.842  -0.064  36.611  1.00  0.00     0.399 C 
HETATM   15  N1  UNL     1      49.037  -0.646  36.522  1.00  0.00    -0.362 NA
HETATM   16  O1  UNL     1      47.308   0.225  37.757  1.00  0.00    -0.230 OA
ATOM     17  H2  UNL     1      47.499   0.038  34.554  1.00  0.00     0.173 HD
BRANCH  15  18
HETATM   18  C2  UNL     1      50.045  -1.271  36.431  1.00  0.00     0.060 C 
HETATM   19  C1  UNL     1      51.115  -0.946  35.389  1.00  0.00     0.079 C 
HETATM   20  C3  UNL     1      50.428  -2.459  37.308  1.00  0.00     0.079 C 
ENDBRANCH  15  18
ENDBRANCH   9  13
ENDBRANCH   8   9
ENDBRANCH   7   8
ENDBRANCH   1   7
BRANCH   5  21
HETATM   21  C9  UNL     1      43.680  -2.219  29.797  1.00  0.00     0.115 A 
HETATM   22  N6  UNL     1      44.111  -1.152  29.136  1.00  0.00    -0.352 N 
HETATM   23  C10 UNL     1      44.366  -1.217  27.825  1.00  0.00     0.089 A 
ATOM     24  H6  UNL     1      44.249  -0.273  29.634  1.00  0.00     0.166 HD
HETATM   25  C11 UNL     1      44.179  -2.404  27.156  1.00  0.00     0.018 A 
HETATM   26  C12 UNL     1      43.732  -3.525  27.820  1.00  0.00     0.012 A 
HETATM   27  C13 UNL     1      43.478  -3.443  29.152  1.00  0.00    -0.011 A 
BRANCH  27  28
HETATM   28  C14 UNL     1      42.991  -4.610  29.943  1.00  0.00     0.014 C 
HETATM   29  C15 UNL     1      44.189  -5.454  30.300  1.00  0.00     0.015 C 
HETATM   30  C16 UNL     1      42.009  -5.371  29.077  1.00  0.00     0.015 C 
ENDBRANCH  27  28
ENDBRANCH   5  21
TORSDOF 7
ENDMDL
MODEL 4
REMARK VINA RESULT: -6.303762240      4.883      7.944
REMARK  7 active torsions:
REMARK  status: ('A' for Active; 'I' for Inactive)
REMARK    1  A    between atoms: C2_2  and  N1_4 
REMARK       I    between atoms: N1_4  and  C4_5 
REMARK       I    between atoms: C4_5  and  N2_7 
REMARK    2  A    between atoms: N2_7  and  C5_9 
REMARK    3  A    between atoms: C5_9  and  C6_13 
REMARK    4  A    between atoms: C6_13  and  C7_14 
REMARK    5  A    between atoms: C7_14  and  N4_15 
REMARK       I    between atoms: N4_15  and  C8_17 
REMARK       I    between atoms: C8_17  and  N5_19 
REMARK    6  A    between atoms: N5_19  and  C9_21 
REMARK    7  A    between atoms: C13_27  and  C14_28 
ROOT
HETATM    1  N4  UNL     1      44.468  -0.254  32.747  1.00  0.00    -0.342 N 
ATOM      2  H4  UNL     1      45.068   0.429  32.285  1.00  0.00     0.164 HD
HETATM    3  C8  UNL     1      44.354  -0.296  34.167  1.00  0.00     0.321 C 
HETATM    4  O2  UNL     1      43.622  -1.130  34.759  1.00  0.00    -0.247 OA
HETATM    5  N5  UNL     1      45.075   0.618  35.002  1.00  0.00    -0.294 N 
ATOM      6  H5  UNL     1      44.698   1.559  35.119  1.00  0.00     0.172 HD
ENDROOT
BRANCH   1   7
HETATM    7  C7  UNL     1      43.703  -1.212  31.987  1.00  0.00     0.132 C 
BRANCH   7   8
HETATM    8  C6  UNL     1      42.254  -0.850  31.879  1.00  0.00     0.096 C 
BRANCH   8   9
HETATM    9  C5  UNL     1      41.864  -0.848  30.452  1.00  0.00     0.081 C 
HETATM   10  N3  UNL     1      40.641  -0.433  30.132  1.00  0.00    -0.389 N 
ATOM     11  H32 UNL     1      40.372  -0.432  29.148  1.00  0.00     0.157 HD
ATOM     12  H31 UNL     1      40.059  -0.176  30.929  1.00  0.00     0.157 HD
BRANCH   9  13
HETATM   13  N2  UNL     1      42.660  -1.198  29.363  1.00  0.00    -0.286 N 
HETATM   14  C4  UNL     1      42.543  -2.358  28.546  1.00  0.00     0.399 C 
HETATM   15  N1  UNL     1      43.374  -2.590  27.531  1.00  0.00    -0.362 NA
HETATM   16  O1  UNL     1      41.582  -3.177  28.841  1.00  0.00    -0.230 OA
ATOM     17  H2  UNL     1      43.412  -0.551  29.126  1.00  0.00     0.173 HD
BRANCH  15  18
HETATM   18  C2  UNL     1      44.045  -2.724  26.558  1.00  0.00     0.060 C 
HETATM   19  C1  UNL     1      45.028  -1.651  26.091  1.00  0.00     0.079 C 
HETATM   20  C3  UNL     1      44.041  -3.946  25.644  1.00  0.00     0.079 C 
ENDBRANCH  15  18
ENDBRANCH   9  13
ENDBRANCH   8   9
ENDBRANCH   7   8
ENDBRANCH   1   7
BRANCH   5  21
HETATM   21  C9  UNL     1      46.169   0.322  35.613  1.00  0.00     0.115 A 
HETATM   22  N6  UNL     1      47.230  -0.180  34.994  1.00  0.00    -0.352 N 
HETATM   23  C10 UNL     1      48.346  -0.468  35.673  1.00  0.00     0.089 A 
ATOM     24  H6  UNL     1      47.194  -0.349  33.989  1.00  0.00     0.166 HD
HETATM   25  C11 UNL     1      48.392  -0.239  37.029  1.00  0.00     0.018 A 
HETATM   26  C12 UNL     1      47.304   0.281  37.694  1.00  0.00     0.012 A 
HETATM   27  C13 UNL     1      46.178   0.569  36.989  1.00  0.00    -0.011 A 
BRANCH  27  28
HETATM   28  C14 UNL     1      44.958   1.133  37.635  1.00  0.00     0.014 C 
HETATM   29  C15 UNL     1      45.353   2.419  38.317  1.00  0.00     0.015 C 
HETATM   30  C16 UNL     1      44.448   0.108  38.626  1.00  0.00     0.015 C 
ENDBRANCH  27  28
ENDBRANCH   5  21
TORSDOF 7
ENDMDL
MODEL 5
REMARK VINA RESULT: -6.208841286      1.330      2.480
REMARK  7 active torsions:
REMARK  status: ('A' for Active; 'I' for Inactive)
REMARK    1  A    between atoms: C2_2  and  N1_4 
REMARK       I    between atoms: N1_4  and  C4_5 
REMARK       I    between atoms: C4_5  and  N2_7 
REMARK    2  A    between atoms: N2_7  and  C5_9 
REMARK    3  A    between atoms: C5_9  and  C6_13 
REMARK    4  A    between atoms: C6_13  and  C7_14 
REMARK    5  A    between atoms: C7_14  and  N4_15 
REMARK       I    between atoms: N4_15  and  C8_17 
REMARK       I    between atoms: C8_17  and  N5_19 
REMARK    6  A    between atoms: N5_19  and  C9_21 
REMARK    7  A    between atoms: C13_27  and  C14_28 
ROOT
HETATM    1  N4  UNL     1      42.525  -3.622  27.739  1.00  0.00    -0.342 N 
ATOM      2  H4  UNL     1      41.764  -2.996  27.479  1.00  0.00     0.164 HD
HETATM    3  C8  UNL     1      42.313  -4.716  28.628  1.00  0.00     0.321 C 
HETATM    4  O2  UNL     1      43.237  -5.500  28.964  1.00  0.00    -0.247 OA
HETATM    5  N5  UNL     1      41.022  -4.981  29.190  1.00  0.00    -0.294 N 
ATOM      6  H5  UNL     1      40.339  -5.473  28.613  1.00  0.00     0.172 HD
ENDROOT
BRANCH   1   7
HETATM    7  C7  UNL     1      43.859  -3.433  27.220  1.00  0.00     0.132 C 
BRANCH   7   8
HETATM    8  C6  UNL     1      44.130  -2.019  26.808  1.00  0.00     0.096 C 
BRANCH   8   9
HETATM    9  C5  UNL     1      44.153  -1.164  28.014  1.00  0.00     0.081 C 
HETATM   10  N3  UNL     1      45.295  -0.561  28.338  1.00  0.00    -0.389 N 
ATOM     11  H32 UNL     1      45.310   0.029  29.170  1.00  0.00     0.157 HD
ATOM     12  H31 UNL     1      46.078  -0.777  27.723  1.00  0.00     0.157 HD
BRANCH   9  13
HETATM   13  N2  UNL     1      43.082  -0.868  28.855  1.00  0.00    -0.286 N 
HETATM   14  C4  UNL     1      42.819  -1.416  30.143  1.00  0.00     0.399 C 
HETATM   15  N1  UNL     1      41.750  -1.059  30.854  1.00  0.00    -0.362 NA
HETATM   16  O1  UNL     1      43.677  -2.281  30.588  1.00  0.00    -0.230 OA
ATOM     17  H2  UNL     1      42.412  -0.182  28.509  1.00  0.00     0.173 HD
BRANCH  15  18
HETATM   18  C2  UNL     1      40.861  -0.644  31.526  1.00  0.00     0.060 C 
HETATM   19  C1  UNL     1      40.979  -0.509  33.044  1.00  0.00     0.079 C 
HETATM   20  C3  UNL     1      39.500  -0.191  31.006  1.00  0.00     0.079 C 
ENDBRANCH  15  18
ENDBRANCH   9  13
ENDBRANCH   8   9
ENDBRANCH   7   8
ENDBRANCH   1   7
BRANCH   5  21
HETATM   21  C9  UNL     1      40.673  -4.635  30.381  1.00  0.00     0.115 A 
HETATM   22  N6  UNL     1      41.531  -4.547  31.389  1.00  0.00    -0.352 N 
HETATM   23  C10 UNL     1      41.120  -4.180  32.608  1.00  0.00     0.089 A 
ATOM     24  H6  UNL     1      42.516  -4.762  31.233  1.00  0.00     0.166 HD
HETATM   25  C11 UNL     1      39.791  -3.891  32.816  1.00  0.00     0.018 A 
HETATM   26  C12 UNL     1      38.881  -3.976  31.785  1.00  0.00     0.012 A 
HETATM   27  C13 UNL     1      39.315  -4.349  30.553  1.00  0.00    -0.011 A 
BRANCH  27  28
HETATM   28  C14 UNL     1      38.393  -4.466  29.387  1.00  0.00     0.014 C 
HETATM   29  C15 UNL     1      37.857  -3.088  29.087  1.00  0.00     0.015 C 
HETATM   30  C16 UNL     1      37.287  -5.425  29.771  1.00  0.00     0.015 C 
ENDBRANCH  27  28
ENDBRANCH   5  21
TORSDOF 7
ENDMDL
