MODEL 1
REMARK VINA RESULT: -6.794662679      0.000      0.000
REMARK  6 active torsions:
REMARK  status: ('A' for Active; 'I' for Inactive)
REMARK       I    between atoms: C1_4  and  N2_5 
REMARK       I    between atoms: C1_4  and  N4_18 
REMARK    1  A    between atoms: N2_5  and  C2_7 
REMARK    2  A    between atoms: C2_7  and  C3_8 
REMARK    3  A    between atoms: C3_8  and  C4_9 
REMARK    4  A    between atoms: C4_9  and  N3_10 
REMARK    5  A    between atoms: C8_14  and  O1_15 
REMARK    6  A    between atoms: N4_18  and  C10_20 
ROOT
HETATM    1  N1  UNL     1      42.000  -6.898  32.666  1.00  0.00    -0.235 N 
ATOM      2  H11 UNL     1      41.991  -7.275  33.614  1.00  0.00     0.174 HD
ATOM      3  H12 UNL     1      41.099  -6.626  32.273  1.00  0.00     0.174 HD
HETATM    4  C1  UNL     1      43.102  -6.789  32.048  1.00  0.00     0.667 C 
HETATM    5  N2  UNL     1      43.114  -6.257  30.708  1.00  0.00    -0.227 N 
ATOM      6  H2  UNL     1      42.348  -6.414  30.054  1.00  0.00     0.177 HD
HETATM    7  N4  UNL     1      44.341  -7.164  32.589  1.00  0.00    -0.221 N 
ATOM      8  H4  UNL     1      45.017  -6.443  32.843  1.00  0.00     0.178 HD
ENDROOT
BRANCH   5   9
HETATM    9  C2  UNL     1      44.279  -5.492  30.353  1.00  0.00     0.140 C 
BRANCH   9  10
HETATM   10  C3  UNL     1      43.868  -4.044  30.096  1.00  0.00     0.050 C 
BRANCH  10  11
HETATM   11  C4  UNL     1      42.725  -4.000  29.107  1.00  0.00     0.274 C 
BRANCH  11  12
HETATM   12  N3  UNL     1      43.063  -3.064  28.051  1.00  0.00     0.090 N 
HETATM   13  C5  UNL     1      43.687  -3.838  27.011  1.00  0.00     0.272 C 
HETATM   14  C6  UNL     1      44.393  -3.072  25.954  1.00  0.00     0.033 C 
HETATM   15  C7  UNL     1      45.148  -1.867  26.383  1.00  0.00     0.035 C 
HETATM   16  C8  UNL     1      44.563  -1.154  27.561  1.00  0.00     0.146 C 
HETATM   17  C9  UNL     1      43.937  -2.084  28.566  1.00  0.00     0.303 C 
BRANCH  16  18
HETATM   18  O1  UNL     1      45.602  -0.497  28.224  1.00  0.00    -0.394 OA
ATOM     19  H1  UNL     1      45.650   0.389  27.884  1.00  0.00     0.210 HD
ENDBRANCH  16  18
ENDBRANCH  11  12
ENDBRANCH  10  11
ENDBRANCH   9  10
ENDBRANCH   5   9
BRANCH   7  20
HETATM   20  C10 UNL     1      44.669  -8.539  32.789  1.00  0.00     0.107 C 
HETATM   21  C11 UNL     1      46.064  -8.684  33.336  1.00  0.00     0.010 C 
HETATM   22  C12 UNL     1      46.209 -10.138  33.737  1.00  0.00     0.011 C 
HETATM   23  C16 UNL     1      47.027  -8.322  32.237  1.00  0.00     0.011 C 
HETATM   24  C13 UNL     1      45.979 -11.029  32.554  1.00  0.00    -0.013 C 
HETATM   25  C14 UNL     1      47.012 -10.704  31.517  1.00  0.00     0.009 C 
HETATM   26  C19 UNL     1      44.588 -10.837  32.024  1.00  0.00     0.011 C 
HETATM   27  C15 UNL     1      46.839  -9.276  31.067  1.00  0.00    -0.013 C 
HETATM   28  C17 UNL     1      45.447  -9.166  30.471  1.00  0.00     0.011 C 
HETATM   29  C18 UNL     1      44.464  -9.404  31.562  1.00  0.00     0.010 C 
ENDBRANCH   7  20
TORSDOF 6
ENDMDL
MODEL 2
REMARK VINA RESULT: -6.748982829      0.767      1.287
REMARK  6 active torsions:
REMARK  status: ('A' for Active; 'I' for Inactive)
REMARK       I    between atoms: C1_4  and  N2_5 
REMARK       I    between atoms: C1_4  and  N4_18 
REMARK    1  A    between atoms: N2_5  and  C2_7 
REMARK    2  A    between atoms: C2_7  and  C3_8 
REMARK    3  A    between atoms: C3_8  and  C4_9 
REMARK    4  A    between atoms: C4_9  and  N3_10 
REMARK    5  A    between atoms: C8_14  and  O1_15 
REMARK    6  A    between atoms: N4_18  and  C10_20 
ROOT
HETATM    1  N1  UNL     1      41.826  -6.891  33.234  1.00  0.00    -0.235 N 
ATOM      2  H11 UNL     1      42.009  -7.671  33.864  1.00  0.00     0.174 HD
ATOM      3  H12 UNL     1      40.869  -6.539  33.205  1.00  0.00     0.174 HD
HETATM    4  C1  UNL     1      42.774  -6.412  32.542  1.00  0.00     0.667 C 
HETATM    5  N2  UNL     1      42.516  -5.308  31.651  1.00  0.00    -0.227 N 
ATOM      6  H2  UNL     1      41.625  -5.198  31.167  1.00  0.00     0.177 HD
HETATM    7  N4  UNL     1      44.091  -6.896  32.581  1.00  0.00    -0.221 N 
ATOM      8  H4  UNL     1      44.822  -6.330  33.012  1.00  0.00     0.178 HD
ENDROOT
BRANCH   5   9
HETATM    9  C2  UNL     1      43.597  -4.374  31.487  1.00  0.00     0.140 C 
BRANCH   9  10
HETATM   10  C3  UNL     1      43.917  -4.230  30.002  1.00  0.00     0.050 C 
BRANCH  10  11
HETATM   11  C4  UNL     1      42.660  -3.886  29.235  1.00  0.00     0.274 C 
BRANCH  11  12
HETATM   12  N3  UNL     1      43.015  -3.012  28.132  1.00  0.00     0.090 N 
HETATM   13  C5  UNL     1      43.641  -3.848  27.142  1.00  0.00     0.272 C 
HETATM   14  C6  UNL     1      44.362  -3.147  26.051  1.00  0.00     0.033 C 
HETATM   15  C7  UNL     1      45.126  -1.928  26.420  1.00  0.00     0.035 C 
HETATM   16  C8  UNL     1      44.538  -1.147  27.552  1.00  0.00     0.146 C 
HETATM   17  C9  UNL     1      43.895  -2.014  28.600  1.00  0.00     0.303 C 
BRANCH  16  18
HETATM   18  O1  UNL     1      45.578  -0.464  28.187  1.00  0.00    -0.394 OA
ATOM     19  H1  UNL     1      45.256   0.396  28.432  1.00  0.00     0.210 HD
ENDBRANCH  16  18
ENDBRANCH  11  12
ENDBRANCH  10  11
ENDBRANCH   9  10
ENDBRANCH   5   9
BRANCH   7  20
HETATM   20  C10 UNL     1      44.421  -8.169  32.026  1.00  0.00     0.107 C 
HETATM   21  C11 UNL     1      44.506  -9.219  33.103  1.00  0.00     0.010 C 
HETATM   22  C12 UNL     1      44.613 -10.548  32.385  1.00  0.00     0.011 C 
HETATM   23  C16 UNL     1      45.739  -8.938  33.920  1.00  0.00     0.011 C 
HETATM   24  C13 UNL     1      45.819 -10.565  31.496  1.00  0.00    -0.013 C 
HETATM   25  C14 UNL     1      47.034 -10.374  32.353  1.00  0.00     0.009 C 
HETATM   26  C19 UNL     1      45.708  -9.490  30.453  1.00  0.00     0.011 C 
HETATM   27  C15 UNL     1      46.967  -9.027  33.026  1.00  0.00    -0.013 C 
HETATM   28  C17 UNL     1      46.937  -7.984  31.924  1.00  0.00     0.011 C 
HETATM   29  C18 UNL     1      45.669  -8.159  31.166  1.00  0.00     0.010 C 
ENDBRANCH   7  20
TORSDOF 6
ENDMDL
MODEL 3
REMARK VINA RESULT: -6.702373802      7.104      9.566
REMARK  6 active torsions:
REMARK  status: ('A' for Active; 'I' for Inactive)
REMARK       I    between atoms: C1_4  and  N2_5 
REMARK       I    between atoms: C1_4  and  N4_18 
REMARK    1  A    between atoms: N2_5  and  C2_7 
REMARK    2  A    between atoms: C2_7  and  C3_8 
REMARK    3  A    between atoms: C3_8  and  C4_9 
REMARK    4  A    between atoms: C4_9  and  N3_10 
REMARK    5  A    between atoms: C8_14  and  O1_15 
REMARK    6  A    between atoms: N4_18  and  C10_20 
ROOT
HETATM    1  N1  UNL     1      46.316   1.340  33.218  1.00  0.00    -0.235 N 
ATOM      2  H11 UNL     1      47.131   1.584  33.780  1.00  0.00     0.174 HD
ATOM      3  H12 UNL     1      46.402   1.458  32.209  1.00  0.00     0.174 HD
HETATM    4  C1  UNL     1      45.269   0.910  33.791  1.00  0.00     0.667 C 
HETATM    5  N2  UNL     1      44.116   0.565  32.997  1.00  0.00    -0.227 N 
ATOM      6  H2  UNL     1      43.879   1.061  32.138  1.00  0.00     0.177 HD
HETATM    7  N4  UNL     1      45.150   0.747  35.179  1.00  0.00    -0.221 N 
ATOM      8  H4  UNL     1      45.115  -0.193  35.573  1.00  0.00     0.178 HD
ENDROOT
BRANCH   5   9
HETATM    9  C2  UNL     1      43.321  -0.525  33.495  1.00  0.00     0.140 C 
BRANCH   9  10
HETATM   10  C3  UNL     1      43.569  -1.762  32.634  1.00  0.00     0.050 C 
BRANCH  10  11
HETATM   11  C4  UNL     1      42.257  -2.286  32.094  1.00  0.00     0.274 C 
BRANCH  11  12
HETATM   12  N3  UNL     1      42.435  -2.624  30.695  1.00  0.00     0.090 N 
HETATM   13  C5  UNL     1      43.462  -3.630  30.651  1.00  0.00     0.272 C 
HETATM   14  C6  UNL     1      44.038  -3.925  29.316  1.00  0.00     0.033 C 
HETATM   15  C7  UNL     1      44.244  -2.775  28.399  1.00  0.00     0.035 C 
HETATM   16  C8  UNL     1      43.248  -1.669  28.559  1.00  0.00     0.146 C 
HETATM   17  C9  UNL     1      42.812  -1.465  29.984  1.00  0.00     0.303 C 
BRANCH  16  18
HETATM   18  O1  UNL     1      43.862  -0.479  28.159  1.00  0.00    -0.394 OA
ATOM     19  H1  UNL     1      44.643  -0.363  28.687  1.00  0.00     0.210 HD
ENDBRANCH  16  18
ENDBRANCH  11  12
ENDBRANCH  10  11
ENDBRANCH   9  10
ENDBRANCH   5   9
BRANCH   7  20
HETATM   20  C10 UNL     1      45.077   1.878  36.048  1.00  0.00     0.107 C 
HETATM   21  C11 UNL     1      45.138   1.452  37.491  1.00  0.00     0.010 C 
HETATM   22  C12 UNL     1      45.302   2.723  38.297  1.00  0.00     0.011 C 
HETATM   23  C16 UNL     1      43.842   0.759  37.819  1.00  0.00     0.011 C 
HETATM   24  C13 UNL     1      44.157   3.654  38.040  1.00  0.00    -0.013 C 
HETATM   25  C14 UNL     1      42.893   2.967  38.464  1.00  0.00     0.009 C 
HETATM   26  C19 UNL     1      44.115   4.036  36.589  1.00  0.00     0.011 C 
HETATM   27  C15 UNL     1      42.688   1.731  37.626  1.00  0.00    -0.013 C 
HETATM   28  C17 UNL     1      42.575   2.189  36.183  1.00  0.00     0.011 C 
HETATM   29  C18 UNL     1      43.884   2.776  35.787  1.00  0.00     0.010 C 
ENDBRANCH   7  20
TORSDOF 6
ENDMDL
MODEL 4
REMARK VINA RESULT: -6.658144910      4.784      7.416
REMARK  6 active torsions:
REMARK  status: ('A' for Active; 'I' for Inactive)
REMARK       I    between atoms: C1_4  and  N2_5 
REMARK       I    between atoms: C1_4  and  N4_18 
REMARK    1  A    between atoms: N2_5  and  C2_7 
REMARK    2  A    between atoms: C2_7  and  C3_8 
REMARK    3  A    between atoms: C3_8  and  C4_9 
REMARK    4  A    between atoms: C4_9  and  N3_10 
REMARK    5  A    between atoms: C8_14  and  O1_15 
REMARK    6  A    between atoms: N4_18  and  C10_20 
ROOT
HETATM    1  N1  UNL     1      41.857  -0.209  30.374  1.00  0.00    -0.235 N 
ATOM      2  H11 UNL     1      42.157   0.764  30.318  1.00  0.00     0.174 HD
ATOM      3  H12 UNL     1      41.118  -0.499  29.733  1.00  0.00     0.174 HD
HETATM    4  C1  UNL     1      42.408  -0.985  31.212  1.00  0.00     0.667 C 
HETATM    5  N2  UNL     1      41.984  -2.361  31.292  1.00  0.00    -0.227 N 
ATOM      6  H2  UNL     1      41.019  -2.643  31.119  1.00  0.00     0.177 HD
HETATM    7  N4  UNL     1      43.424  -0.587  32.094  1.00  0.00    -0.221 N 
ATOM      8  H4  UNL     1      44.375  -0.925  31.950  1.00  0.00     0.178 HD
ENDROOT
BRANCH   5   9
HETATM    9  C2  UNL     1      43.010  -3.310  31.632  1.00  0.00     0.140 C 
BRANCH   9  10
HETATM   10  C3  UNL     1      43.909  -3.533  30.418  1.00  0.00     0.050 C 
BRANCH  10  11
HETATM   11  C4  UNL     1      43.076  -3.968  29.233  1.00  0.00     0.274 C 
BRANCH  11  12
HETATM   12  N3  UNL     1      43.291  -3.030  28.148  1.00  0.00     0.090 N 
HETATM   13  C5  UNL     1      43.800  -3.800  27.044  1.00  0.00     0.272 C 
HETATM   14  C6  UNL     1      44.380  -3.030  25.917  1.00  0.00     0.033 C 
HETATM   15  C7  UNL     1      45.173  -1.822  26.261  1.00  0.00     0.035 C 
HETATM   16  C8  UNL     1      44.719  -1.113  27.498  1.00  0.00     0.146 C 
HETATM   17  C9  UNL     1      44.212  -2.046  28.564  1.00  0.00     0.303 C 
BRANCH  16  18
HETATM   18  O1  UNL     1      45.822  -0.452  28.042  1.00  0.00    -0.394 OA
ATOM     19  H1  UNL     1      46.003   0.308  27.501  1.00  0.00     0.210 HD
ENDBRANCH  16  18
ENDBRANCH  11  12
ENDBRANCH  10  11
ENDBRANCH   9  10
ENDBRANCH   5   9
BRANCH   7  20
HETATM   20  C10 UNL     1      43.145   0.287  33.189  1.00  0.00     0.107 C 
HETATM   21  C11 UNL     1      44.411   0.911  33.714  1.00  0.00     0.010 C 
HETATM   22  C12 UNL     1      43.976   1.986  34.688  1.00  0.00     0.011 C 
HETATM   23  C16 UNL     1      45.201  -0.168  34.407  1.00  0.00     0.011 C 
HETATM   24  C13 UNL     1      43.152   1.389  35.789  1.00  0.00    -0.013 C 
HETATM   25  C14 UNL     1      43.998   0.386  36.514  1.00  0.00     0.009 C 
HETATM   26  C19 UNL     1      41.914   0.757  35.223  1.00  0.00     0.011 C 
HETATM   27  C15 UNL     1      44.388  -0.720  35.568  1.00  0.00    -0.013 C 
HETATM   28  C17 UNL     1      43.100  -1.370  35.094  1.00  0.00     0.011 C 
HETATM   29  C18 UNL     1      42.346  -0.361  34.302  1.00  0.00     0.010 C 
ENDBRANCH   7  20
TORSDOF 6
ENDMDL
MODEL 5
REMARK VINA RESULT: -6.646007436      4.435      7.163
REMARK  6 active torsions:
REMARK  status: ('A' for Active; 'I' for Inactive)
REMARK       I    between atoms: C1_4  and  N2_5 
REMARK       I    between atoms: C1_4  and  N4_18 
REMARK    1  A    between atoms: N2_5  and  C2_7 
REMARK    2  A    between atoms: C2_7  and  C3_8 
REMARK    3  A    between atoms: C3_8  and  C4_9 
REMARK    4  A    between atoms: C4_9  and  N3_10 
REMARK    5  A    between atoms: C8_14  and  O1_15 
REMARK    6  A    between atoms: N4_18  and  C10_20 
ROOT
HETATM    1  N1  UNL     1      43.115  -1.509  34.010  1.00  0.00    -0.235 N 
ATOM      2  H11 UNL     1      42.495  -1.257  34.779  1.00  0.00     0.174 HD
ATOM      3  H12 UNL     1      44.062  -1.130  34.041  1.00  0.00     0.174 HD
HETATM    4  C1  UNL     1      42.687  -2.261  33.083  1.00  0.00     0.667 C 
HETATM    5  N2  UNL     1      43.563  -2.616  31.994  1.00  0.00    -0.227 N 
ATOM      6  H2  UNL     1      44.276  -1.979  31.641  1.00  0.00     0.177 HD
HETATM    7  N4  UNL     1      41.385  -2.781  33.039  1.00  0.00    -0.221 N 
ATOM      8  H4  UNL     1      41.236  -3.778  33.198  1.00  0.00     0.178 HD
ENDROOT
BRANCH   5   9
HETATM    9  C2  UNL     1      43.365  -3.928  31.439  1.00  0.00     0.140 C 
BRANCH   9  10
HETATM   10  C3  UNL     1      43.955  -3.971  30.032  1.00  0.00     0.050 C 
BRANCH  10  11
HETATM   11  C4  UNL     1      42.843  -3.995  29.007  1.00  0.00     0.274 C 
BRANCH  11  12
HETATM   12  N3  UNL     1      43.148  -3.028  27.970  1.00  0.00     0.090 N 
HETATM   13  C5  UNL     1      43.768  -3.765  26.902  1.00  0.00     0.272 C 
HETATM   14  C6  UNL     1      44.444  -2.961  25.853  1.00  0.00     0.033 C 
HETATM   15  C7  UNL     1      45.187  -1.755  26.300  1.00  0.00     0.035 C 
HETATM   16  C8  UNL     1      44.609  -1.082  27.505  1.00  0.00     0.146 C 
HETATM   17  C9  UNL     1      44.014  -2.046  28.496  1.00  0.00     0.303 C 
BRANCH  16  18
HETATM   18  O1  UNL     1      45.648  -0.424  28.168  1.00  0.00    -0.394 OA
ATOM     19  H1  UNL     1      46.373  -1.033  28.249  1.00  0.00     0.210 HD
ENDBRANCH  16  18
ENDBRANCH  11  12
ENDBRANCH  10  11
ENDBRANCH   9  10
ENDBRANCH   5   9
BRANCH   7  20
HETATM   20  C10 UNL     1      40.264  -1.935  32.776  1.00  0.00     0.107 C 
HETATM   21  C11 UNL     1      39.006  -2.746  32.612  1.00  0.00     0.010 C 
HETATM   22  C12 UNL     1      37.865  -1.750  32.588  1.00  0.00     0.011 C 
HETATM   23  C16 UNL     1      39.109  -3.492  31.308  1.00  0.00     0.011 C 
HETATM   24  C13 UNL     1      38.049  -0.775  31.465  1.00  0.00    -0.013 C 
HETATM   25  C14 UNL     1      38.056  -1.542  30.176  1.00  0.00     0.009 C 
HETATM   26  C19 UNL     1      39.325  -0.005  31.652  1.00  0.00     0.011 C 
HETATM   27  C15 UNL     1      39.223  -2.495  30.165  1.00  0.00    -0.013 C 
HETATM   28  C17 UNL     1      40.482  -1.653  30.277  1.00  0.00     0.011 C 
HETATM   29  C18 UNL     1      40.469  -0.990  31.609  1.00  0.00     0.010 C 
ENDBRANCH   7  20
TORSDOF 6
ENDMDL
