MODEL 1
REMARK VINA RESULT: -6.456633068      0.000      0.000
REMARK  5 active torsions:
REMARK  status: ('A' for Active; 'I' for Inactive)
REMARK    1  A    between atoms: N1_2  and  N2_3 
REMARK       I    between atoms: N2_3  and  C2_5 
REMARK    2  A    between atoms: C2_5  and  C3_7 
REMARK       I    between atoms: N3_13  and  C9_14 
REMARK       I    between atoms: C9_14  and  N4_16 
REMARK    3  A    between atoms: N4_16  and  C10_18 
REMARK    4  A    between atoms: C10_18  and  C11_19 
REMARK    5  A    between atoms: C11_19  and  C12_20 
ROOT
HETATM    1  C3  UNL     1      41.817  -2.527  30.200  1.00  0.00     0.115 C 
HETATM    2  C4  UNL     1      40.942  -1.317  29.945  1.00  0.00     0.049 C 
HETATM    3  C5  UNL     1      40.896  -3.653  30.552  1.00  0.00     0.041 C 
HETATM    4  C6  UNL     1      41.534  -4.815  31.248  1.00  0.00     0.004 C 
HETATM    5  C7  UNL     1      42.584  -4.389  32.236  1.00  0.00     0.020 C 
HETATM    6  C8  UNL     1      43.604  -3.453  31.584  1.00  0.00     0.129 C 
HETATM    7  N3  UNL     1      42.841  -2.251  31.189  1.00  0.00    -0.316 N 
HETATM    8  C9  UNL     1      43.135  -1.030  31.790  1.00  0.00     0.319 C 
HETATM    9  O2  UNL     1      42.448  -0.010  31.589  1.00  0.00    -0.247 OA
HETATM   10  N4  UNL     1      44.245  -0.890  32.663  1.00  0.00    -0.343 N 
ATOM     11  H4  UNL     1      44.851  -1.688  32.857  1.00  0.00     0.164 HD
ENDROOT
BRANCH   1  12
HETATM   12  C2  UNL     1      42.538  -2.764  28.898  1.00  0.00     0.261 C 
HETATM   13  N2  UNL     1      43.600  -1.970  28.443  1.00  0.00    -0.272 N 
ATOM     14  H2  UNL     1      43.938  -1.192  29.008  1.00  0.00     0.185 HD
HETATM   15  O1  UNL     1      42.159  -3.732  28.171  1.00  0.00    -0.269 OA
BRANCH  13  16
HETATM   16  N1  UNL     1      44.199  -2.256  27.199  1.00  0.00    -0.143 NA
HETATM   17  C1  UNL     1      44.371  -0.969  26.514  1.00  0.00     0.159 C 
ENDBRANCH  13  16
ENDBRANCH   1  12
BRANCH  10  18
HETATM   18  C10 UNL     1      44.515   0.421  33.290  1.00  0.00     0.125 C 
BRANCH  18  19
HETATM   19  C11 UNL     1      45.937   0.398  33.782  1.00  0.00     0.024 C 
BRANCH  19  20
HETATM   20  C12 UNL     1      46.067  -0.150  35.203  1.00  0.00    -0.013 C 
HETATM   21  C13 UNL     1      47.487  -0.517  35.399  1.00  0.00     0.005 C 
HETATM   22  C14 UNL     1      47.733  -0.840  36.849  1.00  0.00     0.000 C 
HETATM   23  C15 UNL     1      47.489   0.418  37.617  1.00  0.00     0.000 C 
HETATM   24  C16 UNL     1      46.136   1.026  37.439  1.00  0.00     0.000 C 
HETATM   25  C17 UNL     1      45.425   0.738  36.194  1.00  0.00     0.005 C 
ENDBRANCH  19  20
ENDBRANCH  18  19
ENDBRANCH  10  18
TORSDOF 5
ENDMDL
MODEL 2
REMARK VINA RESULT: -6.339848084      0.782      1.485
REMARK  5 active torsions:
REMARK  status: ('A' for Active; 'I' for Inactive)
REMARK    1  A    between atoms: N1_2  and  N2_3 
REMARK       I    between atoms: N2_3  and  C2_5 
REMARK    2  A    between atoms: C2_5  and  C3_7 
REMARK       I    between atoms: N3_13  and  C9_14 
REMARK       I    between atoms: C9_14  and  N4_16 
REMARK    3  A    between atoms: N4_16  and  C10_18 
REMARK    4  A    between atoms: C10_18  and  C11_19 
REMARK    5  A    between atoms: C11_19  and  C12_20 
ROOT
HETATM    1  C3  UNL     1      41.805  -2.540  30.193  1.00  0.00     0.115 C 
HETATM    2  C4  UNL     1      41.077  -1.234  29.949  1.00  0.00     0.049 C 
HETATM    3  C5  UNL     1      40.755  -3.565  30.490  1.00  0.00     0.041 C 
HETATM    4  C6  UNL     1      41.240  -4.807  31.170  1.00  0.00     0.004 C 
HETATM    5  C7  UNL     1      42.303  -4.526  32.195  1.00  0.00     0.020 C 
HETATM    6  C8  UNL     1      43.438  -3.694  31.596  1.00  0.00     0.129 C 
HETATM    7  N3  UNL     1      42.825  -2.404  31.215  1.00  0.00    -0.316 N 
HETATM    8  C9  UNL     1      43.236  -1.239  31.857  1.00  0.00     0.319 C 
HETATM    9  O2  UNL     1      42.672  -0.144  31.667  1.00  0.00    -0.247 OA
HETATM   10  N4  UNL     1      44.329  -1.247  32.762  1.00  0.00    -0.343 N 
ATOM     11  H4  UNL     1      44.837  -2.111  32.949  1.00  0.00     0.164 HD
ENDROOT
BRANCH   1  12
HETATM   12  C2  UNL     1      42.532  -2.824  28.904  1.00  0.00     0.261 C 
HETATM   13  N2  UNL     1      43.681  -2.135  28.492  1.00  0.00    -0.272 N 
ATOM     14  H2  UNL     1      44.082  -1.407  29.083  1.00  0.00     0.185 HD
HETATM   15  O1  UNL     1      42.075  -3.733  28.146  1.00  0.00    -0.269 OA
BRANCH  13  16
HETATM   16  N1  UNL     1      44.280  -2.455  27.257  1.00  0.00    -0.143 NA
HETATM   17  C1  UNL     1      44.412  -1.194  26.518  1.00  0.00     0.159 C 
ENDBRANCH  13  16
ENDBRANCH   1  12
BRANCH  10  18
HETATM   18  C10 UNL     1      44.726   0.011  33.431  1.00  0.00     0.125 C 
BRANCH  18  19
HETATM   19  C11 UNL     1      44.980  -0.313  34.878  1.00  0.00     0.024 C 
BRANCH  19  20
HETATM   20  C12 UNL     1      45.633   0.838  35.641  1.00  0.00    -0.013 C 
HETATM   21  C13 UNL     1      44.597   1.879  35.827  1.00  0.00     0.005 C 
HETATM   22  C14 UNL     1      45.102   2.935  36.775  1.00  0.00     0.000 C 
HETATM   23  C15 UNL     1      45.303   2.267  38.095  1.00  0.00     0.000 C 
HETATM   24  C16 UNL     1      46.224   1.090  38.086  1.00  0.00     0.000 C 
HETATM   25  C17 UNL     1      46.373   0.361  36.827  1.00  0.00     0.005 C 
ENDBRANCH  19  20
ENDBRANCH  18  19
ENDBRANCH  10  18
TORSDOF 5
ENDMDL
MODEL 3
REMARK VINA RESULT: -6.331759283      1.052      1.649
REMARK  5 active torsions:
REMARK  status: ('A' for Active; 'I' for Inactive)
REMARK    1  A    between atoms: N1_2  and  N2_3 
REMARK       I    between atoms: N2_3  and  C2_5 
REMARK    2  A    between atoms: C2_5  and  C3_7 
REMARK       I    between atoms: N3_13  and  C9_14 
REMARK       I    between atoms: C9_14  and  N4_16 
REMARK    3  A    between atoms: N4_16  and  C10_18 
REMARK    4  A    between atoms: C10_18  and  C11_19 
REMARK    5  A    between atoms: C11_19  and  C12_20 
ROOT
HETATM    1  C3  UNL     1      41.802  -2.551  30.173  1.00  0.00     0.115 C 
HETATM    2  C4  UNL     1      41.032  -1.272  29.918  1.00  0.00     0.049 C 
HETATM    3  C5  UNL     1      40.789  -3.605  30.491  1.00  0.00     0.041 C 
HETATM    4  C6  UNL     1      41.318  -4.822  31.183  1.00  0.00     0.004 C 
HETATM    5  C7  UNL     1      42.379  -4.493  32.196  1.00  0.00     0.020 C 
HETATM    6  C8  UNL     1      43.483  -3.634  31.577  1.00  0.00     0.129 C 
HETATM    7  N3  UNL     1      42.826  -2.369  31.185  1.00  0.00    -0.316 N 
HETATM    8  C9  UNL     1      43.204  -1.183  31.809  1.00  0.00     0.319 C 
HETATM    9  O2  UNL     1      42.604  -0.109  31.610  1.00  0.00    -0.247 OA
HETATM   10  N4  UNL     1      44.304  -1.144  32.705  1.00  0.00    -0.343 N 
ATOM     11  H4  UNL     1      44.840  -1.990  32.899  1.00  0.00     0.164 HD
ENDROOT
BRANCH   1  12
HETATM   12  C2  UNL     1      42.528  -2.828  28.882  1.00  0.00     0.261 C 
HETATM   13  N2  UNL     1      43.643  -2.098  28.445  1.00  0.00    -0.272 N 
ATOM     14  H2  UNL     1      44.017  -1.341  29.017  1.00  0.00     0.185 HD
HETATM   15  O1  UNL     1      42.104  -3.771  28.146  1.00  0.00    -0.269 OA
BRANCH  13  16
HETATM   16  N1  UNL     1      44.243  -2.416  27.209  1.00  0.00    -0.143 NA
HETATM   17  C1  UNL     1      44.437  -1.146  26.501  1.00  0.00     0.159 C 
ENDBRANCH  13  16
ENDBRANCH   1  12
BRANCH  10  18
HETATM   18  C10 UNL     1      44.664   0.134  33.355  1.00  0.00     0.125 C 
BRANCH  18  19
HETATM   19  C11 UNL     1      45.244  -0.198  34.703  1.00  0.00     0.024 C 
BRANCH  19  20
HETATM   20  C12 UNL     1      44.653   0.648  35.830  1.00  0.00    -0.013 C 
HETATM   21  C13 UNL     1      45.789   1.189  36.609  1.00  0.00     0.005 C 
HETATM   22  C14 UNL     1      45.289   2.220  37.587  1.00  0.00     0.000 C 
HETATM   23  C15 UNL     1      44.728   3.344  36.778  1.00  0.00     0.000 C 
HETATM   24  C16 UNL     1      43.647   2.966  35.819  1.00  0.00     0.000 C 
HETATM   25  C17 UNL     1      43.628   1.588  35.332  1.00  0.00     0.005 C 
ENDBRANCH  19  20
ENDBRANCH  18  19
ENDBRANCH  10  18
TORSDOF 5
ENDMDL
MODEL 4
REMARK VINA RESULT: -6.229018387      1.563      2.215
REMARK  5 active torsions:
REMARK  status: ('A' for Active; 'I' for Inactive)
REMARK    1  A    between atoms: N1_2  and  N2_3 
REMARK       I    between atoms: N2_3  and  C2_5 
REMARK    2  A    between atoms: C2_5  and  C3_7 
REMARK       I    between atoms: N3_13  and  C9_14 
REMARK       I    between atoms: C9_14  and  N4_16 
REMARK    3  A    between atoms: N4_16  and  C10_18 
REMARK    4  A    between atoms: C10_18  and  C11_19 
REMARK    5  A    between atoms: C11_19  and  C12_20 
ROOT
HETATM    1  C3  UNL     1      41.946  -2.216  30.131  1.00  0.00     0.115 C 
HETATM    2  C4  UNL     1      40.915  -1.115  30.000  1.00  0.00     0.049 C 
HETATM    3  C5  UNL     1      41.209  -3.511  29.983  1.00  0.00     0.041 C 
HETATM    4  C6  UNL     1      41.926  -4.723  30.491  1.00  0.00     0.004 C 
HETATM    5  C7  UNL     1      42.689  -4.453  31.757  1.00  0.00     0.020 C 
HETATM    6  C8  UNL     1      43.610  -3.241  31.596  1.00  0.00     0.129 C 
HETATM    7  N3  UNL     1      42.712  -2.092  31.356  1.00  0.00    -0.316 N 
HETATM    8  C9  UNL     1      42.661  -1.061  32.290  1.00  0.00     0.319 C 
HETATM    9  O2  UNL     1      41.838  -0.129  32.204  1.00  0.00    -0.247 OA
HETATM   10  N4  UNL     1      43.556  -1.023  33.391  1.00  0.00    -0.343 N 
ATOM     11  H4  UNL     1      44.260  -1.752  33.508  1.00  0.00     0.164 HD
ENDROOT
BRANCH   1  12
HETATM   12  C2  UNL     1      42.913  -1.977  29.000  1.00  0.00     0.261 C 
HETATM   13  N2  UNL     1      43.141  -2.895  27.966  1.00  0.00    -0.272 N 
ATOM     14  H2  UNL     1      42.630  -3.776  27.940  1.00  0.00     0.185 HD
HETATM   15  O1  UNL     1      43.560  -0.885  28.986  1.00  0.00    -0.269 OA
BRANCH  13  16
HETATM   16  N1  UNL     1      44.084  -2.592  26.962  1.00  0.00    -0.143 NA
HETATM   17  C1  UNL     1      44.202  -3.792  26.125  1.00  0.00     0.159 C 
ENDBRANCH  13  16
ENDBRANCH   1  12
BRANCH  10  18
HETATM   18  C10 UNL     1      43.460   0.084  34.366  1.00  0.00     0.125 C 
BRANCH  18  19
HETATM   19  C11 UNL     1      44.766   0.138  35.111  1.00  0.00     0.024 C 
BRANCH  19  20
HETATM   20  C12 UNL     1      45.091   1.533  35.643  1.00  0.00    -0.013 C 
HETATM   21  C13 UNL     1      43.848   2.331  35.561  1.00  0.00     0.005 C 
HETATM   22  C14 UNL     1      44.034   3.638  36.286  1.00  0.00     0.000 C 
HETATM   23  C15 UNL     1      44.253   3.303  37.726  1.00  0.00     0.000 C 
HETATM   24  C16 UNL     1      45.397   2.384  38.004  1.00  0.00     0.000 C 
HETATM   25  C17 UNL     1      45.807   1.474  36.934  1.00  0.00     0.005 C 
ENDBRANCH  19  20
ENDBRANCH  18  19
ENDBRANCH  10  18
TORSDOF 5
ENDMDL
MODEL 5
REMARK VINA RESULT: -6.189410444      6.851      8.801
REMARK  5 active torsions:
REMARK  status: ('A' for Active; 'I' for Inactive)
REMARK    1  A    between atoms: N1_2  and  N2_3 
REMARK       I    between atoms: N2_3  and  C2_5 
REMARK    2  A    between atoms: C2_5  and  C3_7 
REMARK       I    between atoms: N3_13  and  C9_14 
REMARK       I    between atoms: C9_14  and  N4_16 
REMARK    3  A    between atoms: N4_16  and  C10_18 
REMARK    4  A    between atoms: C10_18  and  C11_19 
REMARK    5  A    between atoms: C11_19  and  C12_20 
ROOT
HETATM    1  C3  UNL     1      48.924  -1.703  38.079  1.00  0.00     0.115 C 
HETATM    2  C4  UNL     1      48.630  -1.421  39.537  1.00  0.00     0.049 C 
HETATM    3  C5  UNL     1      50.414  -1.718  37.939  1.00  0.00     0.041 C 
HETATM    4  C6  UNL     1      50.932  -1.555  36.544  1.00  0.00     0.004 C 
HETATM    5  C7  UNL     1      50.129  -0.570  35.742  1.00  0.00     0.020 C 
HETATM    6  C8  UNL     1      48.638  -0.912  35.786  1.00  0.00     0.129 C 
HETATM    7  N3  UNL     1      48.242  -0.770  37.202  1.00  0.00    -0.316 N 
HETATM    8  C9  UNL     1      47.322   0.213  37.557  1.00  0.00     0.319 C 
HETATM    9  O2  UNL     1      47.043   0.461  38.746  1.00  0.00    -0.247 OA
HETATM   10  N4  UNL     1      46.652   0.981  36.570  1.00  0.00    -0.343 N 
ATOM     11  H4  UNL     1      46.831   0.816  35.580  1.00  0.00     0.164 HD
ENDROOT
BRANCH   1  12
HETATM   12  C2  UNL     1      48.312  -3.055  37.816  1.00  0.00     0.261 C 
HETATM   13  N2  UNL     1      49.062  -4.222  37.615  1.00  0.00    -0.272 N 
ATOM     14  H2  UNL     1      50.081  -4.191  37.658  1.00  0.00     0.185 HD
HETATM   15  O1  UNL     1      47.047  -3.142  37.769  1.00  0.00    -0.269 OA
BRANCH  13  16
HETATM   16  N1  UNL     1      48.401  -5.439  37.353  1.00  0.00    -0.143 NA
HETATM   17  C1  UNL     1      49.143  -6.481  38.072  1.00  0.00     0.159 C 
ENDBRANCH  13  16
ENDBRANCH   1  12
BRANCH  10  18
HETATM   18  C10 UNL     1      45.691   2.023  36.991  1.00  0.00     0.125 C 
BRANCH  18  19
HETATM   19  C11 UNL     1      44.390   1.739  36.292  1.00  0.00     0.024 C 
BRANCH  19  20
HETATM   20  C12 UNL     1      43.351   2.843  36.493  1.00  0.00    -0.013 C 
HETATM   21  C13 UNL     1      42.382   2.350  37.496  1.00  0.00     0.005 C 
HETATM   22  C14 UNL     1      41.471   3.473  37.917  1.00  0.00     0.000 C 
HETATM   23  C15 UNL     1      42.329   4.493  38.591  1.00  0.00     0.000 C 
HETATM   24  C16 UNL     1      43.463   5.019  37.773  1.00  0.00     0.000 C 
HETATM   25  C17 UNL     1      43.985   4.159  36.712  1.00  0.00     0.005 C 
ENDBRANCH  19  20
ENDBRANCH  18  19
ENDBRANCH  10  18
TORSDOF 5
ENDMDL
