MODEL 1
REMARK VINA RESULT: -5.887341681      0.000      0.000
REMARK  7 active torsions:
REMARK  status: ('A' for Active; 'I' for Inactive)
REMARK    1  A    between atoms: C2_2  and  C3_3 
REMARK    2  A    between atoms: C3_3  and  C4_4 
REMARK    3  A    between atoms: C4_4  and  N1_5 
REMARK    4  A    between atoms: N1_5  and  C5_7 
REMARK    5  A    between atoms: C5_7  and  N2_9 
REMARK    6  A    between atoms: N2_9  and  C6_11 
REMARK    7  A    between atoms: C6_11  and  C7_12 
ROOT
HETATM    1  C7  UNL     1      43.733  -0.850  34.022  1.00  0.00     0.079 C 
HETATM    2  N3  UNL     1      44.341   0.241  34.466  1.00  0.00    -0.380 N 
HETATM    3  C8  UNL     1      43.810   1.514  34.749  1.00  0.00     0.090 C 
HETATM    4  C9  UNL     1      42.523   1.555  35.431  1.00  0.00     0.026 C 
HETATM    5  C10 UNL     1      42.493   2.211  36.793  1.00  0.00     0.002 C 
HETATM    6  C11 UNL     1      42.782   1.151  37.825  1.00  0.00     0.001 C 
HETATM    7  C12 UNL     1      44.138   0.548  37.564  1.00  0.00     0.010 C 
HETATM    8  C13 UNL     1      45.110   1.474  36.948  1.00  0.00     0.032 C 
HETATM    9  C14 UNL     1      46.507   1.068  37.396  1.00  0.00     0.060 C 
HETATM   10  N4  UNL     1      47.310   0.492  36.392  1.00  0.00    -0.400 N 
ATOM     11  H4  UNL     1      48.325   0.588  36.406  1.00  0.00     0.158 HD
HETATM   12  C15 UNL     1      46.646  -0.236  35.349  1.00  0.00     0.144 C 
HETATM   13  C16 UNL     1      45.664   0.611  34.640  1.00  0.00     0.108 C 
HETATM   14  C17 UNL     1      45.071   1.738  35.518  1.00  0.00     0.042 C 
ENDROOT
BRANCH   1  15
HETATM   15  C6  UNL     1      43.241  -0.748  32.588  1.00  0.00     0.166 C 
BRANCH  15  16
HETATM   16  N2  UNL     1      44.283  -1.198  31.702  1.00  0.00    -0.363 N 
ATOM     17  H2  UNL     1      45.252  -0.930  31.869  1.00  0.00     0.162 HD
BRANCH  16  18
HETATM   18  C5  UNL     1      43.946  -2.016  30.594  1.00  0.00     0.167 C 
HETATM   19  S1  UNL     1      43.000  -3.325  30.837  1.00  0.00    -0.041 SA
BRANCH  18  20
HETATM   20  N1  UNL     1      44.430  -1.637  29.318  1.00  0.00    -0.367 N 
ATOM     21  H1  UNL     1      45.291  -1.094  29.254  1.00  0.00     0.161 HD
BRANCH  20  22
HETATM   22  C4  UNL     1      43.743  -1.998  28.115  1.00  0.00     0.122 C 
BRANCH  22  23
HETATM   23  C3  UNL     1      44.321  -1.263  26.950  1.00  0.00     0.019 C 
BRANCH  23  24
HETATM   24  C2  UNL     1      44.696  -2.248  25.836  1.00  0.00    -0.003 C 
HETATM   25  C1  UNL     1      44.321  -3.652  26.228  1.00  0.00     0.005 C 
ENDBRANCH  23  24
ENDBRANCH  22  23
ENDBRANCH  20  22
ENDBRANCH  18  20
ENDBRANCH  16  18
ENDBRANCH  15  16
ENDBRANCH   1  15
TORSDOF 7
ENDMDL
MODEL 2
REMARK VINA RESULT: -5.854101362      3.420      5.079
REMARK  7 active torsions:
REMARK  status: ('A' for Active; 'I' for Inactive)
REMARK    1  A    between atoms: C2_2  and  C3_3 
REMARK    2  A    between atoms: C3_3  and  C4_4 
REMARK    3  A    between atoms: C4_4  and  N1_5 
REMARK    4  A    between atoms: N1_5  and  C5_7 
REMARK    5  A    between atoms: C5_7  and  N2_9 
REMARK    6  A    between atoms: N2_9  and  C6_11 
REMARK    7  A    between atoms: C6_11  and  C7_12 
ROOT
HETATM    1  C7  UNL     1      40.736  -3.774  30.784  1.00  0.00     0.079 C 
HETATM    2  N3  UNL     1      41.293  -2.581  30.619  1.00  0.00    -0.380 N 
HETATM    3  C8  UNL     1      40.702  -1.357  30.251  1.00  0.00     0.090 C 
HETATM    4  C9  UNL     1      39.416  -1.037  30.855  1.00  0.00     0.026 C 
HETATM    5  C10 UNL     1      39.356   0.203  31.718  1.00  0.00     0.002 C 
HETATM    6  C11 UNL     1      39.696  -0.197  33.130  1.00  0.00     0.001 C 
HETATM    7  C12 UNL     1      41.079  -0.796  33.168  1.00  0.00     0.010 C 
HETATM    8  C13 UNL     1      42.005  -0.255  32.153  1.00  0.00     0.032 C 
HETATM    9  C14 UNL     1      43.421  -0.331  32.709  1.00  0.00     0.060 C 
HETATM   10  N4  UNL     1      44.248  -1.294  32.100  1.00  0.00    -0.400 N 
ATOM     11  H4  UNL     1      45.258  -1.163  32.041  1.00  0.00     0.158 HD
HETATM   12  C15 UNL     1      43.618  -2.468  31.567  1.00  0.00     0.144 C 
HETATM   13  C16 UNL     1      42.597  -2.121  30.556  1.00  0.00     0.108 C 
HETATM   14  C17 UNL     1      41.952  -0.733  30.780  1.00  0.00     0.042 C 
ENDROOT
BRANCH   1  15
HETATM   15  C6  UNL     1      40.238  -4.411  29.499  1.00  0.00     0.166 C 
BRANCH  15  16
HETATM   16  N2  UNL     1      40.979  -5.622  29.259  1.00  0.00    -0.363 N 
ATOM     17  H2  UNL     1      40.514  -6.529  29.306  1.00  0.00     0.162 HD
BRANCH  16  18
HETATM   18  C5  UNL     1      42.362  -5.541  28.958  1.00  0.00     0.167 C 
HETATM   19  S1  UNL     1      43.437  -6.200  29.996  1.00  0.00    -0.041 SA
BRANCH  18  20
HETATM   20  N1  UNL     1      42.742  -4.908  27.749  1.00  0.00    -0.367 N 
ATOM     21  H1  UNL     1      42.199  -5.084  26.904  1.00  0.00     0.161 HD
BRANCH  20  22
HETATM   22  C4  UNL     1      43.869  -4.029  27.683  1.00  0.00     0.122 C 
BRANCH  22  23
HETATM   23  C3  UNL     1      44.235  -3.764  26.259  1.00  0.00     0.019 C 
BRANCH  23  24
HETATM   24  C2  UNL     1      44.642  -2.296  26.080  1.00  0.00    -0.003 C 
HETATM   25  C1  UNL     1      44.260  -1.494  27.294  1.00  0.00     0.005 C 
ENDBRANCH  23  24
ENDBRANCH  22  23
ENDBRANCH  20  22
ENDBRANCH  18  20
ENDBRANCH  16  18
ENDBRANCH  15  16
ENDBRANCH   1  15
TORSDOF 7
ENDMDL
MODEL 3
REMARK VINA RESULT: -5.689422245      1.247      1.420
REMARK  7 active torsions:
REMARK  status: ('A' for Active; 'I' for Inactive)
REMARK    1  A    between atoms: C2_2  and  C3_3 
REMARK    2  A    between atoms: C3_3  and  C4_4 
REMARK    3  A    between atoms: C4_4  and  N1_5 
REMARK    4  A    between atoms: N1_5  and  C5_7 
REMARK    5  A    between atoms: C5_7  and  N2_9 
REMARK    6  A    between atoms: N2_9  and  C6_11 
REMARK    7  A    between atoms: C6_11  and  C7_12 
ROOT
HETATM    1  C7  UNL     1      43.964  -0.926  33.961  1.00  0.00     0.079 C 
HETATM    2  N3  UNL     1      44.496   0.184  34.456  1.00  0.00    -0.380 N 
HETATM    3  C8  UNL     1      43.917   1.453  34.643  1.00  0.00     0.090 C 
HETATM    4  C9  UNL     1      42.554   1.488  35.156  1.00  0.00     0.026 C 
HETATM    5  C10 UNL     1      42.342   2.169  36.489  1.00  0.00     0.002 C 
HETATM    6  C11 UNL     1      42.512   1.133  37.571  1.00  0.00     0.001 C 
HETATM    7  C12 UNL     1      43.898   0.546  37.497  1.00  0.00     0.010 C 
HETATM    8  C13 UNL     1      44.928   1.475  36.989  1.00  0.00     0.032 C 
HETATM    9  C14 UNL     1      46.263   1.099  37.619  1.00  0.00     0.060 C 
HETATM   10  N4  UNL     1      47.193   0.516  36.737  1.00  0.00    -0.400 N 
ATOM     11  H4  UNL     1      48.197   0.628  36.878  1.00  0.00     0.158 HD
HETATM   12  C15 UNL     1      46.677  -0.242  35.634  1.00  0.00     0.144 C 
HETATM   13  C16 UNL     1      45.782   0.577  34.788  1.00  0.00     0.108 C 
HETATM   14  C17 UNL     1      45.067   1.711  35.561  1.00  0.00     0.042 C 
ENDROOT
BRANCH   1  15
HETATM   15  C6  UNL     1      43.656  -0.858  32.475  1.00  0.00     0.166 C 
BRANCH  15  16
HETATM   16  N2  UNL     1      42.234  -0.730  32.296  1.00  0.00    -0.363 N 
ATOM     17  H2  UNL     1      41.613  -0.703  33.105  1.00  0.00     0.162 HD
BRANCH  16  18
HETATM   18  C5  UNL     1      41.705  -0.644  30.984  1.00  0.00     0.167 C 
HETATM   19  S1  UNL     1      40.086  -0.561  30.788  1.00  0.00    -0.041 SA
BRANCH  18  20
HETATM   20  N1  UNL     1      42.618  -0.607  29.901  1.00  0.00    -0.367 N 
ATOM     21  H1  UNL     1      43.145   0.248  29.724  1.00  0.00     0.161 HD
BRANCH  20  22
HETATM   22  C4  UNL     1      42.820  -1.740  29.050  1.00  0.00     0.122 C 
BRANCH  22  23
HETATM   23  C3  UNL     1      44.241  -1.793  28.591  1.00  0.00     0.019 C 
BRANCH  23  24
HETATM   24  C2  UNL     1      44.379  -1.126  27.216  1.00  0.00    -0.003 C 
HETATM   25  C1  UNL     1      44.805  -2.135  26.184  1.00  0.00     0.005 C 
ENDBRANCH  23  24
ENDBRANCH  22  23
ENDBRANCH  20  22
ENDBRANCH  18  20
ENDBRANCH  16  18
ENDBRANCH  15  16
ENDBRANCH   1  15
TORSDOF 7
ENDMDL
MODEL 4
REMARK VINA RESULT: -5.676750962      1.450      1.646
REMARK  7 active torsions:
REMARK  status: ('A' for Active; 'I' for Inactive)
REMARK    1  A    between atoms: C2_2  and  C3_3 
REMARK    2  A    between atoms: C3_3  and  C4_4 
REMARK    3  A    between atoms: C4_4  and  N1_5 
REMARK    4  A    between atoms: N1_5  and  C5_7 
REMARK    5  A    between atoms: C5_7  and  N2_9 
REMARK    6  A    between atoms: N2_9  and  C6_11 
REMARK    7  A    between atoms: C6_11  and  C7_12 
ROOT
HETATM    1  C7  UNL     1      42.905  -1.313  32.991  1.00  0.00     0.079 C 
HETATM    2  N3  UNL     1      43.129  -0.201  33.679  1.00  0.00    -0.380 N 
HETATM    3  C8  UNL     1      42.253   0.547  34.489  1.00  0.00     0.090 C 
HETATM    4  C9  UNL     1      41.357  -0.203  35.360  1.00  0.00     0.026 C 
HETATM    5  C10 UNL     1      41.509   0.017  36.848  1.00  0.00     0.002 C 
HETATM    6  C11 UNL     1      42.519  -0.976  37.363  1.00  0.00     0.001 C 
HETATM    7  C12 UNL     1      43.838  -0.765  36.665  1.00  0.00     0.010 C 
HETATM    8  C13 UNL     1      44.096   0.631  36.257  1.00  0.00     0.032 C 
HETATM    9  C14 UNL     1      45.601   0.864  36.271  1.00  0.00     0.060 C 
HETATM   10  N4  UNL     1      46.194   1.002  35.001  1.00  0.00    -0.400 N 
ATOM     11  H4  UNL     1      47.028   1.573  34.866  1.00  0.00     0.158 HD
HETATM   12  C15 UNL     1      45.581   0.310  33.904  1.00  0.00     0.144 C 
HETATM   13  C16 UNL     1      44.168   0.712  33.733  1.00  0.00     0.108 C 
HETATM   14  C17 UNL     1      43.491   1.168  35.047  1.00  0.00     0.042 C 
ENDROOT
BRANCH   1  15
HETATM   15  C6  UNL     1      41.977  -1.131  31.802  1.00  0.00     0.166 C 
BRANCH  15  16
HETATM   16  N2  UNL     1      42.732  -0.602  30.696  1.00  0.00    -0.363 N 
ATOM     17  H2  UNL     1      43.210   0.294  30.780  1.00  0.00     0.162 HD
BRANCH  16  18
HETATM   18  C5  UNL     1      42.801  -1.341  29.488  1.00  0.00     0.167 C 
HETATM   19  S1  UNL     1      41.957  -2.733  29.362  1.00  0.00    -0.041 SA
BRANCH  18  20
HETATM   20  N1  UNL     1      43.588  -0.815  28.432  1.00  0.00    -0.367 N 
ATOM     21  H1  UNL     1      43.455   0.155  28.150  1.00  0.00     0.161 HD
BRANCH  20  22
HETATM   22  C4  UNL     1      44.563  -1.612  27.753  1.00  0.00     0.122 C 
BRANCH  22  23
HETATM   23  C3  UNL     1      44.474  -1.390  26.279  1.00  0.00     0.019 C 
BRANCH  23  24
HETATM   24  C2  UNL     1      44.523  -2.731  25.536  1.00  0.00    -0.003 C 
HETATM   25  C1  UNL     1      44.181  -3.861  26.470  1.00  0.00     0.005 C 
ENDBRANCH  23  24
ENDBRANCH  22  23
ENDBRANCH  20  22
ENDBRANCH  18  20
ENDBRANCH  16  18
ENDBRANCH  15  16
ENDBRANCH   1  15
TORSDOF 7
ENDMDL
MODEL 5
REMARK VINA RESULT: -5.651069885      4.658      7.573
REMARK  7 active torsions:
REMARK  status: ('A' for Active; 'I' for Inactive)
REMARK    1  A    between atoms: C2_2  and  C3_3 
REMARK    2  A    between atoms: C3_3  and  C4_4 
REMARK    3  A    between atoms: C4_4  and  N1_5 
REMARK    4  A    between atoms: N1_5  and  C5_7 
REMARK    5  A    between atoms: C5_7  and  N2_9 
REMARK    6  A    between atoms: N2_9  and  C6_11 
REMARK    7  A    between atoms: C6_11  and  C7_12 
ROOT
HETATM    1  C7  UNL     1      42.827  -3.514  31.792  1.00  0.00     0.079 C 
HETATM    2  N3  UNL     1      42.639  -4.308  30.746  1.00  0.00    -0.380 N 
HETATM    3  C8  UNL     1      43.533  -5.201  30.124  1.00  0.00     0.090 C 
HETATM    4  C9  UNL     1      44.379  -6.004  30.997  1.00  0.00     0.026 C 
HETATM    5  C10 UNL     1      44.210  -7.504  30.921  1.00  0.00     0.002 C 
HETATM    6  C11 UNL     1      43.148  -7.902  31.914  1.00  0.00     0.001 C 
HETATM    7  C12 UNL     1      41.852  -7.211  31.574  1.00  0.00     0.010 C 
HETATM    8  C13 UNL     1      41.663  -6.943  30.134  1.00  0.00     0.032 C 
HETATM    9  C14 UNL     1      40.171  -6.961  29.836  1.00  0.00     0.060 C 
HETATM   10  N4  UNL     1      39.607  -5.703  29.543  1.00  0.00    -0.400 N 
ATOM     11  H4  UNL     1      38.801  -5.615  28.925  1.00  0.00     0.158 HD
HETATM   12  C15 UNL     1      40.209  -4.550  30.149  1.00  0.00     0.144 C 
HETATM   13  C16 UNL     1      41.641  -4.440  29.796  1.00  0.00     0.108 C 
HETATM   14  C17 UNL     1      42.313  -5.802  29.506  1.00  0.00     0.042 C 
ENDROOT
BRANCH   1  15
HETATM   15  C6  UNL     1      43.783  -2.362  31.534  1.00  0.00     0.166 C 
BRANCH  15  16
HETATM   16  N2  UNL     1      43.034  -1.134  31.481  1.00  0.00    -0.363 N 
ATOM     17  H2  UNL     1      43.021  -0.503  32.282  1.00  0.00     0.162 HD
BRANCH  16  18
HETATM   18  C5  UNL     1      42.313  -0.811  30.303  1.00  0.00     0.167 C 
HETATM   19  S1  UNL     1      40.684  -0.730  30.370  1.00  0.00    -0.041 SA
BRANCH  18  20
HETATM   20  N1  UNL     1      43.054  -0.550  29.123  1.00  0.00    -0.367 N 
ATOM     21  H1  UNL     1      43.296   0.413  28.891  1.00  0.00     0.161 HD
BRANCH  20  22
HETATM   22  C4  UNL     1      43.470  -1.603  28.248  1.00  0.00     0.122 C 
BRANCH  22  23
HETATM   23  C3  UNL     1      44.342  -1.060  27.165  1.00  0.00     0.019 C 
BRANCH  23  24
HETATM   24  C2  UNL     1      44.808  -2.192  26.240  1.00  0.00    -0.003 C 
HETATM   25  C1  UNL     1      44.288  -3.516  26.730  1.00  0.00     0.005 C 
ENDBRANCH  23  24
ENDBRANCH  22  23
ENDBRANCH  20  22
ENDBRANCH  18  20
ENDBRANCH  16  18
ENDBRANCH  15  16
ENDBRANCH   1  15
TORSDOF 7
ENDMDL
