MODEL 1
REMARK VINA RESULT: -7.584116145      0.000      0.000
REMARK  5 active torsions:
REMARK  status: ('A' for Active; 'I' for Inactive)
REMARK    1  A    between atoms: C2_2  and  C3_3 
REMARK    2  A    between atoms: C2_2  and  N1_5 
REMARK    3  A    between atoms: C2_2  and  C9_22 
REMARK       I    between atoms: N1_5  and  C4_7 
REMARK       I    between atoms: C4_7  and  N2_9 
REMARK    4  A    between atoms: N2_9  and  C5_11 
REMARK    5  A    between atoms: C8_16  and  N4_17 
ROOT
HETATM    1  N1  UNL     1      43.814  -2.764  29.922  1.00  0.00    -0.332 N 
ATOM      2  H1  UNL     1      44.561  -3.435  29.746  1.00  0.00     0.165 HD
HETATM    3  C4  UNL     1      43.801  -1.680  29.066  1.00  0.00     0.322 C 
HETATM    4  O1  UNL     1      42.988  -0.743  29.053  1.00  0.00    -0.247 OA
HETATM    5  N2  UNL     1      44.820  -1.537  28.026  1.00  0.00    -0.294 N 
ATOM      6  H2  UNL     1      45.745  -1.163  28.239  1.00  0.00     0.172 HD
ENDROOT
BRANCH   1   7
HETATM    7  C2  UNL     1      42.928  -3.110  31.046  1.00  0.00     0.051 C 
HETATM    8  C1  UNL     1      41.486  -2.879  30.459  1.00  0.00     0.040 C 
BRANCH   7   9
HETATM    9  C3  UNL     1      43.110  -2.051  32.067  1.00  0.00     0.146 C 
HETATM   10 CL1  UNL     1      41.802  -0.898  32.257  1.00  0.00    -0.128 Cl
ENDBRANCH   7   9
BRANCH   7  11
HETATM   11  C9  UNL     1      42.998  -4.540  31.459  1.00  0.00    -0.013 C 
HETATM   12  C10 UNL     1      43.188  -4.793  32.922  1.00  0.00     0.017 C 
HETATM   13  C11 UNL     1      43.176  -6.285  33.219  1.00  0.00    -0.013 C 
HETATM   14  C12 UNL     1      44.340  -6.902  32.492  1.00  0.00     0.009 C 
HETATM   15  C16 UNL     1      41.855  -6.886  32.894  1.00  0.00     0.009 C 
HETATM   16  C13 UNL     1      44.061  -6.789  31.035  1.00  0.00    -0.013 C 
HETATM   17  C14 UNL     1      42.708  -7.386  30.661  1.00  0.00     0.009 C 
HETATM   18  C18 UNL     1      43.969  -5.323  30.615  1.00  0.00     0.017 C 
HETATM   19  C15 UNL     1      41.641  -6.645  31.394  1.00  0.00    -0.013 C 
HETATM   20  C17 UNL     1      41.617  -5.163  31.133  1.00  0.00     0.017 C 
ENDBRANCH   7  11
ENDBRANCH   1   7
BRANCH   5  21
HETATM   21  C5  UNL     1      44.506  -1.901  26.830  1.00  0.00     0.126 A 
HETATM   22  C6  UNL     1      44.429  -3.225  26.436  1.00  0.00     0.067 A 
HETATM   23  C7  UNL     1      44.089  -3.576  25.144  1.00  0.00     0.110 A 
HETATM   24  N3  UNL     1      43.837  -2.557  24.295  1.00  0.00    -0.202 N 
HETATM   25  C8  UNL     1      43.908  -1.269  24.670  1.00  0.00     0.677 A 
ATOM     26  H3  UNL     1      43.581  -2.774  23.331  1.00  0.00     0.183 HD
HETATM   27  N5  UNL     1      44.243  -0.926  25.937  1.00  0.00    -0.177 N 
ATOM     28  H5  UNL     1      44.295   0.056  26.210  1.00  0.00     0.185 HD
BRANCH  25  29
HETATM   29  N4  UNL     1      43.668  -0.283  23.865  1.00  0.00    -0.234 N 
ATOM     30  H42 UNL     1      44.299   0.515  23.940  1.00  0.00     0.174 HD
ATOM     31  H41 UNL     1      42.900  -0.287  23.193  1.00  0.00     0.174 HD
ENDBRANCH  25  29
ENDBRANCH   5  21
TORSDOF 5
ENDMDL
MODEL 2
REMARK VINA RESULT: -7.572470321      0.097      1.480
REMARK  5 active torsions:
REMARK  status: ('A' for Active; 'I' for Inactive)
REMARK    1  A    between atoms: C2_2  and  C3_3 
REMARK    2  A    between atoms: C2_2  and  N1_5 
REMARK    3  A    between atoms: C2_2  and  C9_22 
REMARK       I    between atoms: N1_5  and  C4_7 
REMARK       I    between atoms: C4_7  and  N2_9 
REMARK    4  A    between atoms: N2_9  and  C5_11 
REMARK    5  A    between atoms: C8_16  and  N4_17 
ROOT
HETATM    1  N1  UNL     1      43.745  -2.779  29.890  1.00  0.00    -0.332 N 
ATOM      2  H1  UNL     1      44.462  -3.484  29.721  1.00  0.00     0.165 HD
HETATM    3  C4  UNL     1      43.791  -1.694  29.037  1.00  0.00     0.322 C 
HETATM    4  O1  UNL     1      43.023  -0.720  29.018  1.00  0.00    -0.247 OA
HETATM    5  N2  UNL     1      44.828  -1.595  28.009  1.00  0.00    -0.294 N 
ATOM      6  H2  UNL     1      45.767  -1.265  28.234  1.00  0.00     0.172 HD
ENDROOT
BRANCH   1   7
HETATM    7  C2  UNL     1      42.830  -3.087  31.003  1.00  0.00     0.051 C 
HETATM    8  C1  UNL     1      41.410  -2.760  30.410  1.00  0.00     0.040 C 
BRANCH   7   9
HETATM    9  C3  UNL     1      43.070  -2.055  32.041  1.00  0.00     0.146 C 
HETATM   10 CL1  UNL     1      41.849  -0.808  32.216  1.00  0.00    -0.128 Cl
ENDBRANCH   7   9
BRANCH   7  11
HETATM   11  C9  UNL     1      42.811  -4.524  31.395  1.00  0.00    -0.013 C 
HETATM   12  C10 UNL     1      41.577  -5.288  31.028  1.00  0.00     0.017 C 
HETATM   13  C11 UNL     1      41.709  -6.752  31.422  1.00  0.00    -0.013 C 
HETATM   14  C12 UNL     1      41.856  -6.808  32.918  1.00  0.00     0.009 C 
HETATM   15  C16 UNL     1      42.808  -7.412  30.667  1.00  0.00     0.009 C 
HETATM   16  C13 UNL     1      43.167  -6.190  33.256  1.00  0.00    -0.013 C 
HETATM   17  C14 UNL     1      44.321  -6.833  32.494  1.00  0.00     0.009 C 
HETATM   18  C18 UNL     1      43.194  -4.721  32.837  1.00  0.00     0.017 C 
HETATM   19  C15 UNL     1      44.087  -6.650  31.032  1.00  0.00    -0.013 C 
HETATM   20  C17 UNL     1      43.946  -5.215  30.597  1.00  0.00     0.017 C 
ENDBRANCH   7  11
ENDBRANCH   1   7
BRANCH   5  21
HETATM   21  C5  UNL     1      44.510  -1.941  26.809  1.00  0.00     0.126 A 
HETATM   22  C6  UNL     1      44.432  -3.259  26.395  1.00  0.00     0.067 A 
HETATM   23  C7  UNL     1      44.089  -3.591  25.099  1.00  0.00     0.110 A 
HETATM   24  N3  UNL     1      43.835  -2.560  24.266  1.00  0.00    -0.202 N 
HETATM   25  C8  UNL     1      43.909  -1.277  24.660  1.00  0.00     0.677 A 
ATOM     26  H3  UNL     1      43.577  -2.761  23.299  1.00  0.00     0.183 HD
HETATM   27  N5  UNL     1      44.246  -0.953  25.930  1.00  0.00    -0.177 N 
ATOM     28  H5  UNL     1      44.300   0.025  26.218  1.00  0.00     0.185 HD
BRANCH  25  29
HETATM   29  N4  UNL     1      43.667  -0.278  23.870  1.00  0.00    -0.234 N 
ATOM     30  H42 UNL     1      44.009  -0.377  22.914  1.00  0.00     0.174 HD
ATOM     31  H41 UNL     1      43.169   0.560  24.168  1.00  0.00     0.174 HD
ENDBRANCH  25  29
ENDBRANCH   5  21
TORSDOF 5
ENDMDL
MODEL 3
REMARK VINA RESULT: -7.511875522      0.173      1.490
REMARK  5 active torsions:
REMARK  status: ('A' for Active; 'I' for Inactive)
REMARK    1  A    between atoms: C2_2  and  C3_3 
REMARK    2  A    between atoms: C2_2  and  N1_5 
REMARK    3  A    between atoms: C2_2  and  C9_22 
REMARK       I    between atoms: N1_5  and  C4_7 
REMARK       I    between atoms: C4_7  and  N2_9 
REMARK    4  A    between atoms: N2_9  and  C5_11 
REMARK    5  A    between atoms: C8_16  and  N4_17 
ROOT
HETATM    1  N1  UNL     1      43.764  -2.886  29.834  1.00  0.00    -0.332 N 
ATOM      2  H1  UNL     1      44.486  -3.581  29.648  1.00  0.00     0.165 HD
HETATM    3  C4  UNL     1      43.798  -1.782  29.004  1.00  0.00     0.322 C 
HETATM    4  O1  UNL     1      43.022  -0.815  29.009  1.00  0.00    -0.247 OA
HETATM    5  N2  UNL     1      44.831  -1.654  27.975  1.00  0.00    -0.294 N 
ATOM      6  H2  UNL     1      45.768  -1.321  28.204  1.00  0.00     0.172 HD
ENDROOT
BRANCH   1   7
HETATM    7  C2  UNL     1      42.856  -3.224  30.944  1.00  0.00     0.051 C 
HETATM    8  C1  UNL     1      41.428  -2.944  30.346  1.00  0.00     0.040 C 
BRANCH   7   9
HETATM    9  C3  UNL     1      43.057  -2.185  31.983  1.00  0.00     0.146 C 
HETATM   10 CL1  UNL     1      41.753  -1.036  32.218  1.00  0.00    -0.128 Cl
ENDBRANCH   7   9
BRANCH   7  11
HETATM   11  C9  UNL     1      42.882  -4.661  31.336  1.00  0.00    -0.013 C 
HETATM   12  C10 UNL     1      43.944  -5.498  30.693  1.00  0.00     0.017 C 
HETATM   13  C11 UNL     1      43.907  -6.922  31.223  1.00  0.00    -0.013 C 
HETATM   14  C12 UNL     1      42.573  -7.510  30.854  1.00  0.00     0.009 C 
HETATM   15  C16 UNL     1      44.217  -6.960  32.678  1.00  0.00     0.009 C 
HETATM   16  C13 UNL     1      41.536  -6.775  31.628  1.00  0.00    -0.013 C 
HETATM   17  C14 UNL     1      41.823  -6.782  33.125  1.00  0.00     0.009 C 
HETATM   18  C18 UNL     1      41.521  -5.297  31.240  1.00  0.00     0.017 C 
HETATM   19  C15 UNL     1      43.136  -6.114  33.361  1.00  0.00    -0.013 C 
HETATM   20  C17 UNL     1      43.220  -4.701  32.848  1.00  0.00     0.017 C 
ENDBRANCH   7  11
ENDBRANCH   1   7
BRANCH   5  21
HETATM   21  C5  UNL     1      44.511  -1.977  26.769  1.00  0.00     0.126 A 
HETATM   22  C6  UNL     1      44.436  -3.287  26.330  1.00  0.00     0.067 A 
HETATM   23  C7  UNL     1      44.091  -3.594  25.028  1.00  0.00     0.110 A 
HETATM   24  N3  UNL     1      43.832  -2.547  24.216  1.00  0.00    -0.202 N 
HETATM   25  C8  UNL     1      43.902  -1.272  24.635  1.00  0.00     0.677 A 
ATOM     26  H3  UNL     1      43.572  -2.730  23.246  1.00  0.00     0.183 HD
HETATM   27  N5  UNL     1      44.242  -0.972  25.911  1.00  0.00    -0.177 N 
ATOM     28  H5  UNL     1      44.293  -0.000  26.218  1.00  0.00     0.185 HD
BRANCH  25  29
HETATM   29  N4  UNL     1      43.656  -0.259  23.866  1.00  0.00    -0.234 N 
ATOM     30  H42 UNL     1      43.798  -0.416  22.868  1.00  0.00     0.174 HD
ATOM     31  H41 UNL     1      43.339   0.644  24.218  1.00  0.00     0.174 HD
ENDBRANCH  25  29
ENDBRANCH   5  21
TORSDOF 5
ENDMDL
MODEL 4
REMARK VINA RESULT: -7.463437892      2.574      4.476
REMARK  5 active torsions:
REMARK  status: ('A' for Active; 'I' for Inactive)
REMARK    1  A    between atoms: C2_2  and  C3_3 
REMARK    2  A    between atoms: C2_2  and  N1_5 
REMARK    3  A    between atoms: C2_2  and  C9_22 
REMARK       I    between atoms: N1_5  and  C4_7 
REMARK       I    between atoms: C4_7  and  N2_9 
REMARK    4  A    between atoms: N2_9  and  C5_11 
REMARK    5  A    between atoms: C8_16  and  N4_17 
ROOT
HETATM    1  N1  UNL     1      42.047  -3.560  29.987  1.00  0.00    -0.332 N 
ATOM      2  H1  UNL     1      41.207  -3.443  29.419  1.00  0.00     0.165 HD
HETATM    3  C4  UNL     1      43.144  -4.041  29.300  1.00  0.00     0.322 C 
HETATM    4  O1  UNL     1      44.281  -4.246  29.752  1.00  0.00    -0.247 OA
HETATM    5  N2  UNL     1      43.050  -4.373  27.878  1.00  0.00    -0.294 N 
ATOM      6  H2  UNL     1      42.657  -5.263  27.568  1.00  0.00     0.172 HD
ENDROOT
BRANCH   1   7
HETATM    7  C2  UNL     1      41.888  -3.186  31.403  1.00  0.00     0.051 C 
HETATM    8  C1  UNL     1      43.176  -2.333  31.702  1.00  0.00     0.040 C 
BRANCH   7   9
HETATM    9  C3  UNL     1      42.052  -4.434  32.188  1.00  0.00     0.146 C 
HETATM   10 CL1  UNL     1      42.701  -4.272  33.809  1.00  0.00    -0.128 Cl
ENDBRANCH   7   9
BRANCH   7  11
HETATM   11  C9  UNL     1      40.718  -2.305  31.673  1.00  0.00    -0.013 C 
HETATM   12  C10 UNL     1      41.013  -1.020  32.382  1.00  0.00     0.017 C 
HETATM   13  C11 UNL     1      39.751  -0.184  32.536  1.00  0.00    -0.013 C 
HETATM   14  C12 UNL     1      38.789  -0.968  33.387  1.00  0.00     0.009 C 
HETATM   15  C16 UNL     1      39.213   0.223  31.210  1.00  0.00     0.009 C 
HETATM   16  C13 UNL     1      38.376  -2.163  32.601  1.00  0.00    -0.013 C 
HETATM   17  C14 UNL     1      37.827  -1.787  31.229  1.00  0.00     0.009 C 
HETATM   18  C18 UNL     1      39.579  -3.057  32.309  1.00  0.00     0.017 C 
HETATM   19  C15 UNL     1      38.896  -1.079  30.466  1.00  0.00    -0.013 C 
HETATM   20  C17 UNL     1      40.166  -1.868  30.291  1.00  0.00     0.017 C 
ENDBRANCH   7  11
ENDBRANCH   1   7
BRANCH   5  21
HETATM   21  C5  UNL     1      43.480  -3.501  27.034  1.00  0.00     0.126 A 
HETATM   22  C6  UNL     1      43.530  -2.145  27.303  1.00  0.00     0.067 A 
HETATM   23  C7  UNL     1      43.998  -1.239  26.371  1.00  0.00     0.110 A 
HETATM   24  N3  UNL     1      44.402  -1.753  25.189  1.00  0.00    -0.202 N 
HETATM   25  C8  UNL     1      44.357  -3.069  24.920  1.00  0.00     0.677 A 
ATOM     26  H3  UNL     1      44.756  -1.119  24.473  1.00  0.00     0.183 HD
HETATM   27  N5  UNL     1      43.898  -3.956  25.835  1.00  0.00    -0.177 N 
ATOM     28  H5  UNL     1      43.867  -4.953  25.619  1.00  0.00     0.185 HD
BRANCH  25  29
HETATM   29  N4  UNL     1      44.743  -3.575  23.791  1.00  0.00    -0.234 N 
ATOM     30  H42 UNL     1      44.221  -3.271  22.969  1.00  0.00     0.174 HD
ATOM     31  H41 UNL     1      45.517  -4.235  23.711  1.00  0.00     0.174 HD
ENDBRANCH  25  29
ENDBRANCH   5  21
TORSDOF 5
ENDMDL
MODEL 5
REMARK VINA RESULT: -7.440876896      2.586      4.516
REMARK  5 active torsions:
REMARK  status: ('A' for Active; 'I' for Inactive)
REMARK    1  A    between atoms: C2_2  and  C3_3 
REMARK    2  A    between atoms: C2_2  and  N1_5 
REMARK    3  A    between atoms: C2_2  and  C9_22 
REMARK       I    between atoms: N1_5  and  C4_7 
REMARK       I    between atoms: C4_7  and  N2_9 
REMARK    4  A    between atoms: N2_9  and  C5_11 
REMARK    5  A    between atoms: C8_16  and  N4_17 
ROOT
HETATM    1  N1  UNL     1      42.005  -3.654  29.914  1.00  0.00    -0.332 N 
ATOM      2  H1  UNL     1      41.178  -3.573  29.324  1.00  0.00     0.165 HD
HETATM    3  C4  UNL     1      43.141  -4.089  29.259  1.00  0.00     0.322 C 
HETATM    4  O1  UNL     1      44.272  -4.246  29.741  1.00  0.00    -0.247 OA
HETATM    5  N2  UNL     1      43.098  -4.426  27.836  1.00  0.00    -0.294 N 
ATOM      6  H2  UNL     1      42.752  -5.331  27.516  1.00  0.00     0.172 HD
ENDROOT
BRANCH   1   7
HETATM    7  C2  UNL     1      41.793  -3.286  31.326  1.00  0.00     0.051 C 
HETATM    8  C1  UNL     1      43.045  -2.396  31.663  1.00  0.00     0.040 C 
BRANCH   7   9
HETATM    9  C3  UNL     1      41.970  -4.529  32.115  1.00  0.00     0.146 C 
HETATM   10 CL1  UNL     1      42.864  -4.393  33.618  1.00  0.00    -0.128 Cl
ENDBRANCH   7   9
BRANCH   7  11
HETATM   11  C9  UNL     1      40.589  -2.440  31.559  1.00  0.00    -0.013 C 
HETATM   12  C10 UNL     1      39.549  -3.014  32.470  1.00  0.00     0.017 C 
HETATM   13  C11 UNL     1      38.409  -2.029  32.678  1.00  0.00    -0.013 C 
HETATM   14  C12 UNL     1      37.765  -1.790  31.340  1.00  0.00     0.009 C 
HETATM   15  C16 UNL     1      38.883  -0.798  33.365  1.00  0.00     0.009 C 
HETATM   16  C13 UNL     1      38.757  -1.070  30.495  1.00  0.00    -0.013 C 
HETATM   17  C14 UNL     1      39.276   0.195  31.168  1.00  0.00     0.009 C 
HETATM   18  C18 UNL     1      39.999  -1.931  30.271  1.00  0.00     0.017 C 
HETATM   19  C15 UNL     1      39.947  -0.186  32.445  1.00  0.00    -0.013 C 
HETATM   20  C17 UNL     1      41.081  -1.163  32.288  1.00  0.00     0.017 C 
ENDBRANCH   7  11
ENDBRANCH   1   7
BRANCH   5  21
HETATM   21  C5  UNL     1      43.515  -3.537  27.002  1.00  0.00     0.126 A 
HETATM   22  C6  UNL     1      43.561  -2.186  27.293  1.00  0.00     0.067 A 
HETATM   23  C7  UNL     1      44.013  -1.262  26.372  1.00  0.00     0.110 A 
HETATM   24  N3  UNL     1      44.408  -1.753  25.177  1.00  0.00    -0.202 N 
HETATM   25  C8  UNL     1      44.367  -3.065  24.886  1.00  0.00     0.677 A 
ATOM     26  H3  UNL     1      44.750  -1.104  24.468  1.00  0.00     0.183 HD
HETATM   27  N5  UNL     1      43.922  -3.969  25.790  1.00  0.00    -0.177 N 
ATOM     28  H5  UNL     1      43.894  -4.963  25.558  1.00  0.00     0.185 HD
BRANCH  25  29
HETATM   29  N4  UNL     1      44.742  -3.549  23.744  1.00  0.00    -0.234 N 
ATOM     30  H42 UNL     1      45.119  -2.873  23.080  1.00  0.00     0.174 HD
ATOM     31  H41 UNL     1      44.672  -4.539  23.509  1.00  0.00     0.174 HD
ENDBRANCH  25  29
ENDBRANCH   5  21
TORSDOF 5
ENDMDL
