MODEL 1
REMARK VINA RESULT: -6.773817492      0.000      0.000
REMARK  5 active torsions:
REMARK  status: ('A' for Active; 'I' for Inactive)
REMARK    1  A    between atoms: C5_5  and  N1_6 
REMARK    2  A    between atoms: N1_6  and  C6_8 
REMARK    3  A    between atoms: C6_8  and  N2_10 
REMARK    4  A    between atoms: N2_10  and  C7_12 
REMARK    5  A    between atoms: C7_12  and  C8_13 
ROOT
HETATM    1  N2  UNL     1      42.819  -0.691  29.545  1.00  0.00    -0.363 N 
ATOM      2  H2  UNL     1      42.712   0.062  28.865  1.00  0.00     0.162 HD
ENDROOT
BRANCH   1   3
HETATM    3  C6  UNL     1      41.989  -0.681  30.703  1.00  0.00     0.168 C 
HETATM    4  S1  UNL     1      40.351  -0.563  30.517  1.00  0.00    -0.041 SA
BRANCH   3   5
HETATM    5  N1  UNL     1      42.478  -0.750  32.022  1.00  0.00    -0.363 N 
ATOM      6  H1  UNL     1      42.243  -1.575  32.574  1.00  0.00     0.162 HD
BRANCH   5   7
HETATM    7  C5  UNL     1      43.286   0.264  32.643  1.00  0.00     0.083 C 
HETATM    8  C4  UNL     1      44.750  -0.130  32.701  1.00  0.00     0.025 C 
HETATM    9  C3  UNL     1      45.461   0.916  33.569  1.00  0.00     0.006 C 
HETATM   10  C2  UNL     1      45.161   0.555  35.001  1.00  0.00    -0.019 C 
HETATM   11  C1  UNL     1      45.231   1.712  35.940  1.00  0.00     0.010 C 
HETATM   12  C14 UNL     1      43.811  -0.087  35.062  1.00  0.00     0.006 C 
HETATM   13  C13 UNL     1      42.836   0.503  34.074  1.00  0.00     0.025 C 
ENDBRANCH   5   7
ENDBRANCH   3   5
ENDBRANCH   1   3
BRANCH   1  14
HETATM   14  C7  UNL     1      43.797  -1.707  29.287  1.00  0.00     0.164 C 
BRANCH  14  15
HETATM   15  C8  UNL     1      43.849  -2.162  27.877  1.00  0.00     0.004 A 
HETATM   16  C9  UNL     1      43.882  -1.280  26.837  1.00  0.00     0.033 A 
HETATM   17  C10 UNL     1      43.916  -1.778  25.544  1.00  0.00     0.027 A 
HETATM   18 BR1  UNL     1      43.961  -0.548  24.113  1.00  0.00    -0.050 Br
HETATM   19  C11 UNL     1      43.915  -3.137  25.344  1.00  0.00     0.108 A 
HETATM   20  N3  UNL     1      43.882  -4.021  26.343  1.00  0.00    -0.351 N 
HETATM   21  C12 UNL     1      43.850  -3.537  27.608  1.00  0.00     0.106 A 
ATOM     22  H3  UNL     1      43.881  -5.024  26.161  1.00  0.00     0.166 HD
HETATM   23  N4  UNL     1      43.809  -4.328  28.622  1.00  0.00    -0.385 N 
ATOM     24  H42 UNL     1      43.784  -3.963  29.575  1.00  0.00     0.157 HD
ATOM     25  H41 UNL     1      43.809  -5.328  28.427  1.00  0.00     0.157 HD
ENDBRANCH  14  15
ENDBRANCH   1  14
TORSDOF 5
ENDMDL
MODEL 2
REMARK VINA RESULT: -6.703046347      0.578      1.241
REMARK  5 active torsions:
REMARK  status: ('A' for Active; 'I' for Inactive)
REMARK    1  A    between atoms: C5_5  and  N1_6 
REMARK    2  A    between atoms: N1_6  and  C6_8 
REMARK    3  A    between atoms: C6_8  and  N2_10 
REMARK    4  A    between atoms: N2_10  and  C7_12 
REMARK    5  A    between atoms: C7_12  and  C8_13 
ROOT
HETATM    1  N2  UNL     1      42.844  -0.874  29.386  1.00  0.00    -0.363 N 
ATOM      2  H2  UNL     1      42.707  -0.197  28.635  1.00  0.00     0.162 HD
ENDROOT
BRANCH   1   3
HETATM    3  C6  UNL     1      42.264  -0.602  30.658  1.00  0.00     0.168 C 
HETATM    4  S1  UNL     1      40.769  -1.218  31.007  1.00  0.00    -0.041 SA
BRANCH   3   5
HETATM    5  N1  UNL     1      42.878   0.183  31.653  1.00  0.00    -0.363 N 
ATOM      6  H1  UNL     1      42.816   1.198  31.564  1.00  0.00     0.162 HD
BRANCH   5   7
HETATM    7  C5  UNL     1      43.586  -0.348  32.786  1.00  0.00     0.083 C 
HETATM    8  C4  UNL     1      42.937   0.048  34.100  1.00  0.00     0.025 C 
HETATM    9  C3  UNL     1      43.893  -0.386  35.218  1.00  0.00     0.006 C 
HETATM   10  C2  UNL     1      44.979   0.658  35.277  1.00  0.00    -0.019 C 
HETATM   11  C1  UNL     1      46.267   0.154  35.836  1.00  0.00     0.010 C 
HETATM   12  C14 UNL     1      45.187   1.213  33.903  1.00  0.00     0.006 C 
HETATM   13  C13 UNL     1      45.010   0.179  32.820  1.00  0.00     0.025 C 
ENDBRANCH   5   7
ENDBRANCH   3   5
ENDBRANCH   1   3
BRANCH   1  14
HETATM   14  C7  UNL     1      43.613  -2.053  29.109  1.00  0.00     0.164 C 
BRANCH  14  15
HETATM   15  C8  UNL     1      43.711  -2.394  27.669  1.00  0.00     0.004 A 
HETATM   16  C9  UNL     1      43.800  -1.431  26.707  1.00  0.00     0.033 A 
HETATM   17  C10 UNL     1      43.876  -1.824  25.379  1.00  0.00     0.027 A 
HETATM   18 BR1  UNL     1      43.999  -0.484  24.055  1.00  0.00    -0.050 Br
HETATM   19  C11 UNL     1      43.857  -3.163  25.069  1.00  0.00     0.108 A 
HETATM   20  N3  UNL     1      43.769  -4.123  25.991  1.00  0.00    -0.351 N 
HETATM   21  C12 UNL     1      43.697  -3.742  27.289  1.00  0.00     0.106 A 
ATOM     22  H3  UNL     1      43.756  -5.108  25.728  1.00  0.00     0.166 HD
HETATM   23  N4  UNL     1      43.602  -4.611  28.234  1.00  0.00    -0.385 N 
ATOM     24  H42 UNL     1      43.547  -4.324  29.212  1.00  0.00     0.157 HD
ATOM     25  H41 UNL     1      43.591  -5.592  27.958  1.00  0.00     0.157 HD
ENDBRANCH  14  15
ENDBRANCH   1  14
TORSDOF 5
ENDMDL
MODEL 3
REMARK VINA RESULT: -6.554114204      3.891      4.981
REMARK  5 active torsions:
REMARK  status: ('A' for Active; 'I' for Inactive)
REMARK    1  A    between atoms: C5_5  and  N1_6 
REMARK    2  A    between atoms: N1_6  and  C6_8 
REMARK    3  A    between atoms: C6_8  and  N2_10 
REMARK    4  A    between atoms: N2_10  and  C7_12 
REMARK    5  A    between atoms: C7_12  and  C8_13 
ROOT
HETATM    1  N2  UNL     1      42.907  -5.353  29.394  1.00  0.00    -0.363 N 
ATOM      2  H2  UNL     1      43.243  -6.155  28.861  1.00  0.00     0.162 HD
ENDROOT
BRANCH   1   3
HETATM    3  C6  UNL     1      41.565  -5.369  29.870  1.00  0.00     0.168 C 
HETATM    4  S1  UNL     1      41.123  -6.502  30.990  1.00  0.00    -0.041 SA
BRANCH   3   5
HETATM    5  N1  UNL     1      40.563  -4.481  29.433  1.00  0.00    -0.363 N 
ATOM      6  H1  UNL     1      40.349  -4.458  28.436  1.00  0.00     0.162 HD
BRANCH   5   7
HETATM    7  C5  UNL     1      39.821  -3.604  30.298  1.00  0.00     0.083 C 
HETATM    8  C4  UNL     1      38.667  -2.934  29.576  1.00  0.00     0.025 C 
HETATM    9  C3  UNL     1      38.099  -1.875  30.528  1.00  0.00     0.006 C 
HETATM   10  C2  UNL     1      39.024  -0.688  30.444  1.00  0.00    -0.019 C 
HETATM   11  C1  UNL     1      39.017   0.168  31.666  1.00  0.00     0.010 C 
HETATM   12  C14 UNL     1      40.409  -1.178  30.159  1.00  0.00     0.006 C 
HETATM   13  C13 UNL     1      40.714  -2.495  30.827  1.00  0.00     0.025 C 
ENDBRANCH   5   7
ENDBRANCH   3   5
ENDBRANCH   1   3
BRANCH   1  14
HETATM   14  C7  UNL     1      43.810  -4.263  29.626  1.00  0.00     0.164 C 
BRANCH  14  15
HETATM   15  C8  UNL     1      43.924  -3.311  28.495  1.00  0.00     0.004 A 
HETATM   16  C9  UNL     1      43.916  -3.733  27.197  1.00  0.00     0.033 A 
HETATM   17  C10 UNL     1      44.041  -2.787  26.192  1.00  0.00     0.027 A 
HETATM   18 BR1  UNL     1      44.029  -3.380  24.399  1.00  0.00    -0.050 Br
HETATM   19  C11 UNL     1      44.170  -1.460  26.524  1.00  0.00     0.108 A 
HETATM   20  N3  UNL     1      44.182  -1.023  27.784  1.00  0.00    -0.351 N 
HETATM   21  C12 UNL     1      44.059  -1.944  28.770  1.00  0.00     0.106 A 
ATOM     22  H3  UNL     1      44.280  -0.031  27.998  1.00  0.00     0.166 HD
HETATM   23  N4  UNL     1      44.070  -1.600  30.010  1.00  0.00    -0.385 N 
ATOM     24  H42 UNL     1      43.977  -2.294  30.752  1.00  0.00     0.157 HD
ATOM     25  H41 UNL     1      44.168  -0.605  30.210  1.00  0.00     0.157 HD
ENDBRANCH  14  15
ENDBRANCH   1  14
TORSDOF 5
ENDMDL
MODEL 4
REMARK VINA RESULT: -6.456341904      2.761      5.115
REMARK  5 active torsions:
REMARK  status: ('A' for Active; 'I' for Inactive)
REMARK    1  A    between atoms: C5_5  and  N1_6 
REMARK    2  A    between atoms: N1_6  and  C6_8 
REMARK    3  A    between atoms: C6_8  and  N2_10 
REMARK    4  A    between atoms: N2_10  and  C7_12 
REMARK    5  A    between atoms: C7_12  and  C8_13 
ROOT
HETATM    1  N2  UNL     1      42.835  -0.872  29.642  1.00  0.00    -0.363 N 
ATOM      2  H2  UNL     1      42.465  -0.230  28.941  1.00  0.00     0.162 HD
ENDROOT
BRANCH   1   3
HETATM    3  C6  UNL     1      42.231  -0.891  30.932  1.00  0.00     0.168 C 
HETATM    4  S1  UNL     1      43.040  -0.220  32.208  1.00  0.00    -0.041 SA
BRANCH   3   5
HETATM    5  N1  UNL     1      40.975  -1.467  31.205  1.00  0.00    -0.363 N 
ATOM      6  H1  UNL     1      40.821  -1.852  32.137  1.00  0.00     0.162 HD
BRANCH   5   7
HETATM    7  C5  UNL     1      39.895  -1.548  30.259  1.00  0.00     0.083 C 
HETATM    8  C4  UNL     1      38.540  -1.437  30.931  1.00  0.00     0.025 C 
HETATM    9  C3  UNL     1      37.485  -1.755  29.864  1.00  0.00     0.006 C 
HETATM   10  C2  UNL     1      37.454  -3.256  29.731  1.00  0.00    -0.019 C 
HETATM   11  C1  UNL     1      36.977  -3.732  28.400  1.00  0.00     0.010 C 
HETATM   12  C14 UNL     1      38.821  -3.792  30.017  1.00  0.00     0.006 C 
HETATM   13  C13 UNL     1      39.921  -2.882  29.533  1.00  0.00     0.025 C 
ENDBRANCH   5   7
ENDBRANCH   3   5
ENDBRANCH   1   3
BRANCH   1  14
HETATM   14  C7  UNL     1      43.939  -1.713  29.279  1.00  0.00     0.164 C 
BRANCH  14  15
HETATM   15  C8  UNL     1      43.923  -2.168  27.868  1.00  0.00     0.004 A 
HETATM   16  C9  UNL     1      43.946  -1.285  26.827  1.00  0.00     0.033 A 
HETATM   17  C10 UNL     1      43.916  -1.783  25.534  1.00  0.00     0.027 A 
HETATM   18 BR1  UNL     1      43.948  -0.553  24.102  1.00  0.00    -0.050 Br
HETATM   19  C11 UNL     1      43.861  -3.141  25.334  1.00  0.00     0.108 A 
HETATM   20  N3  UNL     1      43.836  -4.024  26.333  1.00  0.00    -0.351 N 
HETATM   21  C12 UNL     1      43.867  -3.541  27.598  1.00  0.00     0.106 A 
ATOM     22  H3  UNL     1      43.794  -5.027  26.151  1.00  0.00     0.166 HD
HETATM   23  N4  UNL     1      43.837  -4.331  28.614  1.00  0.00    -0.385 N 
ATOM     24  H42 UNL     1      43.861  -3.967  29.567  1.00  0.00     0.157 HD
ATOM     25  H41 UNL     1      43.796  -5.331  28.419  1.00  0.00     0.157 HD
ENDBRANCH  14  15
ENDBRANCH   1  14
TORSDOF 5
ENDMDL
MODEL 5
REMARK VINA RESULT: -6.428695058      4.537      6.565
REMARK  5 active torsions:
REMARK  status: ('A' for Active; 'I' for Inactive)
REMARK    1  A    between atoms: C5_5  and  N1_6 
REMARK    2  A    between atoms: N1_6  and  C6_8 
REMARK    3  A    between atoms: C6_8  and  N2_10 
REMARK    4  A    between atoms: N2_10  and  C7_12 
REMARK    5  A    between atoms: C7_12  and  C8_13 
ROOT
HETATM    1  N2  UNL     1      41.946  -4.968  29.134  1.00  0.00    -0.363 N 
ATOM      2  H2  UNL     1      41.394  -5.113  28.288  1.00  0.00     0.162 HD
ENDROOT
BRANCH   1   3
HETATM    3  C6  UNL     1      42.296  -6.105  29.918  1.00  0.00     0.168 C 
HETATM    4  S1  UNL     1      41.131  -6.840  30.833  1.00  0.00    -0.041 SA
BRANCH   3   5
HETATM    5  N1  UNL     1      43.594  -6.646  29.984  1.00  0.00    -0.363 N 
ATOM      6  H1  UNL     1      44.238  -6.433  29.222  1.00  0.00     0.162 HD
BRANCH   5   7
HETATM    7  C5  UNL     1      44.073  -7.481  31.053  1.00  0.00     0.083 C 
HETATM    8  C4  UNL     1      45.390  -6.982  31.618  1.00  0.00     0.025 C 
HETATM    9  C3  UNL     1      45.899  -8.060  32.583  1.00  0.00     0.006 C 
HETATM   10  C2  UNL     1      46.512  -9.139  31.729  1.00  0.00    -0.019 C 
HETATM   11  C1  UNL     1      46.518 -10.485  32.372  1.00  0.00     0.010 C 
HETATM   12  C14 UNL     1      45.786  -9.189  30.422  1.00  0.00     0.006 C 
HETATM   13  C13 UNL     1      44.313  -8.896  30.558  1.00  0.00     0.025 C 
ENDBRANCH   5   7
ENDBRANCH   3   5
ENDBRANCH   1   3
BRANCH   1  14
HETATM   14  C7  UNL     1      42.331  -3.630  29.474  1.00  0.00     0.164 C 
BRANCH  14  15
HETATM   15  C8  UNL     1      42.912  -2.856  28.351  1.00  0.00     0.004 A 
HETATM   16  C9  UNL     1      43.235  -3.445  27.163  1.00  0.00     0.033 A 
HETATM   17  C10 UNL     1      43.787  -2.661  26.162  1.00  0.00     0.027 A 
HETATM   18 BR1  UNL     1      44.230  -3.486  24.523  1.00  0.00    -0.050 Br
HETATM   19  C11 UNL     1      43.996  -1.322  26.390  1.00  0.00     0.108 A 
HETATM   20  N3  UNL     1      43.691  -0.723  27.542  1.00  0.00    -0.351 N 
HETATM   21  C12 UNL     1      43.149  -1.486  28.522  1.00  0.00     0.106 A 
ATOM     22  H3  UNL     1      43.859   0.273  27.680  1.00  0.00     0.166 HD
HETATM   23  N4  UNL     1      42.836  -0.981  29.663  1.00  0.00    -0.385 N 
ATOM     24  H42 UNL     1      42.429  -1.555  30.402  1.00  0.00     0.157 HD
ATOM     25  H41 UNL     1      43.009   0.017  29.788  1.00  0.00     0.157 HD
ENDBRANCH  14  15
ENDBRANCH   1  14
TORSDOF 5
ENDMDL
