MODEL 1
REMARK VINA RESULT: -6.385488469      0.000      0.000
REMARK  5 active torsions:
REMARK  status: ('A' for Active; 'I' for Inactive)
REMARK    1  A    between atoms: C2_2  and  N1_5 
REMARK       I    between atoms: N1_5  and  C5_7 
REMARK       I    between atoms: C5_7  and  N2_9 
REMARK    2  A    between atoms: N2_9  and  C6_11 
REMARK    3  A    between atoms: C7_16  and  N5_17 
REMARK    4  A    between atoms: N5_17  and  C8_19 
REMARK    5  A    between atoms: C8_19  and  C9_20 
ROOT
HETATM    1  C6  UNL     1      42.369  -5.050  29.983  1.00  0.00     0.145 A 
HETATM    2  N3  UNL     1      42.188  -5.493  28.723  1.00  0.00    -0.283 N 
ATOM      3  H3  UNL     1      41.896  -6.433  28.455  1.00  0.00     0.188 HD
HETATM    4  N4  UNL     1      42.457  -4.495  27.893  1.00  0.00    -0.283 N 
ATOM      5  H4  UNL     1      42.404  -4.546  26.875  1.00  0.00     0.188 HD
HETATM    6  C7  UNL     1      42.815  -3.390  28.609  1.00  0.00     0.137 A 
HETATM    7  C14 UNL     1      42.761  -3.732  29.923  1.00  0.00     0.101 A 
HETATM    8 BR1  UNL     1      43.153  -2.612  31.419  1.00  0.00    -0.043 Br
ENDROOT
BRANCH   1   9
HETATM    9  N2  UNL     1      42.213  -5.707  31.102  1.00  0.00    -0.292 N 
HETATM   10  C5  UNL     1      43.274  -6.448  31.682  1.00  0.00     0.322 C 
HETATM   11  N1  UNL     1      43.851  -7.505  30.961  1.00  0.00    -0.335 N 
HETATM   12  O1  UNL     1      43.660  -6.125  32.832  1.00  0.00    -0.247 OA
ATOM     13  H1  UNL     1      43.487  -7.712  30.031  1.00  0.00     0.165 HD
ATOM     14  H2  UNL     1      41.307  -5.687  31.569  1.00  0.00     0.172 HD
BRANCH  11  15
HETATM   15  C2  UNL     1      44.941  -8.320  31.472  1.00  0.00     0.023 C 
HETATM   16  C1  UNL     1      45.258  -9.330  30.366  1.00  0.00     0.037 C 
HETATM   17  C3  UNL     1      46.181  -7.527  31.752  1.00  0.00     0.037 C 
HETATM   18  C4  UNL     1      44.478  -9.130  32.660  1.00  0.00     0.037 C 
ENDBRANCH  11  15
ENDBRANCH   1   9
BRANCH   6  19
HETATM   19  N5  UNL     1      43.167  -2.146  28.057  1.00  0.00    -0.373 N 
ATOM     20  H5  UNL     1      42.430  -1.474  27.844  1.00  0.00     0.161 HD
BRANCH  19  21
HETATM   21  C8  UNL     1      44.518  -1.795  27.786  1.00  0.00     0.129 C 
BRANCH  21  22
HETATM   22  C9  UNL     1      44.847  -1.695  26.335  1.00  0.00     0.026 C 
HETATM   23  C10 UNL     1      44.485  -2.992  25.689  1.00  0.00    -0.024 C 
HETATM   24  C11 UNL     1      43.984  -2.819  24.479  1.00  0.00    -0.030 C 
HETATM   25  C12 UNL     1      43.963  -1.370  24.196  1.00  0.00     0.027 C 
HETATM   26  C13 UNL     1      43.973  -0.730  25.561  1.00  0.00     0.014 C 
ENDBRANCH  21  22
ENDBRANCH  19  21
ENDBRANCH   6  19
TORSDOF 5
ENDMDL
MODEL 2
REMARK VINA RESULT: -6.315543929      4.177      5.559
REMARK  5 active torsions:
REMARK  status: ('A' for Active; 'I' for Inactive)
REMARK    1  A    between atoms: C2_2  and  N1_5 
REMARK       I    between atoms: N1_5  and  C5_7 
REMARK       I    between atoms: C5_7  and  N2_9 
REMARK    2  A    between atoms: N2_9  and  C6_11 
REMARK    3  A    between atoms: C7_16  and  N5_17 
REMARK    4  A    between atoms: N5_17  and  C8_19 
REMARK    5  A    between atoms: C8_19  and  C9_20 
ROOT
HETATM    1  C6  UNL     1      42.927  -1.663  31.555  1.00  0.00     0.145 A 
HETATM    2  N3  UNL     1      42.607  -0.394  31.232  1.00  0.00    -0.283 N 
ATOM      3  H3  UNL     1      42.381   0.352  31.889  1.00  0.00     0.188 HD
HETATM    4  N4  UNL     1      42.637  -0.286  29.910  1.00  0.00    -0.283 N 
ATOM      5  H4  UNL     1      42.435   0.566  29.385  1.00  0.00     0.188 HD
HETATM    6  C7  UNL     1      42.979  -1.488  29.362  1.00  0.00     0.137 A 
HETATM    7  C14 UNL     1      43.163  -2.357  30.390  1.00  0.00     0.101 A 
HETATM    8 BR1  UNL     1      43.655  -4.198  30.265  1.00  0.00    -0.043 Br
ENDROOT
BRANCH   1   9
HETATM    9  N2  UNL     1      43.015  -2.197  32.745  1.00  0.00    -0.292 N 
HETATM   10  C5  UNL     1      42.954  -1.405  33.920  1.00  0.00     0.322 C 
HETATM   11  N1  UNL     1      43.916  -0.405  34.128  1.00  0.00    -0.335 N 
HETATM   12  O1  UNL     1      42.031  -1.635  34.739  1.00  0.00    -0.247 OA
ATOM     13  H1  UNL     1      44.639  -0.274  33.420  1.00  0.00     0.165 HD
ATOM     14  H2  UNL     1      43.132  -3.207  32.830  1.00  0.00     0.172 HD
BRANCH  11  15
HETATM   15  C2  UNL     1      43.935   0.455  35.300  1.00  0.00     0.023 C 
HETATM   16  C1  UNL     1      45.109   1.414  35.093  1.00  0.00     0.037 C 
HETATM   17  C3  UNL     1      42.685   1.268  35.448  1.00  0.00     0.037 C 
HETATM   18  C4  UNL     1      44.264  -0.350  36.535  1.00  0.00     0.037 C 
ENDBRANCH  11  15
ENDBRANCH   1   9
BRANCH   6  19
HETATM   19  N5  UNL     1      43.108  -1.742  27.986  1.00  0.00    -0.373 N 
ATOM     20  H5  UNL     1      42.428  -2.350  27.530  1.00  0.00     0.161 HD
BRANCH  19  21
HETATM   21  C8  UNL     1      44.157  -1.180  27.208  1.00  0.00     0.129 C 
BRANCH  21  22
HETATM   22  C9  UNL     1      44.693  -2.086  26.153  1.00  0.00     0.026 C 
HETATM   23  C10 UNL     1      44.297  -3.484  26.499  1.00  0.00    -0.024 C 
HETATM   24  C11 UNL     1      43.989  -4.191  25.427  1.00  0.00    -0.030 C 
HETATM   25  C12 UNL     1      44.152  -3.323  24.244  1.00  0.00     0.027 C 
HETATM   26  C13 UNL     1      44.036  -1.925  24.797  1.00  0.00     0.014 C 
ENDBRANCH  21  22
ENDBRANCH  19  21
ENDBRANCH   6  19
TORSDOF 5
ENDMDL
MODEL 3
REMARK VINA RESULT: -6.309547265      4.393      6.343
REMARK  5 active torsions:
REMARK  status: ('A' for Active; 'I' for Inactive)
REMARK    1  A    between atoms: C2_2  and  N1_5 
REMARK       I    between atoms: N1_5  and  C5_7 
REMARK       I    between atoms: C5_7  and  N2_9 
REMARK    2  A    between atoms: N2_9  and  C6_11 
REMARK    3  A    between atoms: C7_16  and  N5_17 
REMARK    4  A    between atoms: N5_17  and  C8_19 
REMARK    5  A    between atoms: C8_19  and  C9_20 
ROOT
HETATM    1  C6  UNL     1      40.858  -1.625  30.095  1.00  0.00     0.145 A 
HETATM    2  N3  UNL     1      41.213  -0.325  30.091  1.00  0.00    -0.283 N 
ATOM      3  H3  UNL     1      40.618   0.459  30.359  1.00  0.00     0.188 HD
HETATM    4  N4  UNL     1      42.471  -0.244  29.679  1.00  0.00    -0.283 N 
ATOM      5  H4  UNL     1      43.002   0.622  29.578  1.00  0.00     0.188 HD
HETATM    6  C7  UNL     1      42.945  -1.495  29.410  1.00  0.00     0.137 A 
HETATM    7  C14 UNL     1      41.936  -2.367  29.671  1.00  0.00     0.101 A 
HETATM    8 BR1  UNL     1      41.984  -4.268  29.487  1.00  0.00    -0.043 Br
ENDROOT
BRANCH   1   9
HETATM    9  N2  UNL     1      39.708  -2.149  30.433  1.00  0.00    -0.292 N 
HETATM   10  C5  UNL     1      38.727  -1.398  31.129  1.00  0.00     0.322 C 
HETATM   11  N1  UNL     1      39.033  -0.868  32.392  1.00  0.00    -0.335 N 
HETATM   12  O1  UNL     1      37.609  -1.236  30.581  1.00  0.00    -0.247 OA
ATOM     13  H1  UNL     1      39.961  -1.039  32.777  1.00  0.00     0.165 HD
ATOM     14  H2  UNL     1      39.513  -3.120  30.190  1.00  0.00     0.172 HD
BRANCH  11  15
HETATM   15  C2  UNL     1      38.093  -0.087  33.180  1.00  0.00     0.023 C 
HETATM   16  C1  UNL     1      38.814   0.230  34.492  1.00  0.00     0.037 C 
HETATM   17  C3  UNL     1      37.718   1.208  32.526  1.00  0.00     0.037 C 
HETATM   18  C4  UNL     1      36.895  -0.928  33.552  1.00  0.00     0.037 C 
ENDBRANCH  11  15
ENDBRANCH   1   9
BRANCH   6  19
HETATM   19  N5  UNL     1      44.241  -1.789  28.953  1.00  0.00    -0.373 N 
ATOM     20  H5  UNL     1      44.923  -2.166  29.610  1.00  0.00     0.161 HD
BRANCH  19  21
HETATM   21  C8  UNL     1      44.631  -1.578  27.602  1.00  0.00     0.129 C 
BRANCH  21  22
HETATM   22  C9  UNL     1      43.818  -2.329  26.603  1.00  0.00     0.026 C 
HETATM   23  C10 UNL     1      44.064  -1.725  25.260  1.00  0.00    -0.024 C 
HETATM   24  C11 UNL     1      44.103  -2.638  24.306  1.00  0.00    -0.030 C 
HETATM   25  C12 UNL     1      43.884  -3.959  24.928  1.00  0.00     0.027 C 
HETATM   26  C13 UNL     1      44.277  -3.755  26.369  1.00  0.00     0.014 C 
ENDBRANCH  21  22
ENDBRANCH  19  21
ENDBRANCH   6  19
TORSDOF 5
ENDMDL
MODEL 4
REMARK VINA RESULT: -6.272923432      4.139      5.599
REMARK  5 active torsions:
REMARK  status: ('A' for Active; 'I' for Inactive)
REMARK    1  A    between atoms: C2_2  and  N1_5 
REMARK       I    between atoms: N1_5  and  C5_7 
REMARK       I    between atoms: C5_7  and  N2_9 
REMARK    2  A    between atoms: N2_9  and  C6_11 
REMARK    3  A    between atoms: C7_16  and  N5_17 
REMARK    4  A    between atoms: N5_17  and  C8_19 
REMARK    5  A    between atoms: C8_19  and  C9_20 
ROOT
HETATM    1  C6  UNL     1      42.114  -1.248  31.141  1.00  0.00     0.145 A 
HETATM    2  N3  UNL     1      42.403  -0.185  30.365  1.00  0.00    -0.283 N 
ATOM      3  H3  UNL     1      42.396   0.792  30.660  1.00  0.00     0.188 HD
HETATM    4  N4  UNL     1      42.698  -0.630  29.151  1.00  0.00    -0.283 N 
ATOM      5  H4  UNL     1      42.956  -0.045  28.357  1.00  0.00     0.188 HD
HETATM    6  C7  UNL     1      42.604  -1.992  29.129  1.00  0.00     0.137 A 
HETATM    7  C14 UNL     1      42.238  -2.385  30.377  1.00  0.00     0.101 A 
HETATM    8 BR1  UNL     1      41.943  -4.174  30.978  1.00  0.00    -0.043 Br
ENDROOT
BRANCH   1   9
HETATM    9  N2  UNL     1      41.772  -1.259  32.404  1.00  0.00    -0.292 N 
HETATM   10  C5  UNL     1      42.283  -0.304  33.319  1.00  0.00     0.322 C 
HETATM   11  N1  UNL     1      43.668  -0.227  33.534  1.00  0.00    -0.335 N 
HETATM   12  O1  UNL     1      41.466   0.444  33.909  1.00  0.00    -0.247 OA
ATOM     13  H1  UNL     1      44.273  -0.868  33.021  1.00  0.00     0.165 HD
ATOM     14  H2  UNL     1      41.124  -1.972  32.738  1.00  0.00     0.172 HD
BRANCH  11  15
HETATM   15  C2  UNL     1      44.283   0.717  34.452  1.00  0.00     0.023 C 
HETATM   16  C1  UNL     1      45.788   0.634  34.187  1.00  0.00     0.037 C 
HETATM   17  C3  UNL     1      43.843   2.130  34.217  1.00  0.00     0.037 C 
HETATM   18  C4  UNL     1      44.084   0.267  35.880  1.00  0.00     0.037 C 
ENDBRANCH  11  15
ENDBRANCH   1   9
BRANCH   6  19
HETATM   19  N5  UNL     1      42.848  -2.802  28.008  1.00  0.00    -0.373 N 
ATOM     20  H5  UNL     1      42.064  -3.074  27.414  1.00  0.00     0.161 HD
BRANCH  19  21
HETATM   21  C8  UNL     1      44.152  -3.256  27.673  1.00  0.00     0.129 C 
BRANCH  21  22
HETATM   22  C9  UNL     1      44.655  -2.766  26.358  1.00  0.00     0.026 C 
HETATM   23  C10 UNL     1      44.149  -3.687  25.297  1.00  0.00    -0.024 C 
HETATM   24  C11 UNL     1      43.825  -3.038  24.192  1.00  0.00    -0.030 C 
HETATM   25  C12 UNL     1      44.088  -1.603  24.411  1.00  0.00     0.027 C 
HETATM   26  C13 UNL     1      44.054  -1.448  25.911  1.00  0.00     0.014 C 
ENDBRANCH  21  22
ENDBRANCH  19  21
ENDBRANCH   6  19
TORSDOF 5
ENDMDL
MODEL 5
REMARK VINA RESULT: -6.147810197      6.644      8.966
REMARK  5 active torsions:
REMARK  status: ('A' for Active; 'I' for Inactive)
REMARK    1  A    between atoms: C2_2  and  N1_5 
REMARK       I    between atoms: N1_5  and  C5_7 
REMARK       I    between atoms: C5_7  and  N2_9 
REMARK    2  A    between atoms: N2_9  and  C6_11 
REMARK    3  A    between atoms: C7_16  and  N5_17 
REMARK    4  A    between atoms: N5_17  and  C8_19 
REMARK    5  A    between atoms: C8_19  and  C9_20 
ROOT
HETATM    1  C6  UNL     1      43.966   0.473  33.339  1.00  0.00     0.145 A 
HETATM    2  N3  UNL     1      45.132   0.661  32.690  1.00  0.00    -0.283 N 
ATOM      3  H3  UNL     1      45.271   0.611  31.681  1.00  0.00     0.188 HD
HETATM    4  N4  UNL     1      46.068   0.921  33.593  1.00  0.00    -0.283 N 
ATOM      5  H4  UNL     1      47.050   1.104  33.386  1.00  0.00     0.188 HD
HETATM    6  C7  UNL     1      45.515   0.905  34.841  1.00  0.00     0.137 A 
HETATM    7  C14 UNL     1      44.194   0.625  34.687  1.00  0.00     0.101 A 
HETATM    8 BR1  UNL     1      42.885   0.466  36.069  1.00  0.00    -0.043 Br
ENDROOT
BRANCH   1   9
HETATM    9  N2  UNL     1      42.793   0.196  32.831  1.00  0.00    -0.292 N 
HETATM   10  C5  UNL     1      42.588  -0.948  32.018  1.00  0.00     0.322 C 
HETATM   11  N1  UNL     1      43.310  -1.081  30.822  1.00  0.00    -0.335 N 
HETATM   12  O1  UNL     1      41.757  -1.805  32.405  1.00  0.00    -0.247 OA
ATOM     13  H1  UNL     1      43.968  -0.344  30.569  1.00  0.00     0.165 HD
ATOM     14  H2  UNL     1      42.008   0.818  33.024  1.00  0.00     0.172 HD
BRANCH  11  15
HETATM   15  C2  UNL     1      43.167  -2.216  29.925  1.00  0.00     0.023 C 
HETATM   16  C1  UNL     1      44.142  -1.961  28.773  1.00  0.00     0.037 C 
HETATM   17  C3  UNL     1      43.532  -3.519  30.569  1.00  0.00     0.037 C 
HETATM   18  C4  UNL     1      41.787  -2.229  29.311  1.00  0.00     0.037 C 
ENDBRANCH  11  15
ENDBRANCH   1   9
BRANCH   6  19
HETATM   19  N5  UNL     1      46.211   1.140  36.038  1.00  0.00    -0.373 N 
ATOM     20  H5  UNL     1      46.266   2.092  36.400  1.00  0.00     0.161 HD
BRANCH  19  21
HETATM   21  C8  UNL     1      46.843   0.093  36.763  1.00  0.00     0.129 C 
BRANCH  21  22
HETATM   22  C9  UNL     1      48.330   0.082  36.657  1.00  0.00     0.026 C 
HETATM   23  C10 UNL     1      48.891   0.152  38.040  1.00  0.00    -0.024 C 
HETATM   24  C11 UNL     1      49.976  -0.591  38.171  1.00  0.00    -0.030 C 
HETATM   25  C12 UNL     1      50.249  -1.236  36.871  1.00  0.00     0.027 C 
HETATM   26  C13 UNL     1      48.913  -1.230  36.172  1.00  0.00     0.014 C 
ENDBRANCH  21  22
ENDBRANCH  19  21
ENDBRANCH   6  19
TORSDOF 5
ENDMDL
