MODEL 1
REMARK VINA RESULT: -6.854588618      0.000      0.000
REMARK  3 active torsions:
REMARK  status: ('A' for Active; 'I' for Inactive)
REMARK    1  A    between atoms: C6_12  and  C7_13 
REMARK    2  A    between atoms: C7_13  and  N3_14 
REMARK       I    between atoms: N3_14  and  C8_16 
REMARK       I    between atoms: C8_16  and  N4_18 
REMARK    3  A    between atoms: N4_18  and  C9_20 
ROOT
HETATM    1  N3  UNL     1      42.851   0.074  31.068  1.00  0.00    -0.318 N 
ATOM      2  H3  UNL     1      43.139   0.892  30.532  1.00  0.00     0.170 HD
HETATM    3  C8  UNL     1      43.192  -0.050  32.489  1.00  0.00     0.320 C 
HETATM    4  O1  UNL     1      42.823  -1.068  33.122  1.00  0.00    -0.247 OA
HETATM    5  N4  UNL     1      43.923   0.950  33.150  1.00  0.00    -0.331 N 
ATOM      6  H4  UNL     1      44.223   1.778  32.636  1.00  0.00     0.165 HD
ENDROOT
BRANCH   1   7
HETATM    7  C7  UNL     1      42.110  -0.973  30.456  1.00  0.00     0.108 C 
BRANCH   7   8
HETATM    8  C6  UNL     1      42.711  -1.926  29.573  1.00  0.00     0.030 A 
HETATM    9  C2  UNL     1      42.575  -3.276  29.979  1.00  0.00    -0.028 A 
HETATM   10  C1  UNL     1      41.856  -3.549  31.220  1.00  0.00     0.050 C 
HETATM   11  C3  UNL     1      43.094  -4.310  29.248  1.00  0.00     0.033 A 
HETATM   12 BR1  UNL     1      42.899  -6.130  29.811  1.00  0.00    -0.049 Br
HETATM   13  C4  UNL     1      43.768  -4.015  28.082  1.00  0.00     0.109 A 
HETATM   14  N1  UNL     1      43.913  -2.762  27.672  1.00  0.00    -0.351 N 
HETATM   15  C5  UNL     1      43.387  -1.705  28.413  1.00  0.00     0.111 A 
ATOM     16  H1  UNL     1      44.416  -2.570  26.806  1.00  0.00     0.166 HD
HETATM   17  N2  UNL     1      43.585  -0.604  27.939  1.00  0.00    -0.385 N 
ATOM     18  H22 UNL     1      44.092  -0.438  27.069  1.00  0.00     0.157 HD
ATOM     19  H21 UNL     1      43.201   0.170  28.482  1.00  0.00     0.157 HD
ENDBRANCH   7   8
ENDBRANCH   1   7
BRANCH   5  20
HETATM   20  C9  UNL     1      44.250   0.820  34.534  1.00  0.00     0.156 C 
HETATM   21  C10 UNL     1      43.835   2.015  35.359  1.00  0.00     0.033 C 
HETATM   22  C11 UNL     1      44.990   2.662  36.079  1.00  0.00     0.007 C 
HETATM   23  C12 UNL     1      45.831   1.709  36.861  1.00  0.00    -0.012 C 
HETATM   24  C13 UNL     1      45.236   1.314  38.184  1.00  0.00     0.010 C 
HETATM   25  C14 UNL     1      46.225   0.471  36.101  1.00  0.00     0.084 C 
HETATM   26  C15 UNL     1      45.696   0.593  34.732  1.00  0.00     0.149 C 
HETATM   27  O2  UNL     1      46.441   0.508  33.791  1.00  0.00    -0.296 OA
ENDBRANCH   5  20
TORSDOF 3
ENDMDL
MODEL 2
REMARK VINA RESULT: -6.785466779      4.298      5.456
REMARK  3 active torsions:
REMARK  status: ('A' for Active; 'I' for Inactive)
REMARK    1  A    between atoms: C6_12  and  C7_13 
REMARK    2  A    between atoms: C7_13  and  N3_14 
REMARK       I    between atoms: N3_14  and  C8_16 
REMARK       I    between atoms: C8_16  and  N4_18 
REMARK    3  A    between atoms: N4_18  and  C9_20 
ROOT
HETATM    1  N3  UNL     1      42.827  -2.343  30.106  1.00  0.00    -0.318 N 
ATOM      2  H3  UNL     1      42.606  -3.303  30.371  1.00  0.00     0.170 HD
HETATM    3  C8  UNL     1      42.110  -1.215  30.709  1.00  0.00     0.320 C 
HETATM    4  O1  UNL     1      42.405  -0.046  30.364  1.00  0.00    -0.247 OA
HETATM    5  N4  UNL     1      41.102  -1.422  31.663  1.00  0.00    -0.331 N 
ATOM      6  H4  UNL     1      40.862  -2.373  31.945  1.00  0.00     0.165 HD
ENDROOT
BRANCH   1   7
HETATM    7  C7  UNL     1      43.837  -2.068  29.145  1.00  0.00     0.108 C 
BRANCH   7   8
HETATM    8  C6  UNL     1      43.800  -2.601  27.817  1.00  0.00     0.030 A 
HETATM    9  C2  UNL     1      43.909  -1.634  26.788  1.00  0.00    -0.028 A 
HETATM   10  C1  UNL     1      44.043  -0.233  27.176  1.00  0.00     0.050 C 
HETATM   11  C3  UNL     1      43.889  -1.978  25.463  1.00  0.00     0.033 A 
HETATM   12 BR1  UNL     1      44.038  -0.657  24.084  1.00  0.00    -0.049 Br
HETATM   13  C4  UNL     1      43.759  -3.310  25.134  1.00  0.00     0.109 A 
HETATM   14  N1  UNL     1      43.656  -4.242  26.072  1.00  0.00    -0.351 N 
HETATM   15  C5  UNL     1      43.675  -3.898  27.423  1.00  0.00     0.111 A 
ATOM     16  H1  UNL     1      43.561  -5.221  25.802  1.00  0.00     0.166 HD
HETATM   17  N2  UNL     1      43.571  -4.836  28.188  1.00  0.00    -0.385 N 
ATOM     18  H22 UNL     1      43.477  -5.808  27.892  1.00  0.00     0.157 HD
ATOM     19  H21 UNL     1      43.584  -4.584  29.176  1.00  0.00     0.157 HD
ENDBRANCH   7   8
ENDBRANCH   1   7
BRANCH   5  20
HETATM   20  C9  UNL     1      40.409  -0.317  32.244  1.00  0.00     0.156 C 
HETATM   21  C10 UNL     1      40.196  -0.462  33.732  1.00  0.00     0.033 C 
HETATM   22  C11 UNL     1      38.742  -0.413  34.126  1.00  0.00     0.007 C 
HETATM   23  C12 UNL     1      38.000   0.755  33.569  1.00  0.00    -0.012 C 
HETATM   24  C13 UNL     1      38.238   2.041  34.310  1.00  0.00     0.010 C 
HETATM   25  C14 UNL     1      38.224   0.979  32.097  1.00  0.00     0.084 C 
HETATM   26  C15 UNL     1      39.097  -0.099  31.602  1.00  0.00     0.149 C 
HETATM   27  O2  UNL     1      38.737  -0.790  30.685  1.00  0.00    -0.296 OA
ENDBRANCH   5  20
TORSDOF 3
ENDMDL
MODEL 3
REMARK VINA RESULT: -6.710218977      1.355      1.526
REMARK  3 active torsions:
REMARK  status: ('A' for Active; 'I' for Inactive)
REMARK    1  A    between atoms: C6_12  and  C7_13 
REMARK    2  A    between atoms: C7_13  and  N3_14 
REMARK       I    between atoms: N3_14  and  C8_16 
REMARK       I    between atoms: C8_16  and  N4_18 
REMARK    3  A    between atoms: N4_18  and  C9_20 
ROOT
HETATM    1  N3  UNL     1      43.468   0.104  32.000  1.00  0.00    -0.318 N 
ATOM      2  H3  UNL     1      44.224   0.526  31.460  1.00  0.00     0.170 HD
HETATM    3  C8  UNL     1      43.253   0.473  33.403  1.00  0.00     0.320 C 
HETATM    4  O1  UNL     1      42.314  -0.061  34.040  1.00  0.00    -0.247 OA
HETATM    5  N4  UNL     1      44.078   1.411  34.042  1.00  0.00    -0.331 N 
ATOM      6  H4  UNL     1      44.842   1.847  33.524  1.00  0.00     0.165 HD
ENDROOT
BRANCH   1   7
HETATM    7  C7  UNL     1      42.599  -0.853  31.410  1.00  0.00     0.108 C 
BRANCH   7   8
HETATM    8  C6  UNL     1      43.061  -1.845  30.487  1.00  0.00     0.030 A 
HETATM    9  C2  UNL     1      43.277  -3.125  31.055  1.00  0.00    -0.028 A 
HETATM   10  C1  UNL     1      43.015  -3.294  32.481  1.00  0.00     0.050 C 
HETATM   11  C3  UNL     1      43.721  -4.184  30.310  1.00  0.00     0.033 A 
HETATM   12 BR1  UNL     1      44.008  -5.908  31.094  1.00  0.00    -0.049 Br
HETATM   13  C4  UNL     1      43.959  -3.986  28.967  1.00  0.00     0.109 A 
HETATM   14  N1  UNL     1      43.766  -2.802  28.402  1.00  0.00    -0.351 N 
HETATM   15  C5  UNL     1      43.315  -1.719  29.157  1.00  0.00     0.111 A 
ATOM     16  H1  UNL     1      43.949  -2.681  27.407  1.00  0.00     0.166 HD
HETATM   17  N2  UNL     1      43.178  -0.686  28.531  1.00  0.00    -0.385 N 
ATOM     18  H22 UNL     1      43.368  -0.592  27.534  1.00  0.00     0.157 HD
ATOM     19  H21 UNL     1      42.848   0.106  29.083  1.00  0.00     0.157 HD
ENDBRANCH   7   8
ENDBRANCH   1   7
BRANCH   5  20
HETATM   20  C9  UNL     1      43.861   1.763  35.409  1.00  0.00     0.156 C 
HETATM   21  C10 UNL     1      43.421   3.196  35.593  1.00  0.00     0.033 C 
HETATM   22  C11 UNL     1      44.348   3.986  36.480  1.00  0.00     0.007 C 
HETATM   23  C12 UNL     1      44.652   3.325  37.783  1.00  0.00    -0.012 C 
HETATM   24  C13 UNL     1      43.562   3.464  38.808  1.00  0.00     0.010 C 
HETATM   25  C14 UNL     1      45.041   1.875  37.661  1.00  0.00     0.084 C 
HETATM   26  C15 UNL     1      45.067   1.534  36.228  1.00  0.00     0.149 C 
HETATM   27  O2  UNL     1      46.066   1.074  35.739  1.00  0.00    -0.296 OA
ENDBRANCH   5  20
TORSDOF 3
ENDMDL
MODEL 4
REMARK VINA RESULT: -6.603297691      2.076      2.771
REMARK  3 active torsions:
REMARK  status: ('A' for Active; 'I' for Inactive)
REMARK    1  A    between atoms: C6_12  and  C7_13 
REMARK    2  A    between atoms: C7_13  and  N3_14 
REMARK       I    between atoms: N3_14  and  C8_16 
REMARK       I    between atoms: C8_16  and  N4_18 
REMARK    3  A    between atoms: N4_18  and  C9_20 
ROOT
HETATM    1  N3  UNL     1      43.849  -1.874  30.131  1.00  0.00    -0.318 N 
ATOM      2  H3  UNL     1      44.678  -2.461  30.229  1.00  0.00     0.170 HD
HETATM    3  C8  UNL     1      43.534  -0.850  31.133  1.00  0.00     0.320 C 
HETATM    4  O1  UNL     1      42.509  -0.143  30.985  1.00  0.00    -0.247 OA
HETATM    5  N4  UNL     1      44.360  -0.649  32.250  1.00  0.00    -0.331 N 
ATOM      6  H4  UNL     1      45.194  -1.224  32.371  1.00  0.00     0.165 HD
ENDROOT
BRANCH   1   7
HETATM    7  C7  UNL     1      42.973  -2.030  29.023  1.00  0.00     0.108 C 
BRANCH   7   8
HETATM    8  C6  UNL     1      43.423  -1.929  27.668  1.00  0.00     0.030 A 
HETATM    9  C2  UNL     1      43.427  -3.152  26.954  1.00  0.00    -0.028 A 
HETATM   10  C1  UNL     1      42.987  -4.355  27.654  1.00  0.00     0.050 C 
HETATM   11  C3  UNL     1      43.831  -3.229  25.648  1.00  0.00     0.033 A 
HETATM   12 BR1  UNL     1      43.830  -4.891  24.698  1.00  0.00    -0.049 Br
HETATM   13  C4  UNL     1      44.241  -2.073  25.020  1.00  0.00     0.109 A 
HETATM   14  N1  UNL     1      44.249  -0.910  25.658  1.00  0.00    -0.351 N 
HETATM   15  C5  UNL     1      43.840  -0.826  26.989  1.00  0.00     0.111 A 
ATOM     16  H1  UNL     1      44.557  -0.069  25.171  1.00  0.00     0.166 HD
HETATM   17  N2  UNL     1      43.892   0.290  27.466  1.00  0.00    -0.385 N 
ATOM     18  H22 UNL     1      44.204   1.117  26.957  1.00  0.00     0.157 HD
ATOM     19  H21 UNL     1      43.593   0.351  28.440  1.00  0.00     0.157 HD
ENDBRANCH   7   8
ENDBRANCH   1   7
BRANCH   5  20
HETATM   20  C9  UNL     1      44.044   0.350  33.220  1.00  0.00     0.156 C 
HETATM   21  C10 UNL     1      45.203   1.269  33.527  1.00  0.00     0.033 C 
HETATM   22  C11 UNL     1      45.586   1.266  34.985  1.00  0.00     0.007 C 
HETATM   23  C12 UNL     1      44.439   1.485  35.915  1.00  0.00    -0.012 C 
HETATM   24  C13 UNL     1      44.015   2.922  36.036  1.00  0.00     0.010 C 
HETATM   25  C14 UNL     1      43.235   0.633  35.616  1.00  0.00     0.084 C 
HETATM   26  C15 UNL     1      43.573  -0.248  34.485  1.00  0.00     0.149 C 
HETATM   27  O2  UNL     1      43.464  -1.441  34.599  1.00  0.00    -0.296 OA
ENDBRANCH   5  20
TORSDOF 3
ENDMDL
MODEL 5
REMARK VINA RESULT: -6.598882065      3.100      8.147
REMARK  3 active torsions:
REMARK  status: ('A' for Active; 'I' for Inactive)
REMARK    1  A    between atoms: C6_12  and  C7_13 
REMARK    2  A    between atoms: C7_13  and  N3_14 
REMARK       I    between atoms: N3_14  and  C8_16 
REMARK       I    between atoms: C8_16  and  N4_18 
REMARK    3  A    between atoms: N4_18  and  C9_20 
ROOT
HETATM    1  N3  UNL     1      43.740   0.863  33.710  1.00  0.00    -0.318 N 
ATOM      2  H3  UNL     1      42.799   0.932  34.098  1.00  0.00     0.170 HD
HETATM    3  C8  UNL     1      44.014   0.000  32.556  1.00  0.00     0.320 C 
HETATM    4  O1  UNL     1      45.181  -0.062  32.101  1.00  0.00    -0.247 OA
HETATM    5  N4  UNL     1      42.995  -0.754  31.955  1.00  0.00    -0.331 N 
ATOM      6  H4  UNL     1      42.045  -0.703  32.325  1.00  0.00     0.165 HD
ENDROOT
BRANCH   1   7
HETATM    7  C7  UNL     1      44.816   1.601  34.275  1.00  0.00     0.108 C 
BRANCH   7   8
HETATM    8  C6  UNL     1      44.824   2.022  35.643  1.00  0.00     0.030 A 
HETATM    9  C2  UNL     1      45.673   1.267  36.489  1.00  0.00    -0.028 A 
HETATM   10  C1  UNL     1      46.429   0.168  35.896  1.00  0.00     0.050 C 
HETATM   11  C3  UNL     1      45.794   1.539  37.825  1.00  0.00     0.033 A 
HETATM   12 BR1  UNL     1      46.948   0.508  38.954  1.00  0.00    -0.049 Br
HETATM   13  C4  UNL     1      45.064   2.583  38.350  1.00  0.00     0.109 A 
HETATM   14  N1  UNL     1      44.260   3.311  37.587  1.00  0.00    -0.351 N 
HETATM   15  C5  UNL     1      44.132   3.038  36.225  1.00  0.00     0.111 A 
ATOM     16  H1  UNL     1      43.731   4.078  38.000  1.00  0.00     0.166 HD
HETATM   17  N2  UNL     1      43.366   3.771  35.631  1.00  0.00    -0.385 N 
ATOM     18  H22 UNL     1      42.847   4.532  36.068  1.00  0.00     0.157 HD
ATOM     19  H21 UNL     1      43.272   3.571  34.635  1.00  0.00     0.157 HD
ENDBRANCH   7   8
ENDBRANCH   1   7
BRANCH   5  20
HETATM   20  C9  UNL     1      43.272  -1.592  30.832  1.00  0.00     0.156 C 
HETATM   21  C10 UNL     1      42.287  -1.416  29.700  1.00  0.00     0.033 C 
HETATM   22  C11 UNL     1      41.581  -2.696  29.332  1.00  0.00     0.007 C 
HETATM   23  C12 UNL     1      42.497  -3.851  29.100  1.00  0.00    -0.012 C 
HETATM   24  C13 UNL     1      43.166  -3.839  27.754  1.00  0.00     0.010 C 
HETATM   25  C14 UNL     1      43.537  -4.035  30.173  1.00  0.00     0.084 C 
HETATM   26  C15 UNL     1      43.301  -3.018  31.212  1.00  0.00     0.149 C 
HETATM   27  O2  UNL     1      43.133  -3.355  32.355  1.00  0.00    -0.296 OA
ENDBRANCH   5  20
TORSDOF 3
ENDMDL
