MODEL 1
REMARK VINA RESULT: -7.153556963      0.000      0.000
REMARK  7 active torsions:
REMARK  status: ('A' for Active; 'I' for Inactive)
REMARK       I    between atoms: C1_2  and  N1_3 
REMARK       I    between atoms: C1_2  and  N5_21 
REMARK    1  A    between atoms: N1_3  and  N2_5 
REMARK    2  A    between atoms: N2_5  and  C2_7 
REMARK    3  A    between atoms: C2_7  and  N3_9 
REMARK    4  A    between atoms: N3_9  and  C3_11 
REMARK    5  A    between atoms: C3_11  and  C4_12 
REMARK    6  A    between atoms: C4_12  and  N4_13 
REMARK    7  A    between atoms: N5_21  and  C11_23 
ROOT
HETATM    1  C2  UNL     1      43.745   0.100  33.416  1.00  0.00     0.186 C 
HETATM    2  S1  UNL     1      42.379  -0.265  34.263  1.00  0.00    -0.040 SA
ENDROOT
BRANCH   1   3
HETATM    3  N2  UNL     1      44.590   1.080  34.006  1.00  0.00    -0.272 N 
ATOM      4  H2  UNL     1      44.184   1.939  34.377  1.00  0.00     0.189 HD
BRANCH   3   5
HETATM    5  N1  UNL     1      45.990   0.874  34.083  1.00  0.00    -0.249 N 
HETATM    6  C1  UNL     1      46.448   0.029  35.132  1.00  0.00     0.335 C 
HETATM    7  O1  UNL     1      45.669  -0.508  35.947  1.00  0.00    -0.246 OA
HETATM    8  N5  UNL     1      47.874  -0.177  35.204  1.00  0.00    -0.337 N 
ATOM      9  H5  UNL     1      48.503   0.264  34.534  1.00  0.00     0.164 HD
ATOM     10  H1  UNL     1      46.635   1.309  33.423  1.00  0.00     0.192 HD
BRANCH   8  11
HETATM   11  C11 UNL     1      48.377  -1.021  36.243  1.00  0.00     0.086 C 
HETATM   12  C12 UNL     1      49.730  -1.551  35.750  1.00  0.00     0.025 C 
HETATM   13  C13 UNL     1      50.291  -2.117  37.037  1.00  0.00     0.002 C 
HETATM   14  C14 UNL     1      50.045  -0.939  37.985  1.00  0.00     0.002 C 
HETATM   15  C15 UNL     1      48.795  -0.269  37.476  1.00  0.00     0.025 C 
ENDBRANCH   8  11
ENDBRANCH   3   5
ENDBRANCH   1   3
BRANCH   1  16
HETATM   16  N3  UNL     1      44.061  -0.503  32.192  1.00  0.00    -0.364 N 
ATOM     17  H3  UNL     1      45.036  -0.481  31.891  1.00  0.00     0.162 HD
BRANCH  16  18
HETATM   18  C3  UNL     1      43.103  -1.155  31.324  1.00  0.00     0.152 C 
BRANCH  18  19
HETATM   19  C4  UNL     1      43.630  -2.456  30.793  1.00  0.00     0.292 C 
BRANCH  19  20
HETATM   20  N4  UNL     1      43.438  -2.625  29.372  1.00  0.00     0.092 N 
HETATM   21  C5  UNL     1      43.765  -3.912  28.856  1.00  0.00     0.272 C 
HETATM   22  C6  UNL     1      43.089  -4.192  27.531  1.00  0.00     0.030 C 
HETATM   23  C7  UNL     1      43.901  -3.773  26.356  1.00  0.00     0.004 C 
HETATM   24  C8  UNL     1      44.700  -2.530  26.552  1.00  0.00     0.039 C 
HETATM   25  C9  UNL     1      43.843  -1.496  27.235  1.00  0.00     0.198 C 
HETATM   26  F1  UNL     1      44.194  -0.244  26.785  1.00  0.00    -0.248 F 
HETATM   27  C10 UNL     1      44.159  -1.547  28.715  1.00  0.00     0.309 C 
ENDBRANCH  19  20
ENDBRANCH  18  19
ENDBRANCH  16  18
ENDBRANCH   1  16
TORSDOF 7
ENDMDL
MODEL 2
REMARK VINA RESULT: -6.914540224      1.250      1.707
REMARK  7 active torsions:
REMARK  status: ('A' for Active; 'I' for Inactive)
REMARK       I    between atoms: C1_2  and  N1_3 
REMARK       I    between atoms: C1_2  and  N5_21 
REMARK    1  A    between atoms: N1_3  and  N2_5 
REMARK    2  A    between atoms: N2_5  and  C2_7 
REMARK    3  A    between atoms: C2_7  and  N3_9 
REMARK    4  A    between atoms: N3_9  and  C3_11 
REMARK    5  A    between atoms: C3_11  and  C4_12 
REMARK    6  A    between atoms: C4_12  and  N4_13 
REMARK    7  A    between atoms: N5_21  and  C11_23 
ROOT
HETATM    1  C2  UNL     1      43.772   0.149  33.393  1.00  0.00     0.186 C 
HETATM    2  S1  UNL     1      42.338  -0.158  34.145  1.00  0.00    -0.040 SA
ENDROOT
BRANCH   1   3
HETATM    3  N2  UNL     1      44.601   1.118  34.023  1.00  0.00    -0.272 N 
ATOM      4  H2  UNL     1      44.184   1.966  34.407  1.00  0.00     0.189 HD
BRANCH   3   5
HETATM    5  N1  UNL     1      46.001   0.916  34.122  1.00  0.00    -0.249 N 
HETATM    6  C1  UNL     1      46.442   0.056  35.166  1.00  0.00     0.335 C 
HETATM    7  O1  UNL     1      45.651  -0.497  35.957  1.00  0.00    -0.246 OA
HETATM    8  N5  UNL     1      47.868  -0.146  35.260  1.00  0.00    -0.337 N 
ATOM      9  H5  UNL     1      48.508   0.308  34.609  1.00  0.00     0.164 HD
ATOM     10  H1  UNL     1      46.655   1.364  33.481  1.00  0.00     0.192 HD
BRANCH   8  11
HETATM   11  C11 UNL     1      48.356  -1.004  36.294  1.00  0.00     0.086 C 
HETATM   12  C12 UNL     1      49.685  -1.577  35.787  1.00  0.00     0.025 C 
HETATM   13  C13 UNL     1      50.243  -2.160  37.068  1.00  0.00     0.002 C 
HETATM   14  C14 UNL     1      50.044  -0.974  38.018  1.00  0.00     0.002 C 
HETATM   15  C15 UNL     1      48.811  -0.265  37.522  1.00  0.00     0.025 C 
ENDBRANCH   8  11
ENDBRANCH   3   5
ENDBRANCH   1   3
BRANCH   1  16
HETATM   16  N3  UNL     1      44.158  -0.490  32.208  1.00  0.00    -0.364 N 
ATOM     17  H3  UNL     1      45.025  -0.184  31.766  1.00  0.00     0.162 HD
BRANCH  16  18
HETATM   18  C3  UNL     1      43.414  -1.554  31.567  1.00  0.00     0.152 C 
BRANCH  18  19
HETATM   19  C4  UNL     1      42.972  -1.169  30.185  1.00  0.00     0.292 C 
BRANCH  19  20
HETATM   20  N4  UNL     1      43.669  -1.873  29.134  1.00  0.00     0.092 N 
HETATM   21  C5  UNL     1      43.719  -1.207  27.877  1.00  0.00     0.272 C 
HETATM   22  C6  UNL     1      44.846  -1.710  27.001  1.00  0.00     0.030 C 
HETATM   23  C7  UNL     1      44.448  -2.843  26.121  1.00  0.00     0.004 C 
HETATM   24  C8  UNL     1      43.471  -3.795  26.722  1.00  0.00     0.039 C 
HETATM   25  C9  UNL     1      43.889  -4.101  28.137  1.00  0.00     0.198 C 
HETATM   26  F1  UNL     1      43.553  -5.400  28.440  1.00  0.00    -0.248 F 
HETATM   27  C10 UNL     1      43.086  -3.202  29.053  1.00  0.00     0.309 C 
ENDBRANCH  19  20
ENDBRANCH  18  19
ENDBRANCH  16  18
ENDBRANCH   1  16
TORSDOF 7
ENDMDL
MODEL 3
REMARK VINA RESULT: -6.897792573      2.724      8.821
REMARK  7 active torsions:
REMARK  status: ('A' for Active; 'I' for Inactive)
REMARK       I    between atoms: C1_2  and  N1_3 
REMARK       I    between atoms: C1_2  and  N5_21 
REMARK    1  A    between atoms: N1_3  and  N2_5 
REMARK    2  A    between atoms: N2_5  and  C2_7 
REMARK    3  A    between atoms: C2_7  and  N3_9 
REMARK    4  A    between atoms: N3_9  and  C3_11 
REMARK    5  A    between atoms: C3_11  and  C4_12 
REMARK    6  A    between atoms: C4_12  and  N4_13 
REMARK    7  A    between atoms: N5_21  and  C11_23 
ROOT
HETATM    1  C2  UNL     1      43.347  -0.155  33.305  1.00  0.00     0.186 C 
HETATM    2  S1  UNL     1      42.134  -0.125  34.421  1.00  0.00    -0.040 SA
ENDROOT
BRANCH   1   3
HETATM    3  N2  UNL     1      43.254  -1.181  32.324  1.00  0.00    -0.272 N 
ATOM      4  H2  UNL     1      42.565  -1.925  32.436  1.00  0.00     0.189 HD
BRANCH   3   5
HETATM    5  N1  UNL     1      44.110  -1.181  31.195  1.00  0.00    -0.249 N 
HETATM    6  C1  UNL     1      43.537  -1.620  29.969  1.00  0.00     0.335 C 
HETATM    7  O1  UNL     1      42.348  -1.989  29.879  1.00  0.00    -0.246 OA
HETATM    8  N5  UNL     1      44.413  -1.615  28.822  1.00  0.00    -0.337 N 
ATOM      9  H5  UNL     1      45.383  -1.312  28.903  1.00  0.00     0.164 HD
ATOM     10  H1  UNL     1      45.083  -0.882  31.257  1.00  0.00     0.192 HD
BRANCH   8  11
HETATM   11  C11 UNL     1      43.879  -2.049  27.569  1.00  0.00     0.086 C 
HETATM   12  C12 UNL     1      44.874  -1.592  26.495  1.00  0.00     0.025 C 
HETATM   13  C13 UNL     1      44.386  -2.393  25.306  1.00  0.00     0.002 C 
HETATM   14  C14 UNL     1      44.276  -3.784  25.940  1.00  0.00     0.002 C 
HETATM   15  C15 UNL     1      43.919  -3.541  27.383  1.00  0.00     0.025 C 
ENDBRANCH   8  11
ENDBRANCH   3   5
ENDBRANCH   1   3
BRANCH   1  16
HETATM   16  N3  UNL     1      44.408   0.760  33.313  1.00  0.00    -0.364 N 
ATOM     17  H3  UNL     1      44.279   1.638  32.811  1.00  0.00     0.162 HD
BRANCH  16  18
HETATM   18  C3  UNL     1      45.673   0.546  33.985  1.00  0.00     0.152 C 
BRANCH  18  19
HETATM   19  C4  UNL     1      45.521   0.574  35.478  1.00  0.00     0.292 C 
BRANCH  19  20
HETATM   20  N4  UNL     1      46.564  -0.132  36.183  1.00  0.00     0.092 N 
HETATM   21  C5  UNL     1      47.047   0.502  37.363  1.00  0.00     0.272 C 
HETATM   22  C6  UNL     1      47.728  -0.469  38.303  1.00  0.00     0.030 C 
HETATM   23  C7  UNL     1      49.191  -0.599  38.057  1.00  0.00     0.004 C 
HETATM   24  C8  UNL     1      49.599  -0.515  36.625  1.00  0.00     0.039 C 
HETATM   25  C9  UNL     1      48.656  -1.348  35.795  1.00  0.00     0.198 C 
HETATM   26  F1  UNL     1      49.345  -1.897  34.738  1.00  0.00    -0.248 F 
HETATM   27  C10 UNL     1      47.614  -0.415  35.217  1.00  0.00     0.309 C 
ENDBRANCH  19  20
ENDBRANCH  18  19
ENDBRANCH  16  18
ENDBRANCH   1  16
TORSDOF 7
ENDMDL
MODEL 4
REMARK VINA RESULT: -6.670937909      3.576      9.459
REMARK  7 active torsions:
REMARK  status: ('A' for Active; 'I' for Inactive)
REMARK       I    between atoms: C1_2  and  N1_3 
REMARK       I    between atoms: C1_2  and  N5_21 
REMARK    1  A    between atoms: N1_3  and  N2_5 
REMARK    2  A    between atoms: N2_5  and  C2_7 
REMARK    3  A    between atoms: C2_7  and  N3_9 
REMARK    4  A    between atoms: N3_9  and  C3_11 
REMARK    5  A    between atoms: C3_11  and  C4_12 
REMARK    6  A    between atoms: C4_12  and  N4_13 
REMARK    7  A    between atoms: N5_21  and  C11_23 
ROOT
HETATM    1  C2  UNL     1      43.629  -0.445  32.834  1.00  0.00     0.186 C 
HETATM    2  S1  UNL     1      42.549  -0.574  34.072  1.00  0.00    -0.040 SA
ENDROOT
BRANCH   1   3
HETATM    3  N2  UNL     1      43.149  -0.845  31.556  1.00  0.00    -0.272 N 
ATOM      4  H2  UNL     1      42.144  -0.884  31.384  1.00  0.00     0.189 HD
BRANCH   3   5
HETATM    5  N1  UNL     1      44.053  -1.190  30.520  1.00  0.00    -0.249 N 
HETATM    6  C1  UNL     1      43.474  -1.594  29.285  1.00  0.00     0.335 C 
HETATM    7  O1  UNL     1      42.239  -1.645  29.110  1.00  0.00    -0.246 OA
HETATM    8  N5  UNL     1      44.399  -1.942  28.235  1.00  0.00    -0.337 N 
ATOM      9  H5  UNL     1      45.407  -1.896  28.385  1.00  0.00     0.164 HD
ATOM     10  H1  UNL     1      45.063  -1.151  30.653  1.00  0.00     0.192 HD
BRANCH   8  11
HETATM   11  C11 UNL     1      43.860  -2.353  26.976  1.00  0.00     0.086 C 
HETATM   12  C12 UNL     1      44.881  -1.931  25.912  1.00  0.00     0.025 C 
HETATM   13  C13 UNL     1      44.374  -2.711  24.717  1.00  0.00     0.002 C 
HETATM   14  C14 UNL     1      44.207  -4.098  25.346  1.00  0.00     0.002 C 
HETATM   15  C15 UNL     1      43.847  -3.845  26.787  1.00  0.00     0.025 C 
ENDBRANCH   8  11
ENDBRANCH   3   5
ENDBRANCH   1   3
BRANCH   1  16
HETATM   16  N3  UNL     1      44.937   0.022  33.014  1.00  0.00    -0.364 N 
ATOM     17  H3  UNL     1      45.663  -0.357  32.407  1.00  0.00     0.162 HD
BRANCH  16  18
HETATM   18  C3  UNL     1      45.330   1.005  34.004  1.00  0.00     0.152 C 
BRANCH  18  19
HETATM   19  C4  UNL     1      45.991   0.365  35.189  1.00  0.00     0.292 C 
BRANCH  19  20
HETATM   20  N4  UNL     1      45.994   1.193  36.372  1.00  0.00     0.092 N 
HETATM   21  C5  UNL     1      45.885   0.498  37.610  1.00  0.00     0.272 C 
HETATM   22  C6  UNL     1      46.393   1.315  38.778  1.00  0.00     0.030 C 
HETATM   23  C7  UNL     1      45.337   2.145  39.420  1.00  0.00     0.004 C 
HETATM   24  C8  UNL     1      44.322   2.708  38.484  1.00  0.00     0.039 C 
HETATM   25  C9  UNL     1      45.023   3.257  37.269  1.00  0.00     0.198 C 
HETATM   26  F1  UNL     1      44.338   4.356  36.806  1.00  0.00    -0.248 F 
HETATM   27  C10 UNL     1      44.959   2.198  36.189  1.00  0.00     0.309 C 
ENDBRANCH  19  20
ENDBRANCH  18  19
ENDBRANCH  16  18
ENDBRANCH   1  16
TORSDOF 7
ENDMDL
MODEL 5
REMARK VINA RESULT: -6.593241177      3.334      8.992
REMARK  7 active torsions:
REMARK  status: ('A' for Active; 'I' for Inactive)
REMARK       I    between atoms: C1_2  and  N1_3 
REMARK       I    between atoms: C1_2  and  N5_21 
REMARK    1  A    between atoms: N1_3  and  N2_5 
REMARK    2  A    between atoms: N2_5  and  C2_7 
REMARK    3  A    between atoms: C2_7  and  N3_9 
REMARK    4  A    between atoms: N3_9  and  C3_11 
REMARK    5  A    between atoms: C3_11  and  C4_12 
REMARK    6  A    between atoms: C4_12  and  N4_13 
REMARK    7  A    between atoms: N5_21  and  C11_23 
ROOT
HETATM    1  C2  UNL     1      43.609  -0.010  34.453  1.00  0.00     0.186 C 
HETATM    2  S1  UNL     1      42.755  -0.730  35.664  1.00  0.00    -0.040 SA
ENDROOT
BRANCH   1   3
HETATM    3  N2  UNL     1      43.109  -0.222  33.138  1.00  0.00    -0.272 N 
ATOM      4  H2  UNL     1      42.180   0.121  32.891  1.00  0.00     0.189 HD
BRANCH   3   5
HETATM    5  N1  UNL     1      43.887  -0.903  32.170  1.00  0.00    -0.249 N 
HETATM    6  C1  UNL     1      43.352  -0.956  30.853  1.00  0.00     0.335 C 
HETATM    7  O1  UNL     1      42.258  -0.434  30.553  1.00  0.00    -0.246 OA
HETATM    8  N5  UNL     1      44.150  -1.649  29.871  1.00  0.00    -0.337 N 
ATOM      9  H5  UNL     1      45.043  -2.072  30.123  1.00  0.00     0.164 HD
ATOM     10  H1  UNL     1      44.782  -1.333  32.404  1.00  0.00     0.192 HD
BRANCH   8  11
HETATM   11  C11 UNL     1      43.650  -1.725  28.534  1.00  0.00     0.086 C 
HETATM   12  C12 UNL     1      44.663  -0.983  27.652  1.00  0.00     0.025 C 
HETATM   13  C13 UNL     1      44.213  -1.431  26.277  1.00  0.00     0.002 C 
HETATM   14  C14 UNL     1      44.109  -2.943  26.501  1.00  0.00     0.002 C 
HETATM   15  C15 UNL     1      43.716  -3.108  27.946  1.00  0.00     0.025 C 
ENDBRANCH   8  11
ENDBRANCH   3   5
ENDBRANCH   1   3
BRANCH   1  16
HETATM   16  N3  UNL     1      44.757   0.758  34.687  1.00  0.00    -0.364 N 
ATOM     17  H3  UNL     1      44.648   1.771  34.734  1.00  0.00     0.162 HD
BRANCH  16  18
HETATM   18  C3  UNL     1      46.087   0.214  34.869  1.00  0.00     0.152 C 
BRANCH  18  19
HETATM   19  C4  UNL     1      46.469   0.154  36.319  1.00  0.00     0.292 C 
BRANCH  19  20
HETATM   20  N4  UNL     1      47.875  -0.092  36.541  1.00  0.00     0.092 N 
HETATM   21  C5  UNL     1      48.552  -0.778  35.493  1.00  0.00     0.272 C 
HETATM   22  C6  UNL     1      50.050  -0.560  35.533  1.00  0.00     0.030 C 
HETATM   23  C7  UNL     1      50.771  -1.576  36.347  1.00  0.00     0.004 C 
HETATM   24  C8  UNL     1      50.040  -2.049  37.557  1.00  0.00     0.039 C 
HETATM   25  C9  UNL     1      49.439  -0.862  38.264  1.00  0.00     0.198 C 
HETATM   26  F1  UNL     1      49.441  -1.090  39.620  1.00  0.00    -0.248 F 
HETATM   27  C10 UNL     1      47.993  -0.758  37.828  1.00  0.00     0.309 C 
ENDBRANCH  19  20
ENDBRANCH  18  19
ENDBRANCH  16  18
ENDBRANCH   1  16
TORSDOF 7
ENDMDL
