MODEL 1
REMARK VINA RESULT: -7.230231669      0.000      0.000
REMARK  5 active torsions:
REMARK  status: ('A' for Active; 'I' for Inactive)
REMARK    1  A    between atoms: C2_2  and  N1_4 
REMARK       I    between atoms: N1_4  and  C4_6 
REMARK    2  A    between atoms: C4_6  and  C5_8 
REMARK    3  A    between atoms: C5_8  and  N2_10 
REMARK    4  A    between atoms: N2_10  and  N3_11 
REMARK       I    between atoms: N3_11  and  C7_13 
REMARK       I    between atoms: C7_13  and  N4_15 
REMARK    5  A    between atoms: N4_15  and  C8_17 
ROOT
HETATM    1  N3  UNL     1      43.673  -0.846  31.380  1.00  0.00    -0.255 N 
ATOM      2  H3  UNL     1      43.945  -0.072  30.774  1.00  0.00     0.187 HD
HETATM    3  C7  UNL     1      43.740  -0.689  32.789  1.00  0.00     0.332 C 
HETATM    4  O2  UNL     1      43.407  -1.658  33.536  1.00  0.00    -0.246 OA
HETATM    5  N4  UNL     1      44.181   0.562  33.304  1.00  0.00    -0.333 N 
ATOM      6  H4  UNL     1      44.426   1.291  32.634  1.00  0.00     0.165 HD
ENDROOT
BRANCH   1   7
HETATM    7  N2  UNL     1      43.241  -2.037  30.816  1.00  0.00    -0.123 NA
BRANCH   7   8
HETATM    8  C5  UNL     1      42.642  -1.773  29.531  1.00  0.00     0.187 C 
HETATM    9  C6  UNL     1      41.555  -2.794  29.202  1.00  0.00     0.040 C 
BRANCH   8  10
HETATM   10  C4  UNL     1      43.687  -1.765  28.498  1.00  0.00     0.238 C 
HETATM   11  N1  UNL     1      43.500  -2.494  27.302  1.00  0.00    -0.356 N 
ATOM     12  H1  UNL     1      42.638  -3.023  27.167  1.00  0.00     0.162 HD
HETATM   13  O1  UNL     1      44.735  -1.122  28.662  1.00  0.00    -0.272 OA
BRANCH  11  14
HETATM   14  C2  UNL     1      44.512  -2.503  26.263  1.00  0.00     0.076 C 
HETATM   15  C1  UNL     1      44.360  -1.343  25.321  1.00  0.00     0.032 C 
HETATM   16  C3  UNL     1      44.353  -3.832  25.524  1.00  0.00     0.032 C 
ENDBRANCH  11  14
ENDBRANCH   8  10
ENDBRANCH   7   8
ENDBRANCH   1   7
BRANCH   5  17
HETATM   17  C8  UNL     1      44.305   0.870  34.706  1.00  0.00     0.038 C 
HETATM   18  C9  UNL     1      43.287   0.157  35.566  1.00  0.00     0.036 C 
HETATM   19  C10 UNL     1      43.546   0.459  37.005  1.00  0.00    -0.009 C 
HETATM   20  C11 UNL     1      43.289   1.946  37.231  1.00  0.00     0.009 C 
HETATM   21  C15 UNL     1      44.950   0.184  37.458  1.00  0.00     0.048 C 
HETATM   22  C12 UNL     1      44.181   2.723  36.317  1.00  0.00    -0.009 C 
HETATM   23  C13 UNL     1      45.616   2.430  36.747  1.00  0.00     0.048 C 
HETATM   24  C17 UNL     1      44.075   2.362  34.874  1.00  0.00     0.036 C 
HETATM   25  C14 UNL     1      45.905   0.963  36.577  1.00  0.00     0.106 C 
HETATM   26  F1  UNL     1      47.225   0.728  36.889  1.00  0.00    -0.243 F 
HETATM   27  C16 UNL     1      45.677   0.479  35.159  1.00  0.00     0.074 C 
ENDBRANCH   5  17
TORSDOF 5
ENDMDL
MODEL 2
REMARK VINA RESULT: -7.147027389      1.454      2.210
REMARK  5 active torsions:
REMARK  status: ('A' for Active; 'I' for Inactive)
REMARK    1  A    between atoms: C2_2  and  N1_4 
REMARK       I    between atoms: N1_4  and  C4_6 
REMARK    2  A    between atoms: C4_6  and  C5_8 
REMARK    3  A    between atoms: C5_8  and  N2_10 
REMARK    4  A    between atoms: N2_10  and  N3_11 
REMARK       I    between atoms: N3_11  and  C7_13 
REMARK       I    between atoms: C7_13  and  N4_15 
REMARK    5  A    between atoms: N4_15  and  C8_17 
ROOT
HETATM    1  N3  UNL     1      43.002  -0.894  32.227  1.00  0.00    -0.255 N 
ATOM      2  H3  UNL     1      42.522  -1.751  32.501  1.00  0.00     0.187 HD
HETATM    3  C7  UNL     1      43.631  -0.097  33.218  1.00  0.00     0.332 C 
HETATM    4  O2  UNL     1      44.220   0.972  32.870  1.00  0.00    -0.246 OA
HETATM    5  N4  UNL     1      43.574  -0.537  34.569  1.00  0.00    -0.333 N 
ATOM      6  H4  UNL     1      43.084  -1.410  34.763  1.00  0.00     0.165 HD
ENDROOT
BRANCH   1   7
HETATM    7  N2  UNL     1      43.031  -0.524  30.891  1.00  0.00    -0.123 NA
BRANCH   7   8
HETATM    8  C5  UNL     1      42.799  -1.684  30.064  1.00  0.00     0.187 C 
HETATM    9  C6  UNL     1      42.827  -2.970  30.887  1.00  0.00     0.040 C 
BRANCH   8  10
HETATM   10  C4  UNL     1      43.801  -1.725  28.990  1.00  0.00     0.238 C 
HETATM   11  N1  UNL     1      43.487  -2.341  27.758  1.00  0.00    -0.356 N 
ATOM     12  H1  UNL     1      42.565  -2.755  27.626  1.00  0.00     0.162 HD
HETATM   13  O1  UNL     1      44.924  -1.221  29.151  1.00  0.00    -0.272 OA
BRANCH  11  14
HETATM   14  C2  UNL     1      44.454  -2.394  26.678  1.00  0.00     0.076 C 
HETATM   15  C1  UNL     1      44.268  -1.268  25.702  1.00  0.00     0.032 C 
HETATM   16  C3  UNL     1      44.258  -3.748  25.996  1.00  0.00     0.032 C 
ENDBRANCH  11  14
ENDBRANCH   8  10
ENDBRANCH   7   8
ENDBRANCH   1   7
BRANCH   5  17
HETATM   17  C8  UNL     1      44.160   0.165  35.682  1.00  0.00     0.038 C 
HETATM   18  C9  UNL     1      45.656   0.339  35.557  1.00  0.00     0.036 C 
HETATM   19  C10 UNL     1      46.164   1.153  36.702  1.00  0.00    -0.009 C 
HETATM   20  C11 UNL     1      45.961   0.350  37.982  1.00  0.00     0.009 C 
HETATM   21  C15 UNL     1      45.463   2.466  36.893  1.00  0.00     0.048 C 
HETATM   22  C12 UNL     1      44.507   0.031  38.113  1.00  0.00    -0.009 C 
HETATM   23  C13 UNL     1      43.776   1.361  38.280  1.00  0.00     0.048 C 
HETATM   24  C17 UNL     1      43.902  -0.655  36.935  1.00  0.00     0.036 C 
HETATM   25  C14 UNL     1      43.979   2.206  37.051  1.00  0.00     0.106 C 
HETATM   26  F1  UNL     1      43.249   3.365  37.180  1.00  0.00    -0.243 F 
HETATM   27  C16 UNL     1      43.524   1.517  35.780  1.00  0.00     0.074 C 
ENDBRANCH   5  17
TORSDOF 5
ENDMDL
MODEL 3
REMARK VINA RESULT: -7.003606060      1.352      1.906
REMARK  5 active torsions:
REMARK  status: ('A' for Active; 'I' for Inactive)
REMARK    1  A    between atoms: C2_2  and  N1_4 
REMARK       I    between atoms: N1_4  and  C4_6 
REMARK    2  A    between atoms: C4_6  and  C5_8 
REMARK    3  A    between atoms: C5_8  and  N2_10 
REMARK    4  A    between atoms: N2_10  and  N3_11 
REMARK       I    between atoms: N3_11  and  C7_13 
REMARK       I    between atoms: C7_13  and  N4_15 
REMARK    5  A    between atoms: N4_15  and  C8_17 
ROOT
HETATM    1  N3  UNL     1      43.014  -0.913  32.211  1.00  0.00    -0.255 N 
ATOM      2  H3  UNL     1      42.534  -1.774  32.472  1.00  0.00     0.187 HD
HETATM    3  C7  UNL     1      43.634  -0.125  33.215  1.00  0.00     0.332 C 
HETATM    4  O2  UNL     1      44.223   0.948  32.883  1.00  0.00    -0.246 OA
HETATM    5  N4  UNL     1      43.570  -0.581  34.561  1.00  0.00    -0.333 N 
ATOM      6  H4  UNL     1      43.081  -1.458  34.742  1.00  0.00     0.165 HD
ENDROOT
BRANCH   1   7
HETATM    7  N2  UNL     1      43.051  -0.528  30.879  1.00  0.00    -0.123 NA
BRANCH   7   8
HETATM    8  C5  UNL     1      42.809  -1.675  30.038  1.00  0.00     0.187 C 
HETATM    9  C6  UNL     1      42.826  -2.971  30.845  1.00  0.00     0.040 C 
BRANCH   8  10
HETATM   10  C4  UNL     1      43.809  -1.711  28.963  1.00  0.00     0.238 C 
HETATM   11  N1  UNL     1      43.504  -2.346  27.738  1.00  0.00    -0.356 N 
ATOM     12  H1  UNL     1      42.589  -2.778  27.613  1.00  0.00     0.162 HD
HETATM   13  O1  UNL     1      44.923  -1.186  29.116  1.00  0.00    -0.272 OA
BRANCH  11  14
HETATM   14  C2  UNL     1      44.470  -2.395  26.657  1.00  0.00     0.076 C 
HETATM   15  C1  UNL     1      44.280  -1.268  25.683  1.00  0.00     0.032 C 
HETATM   16  C3  UNL     1      44.277  -3.748  25.973  1.00  0.00     0.032 C 
ENDBRANCH  11  14
ENDBRANCH   8  10
ENDBRANCH   7   8
ENDBRANCH   1   7
BRANCH   5  17
HETATM   17  C8  UNL     1      44.147   0.109  35.686  1.00  0.00     0.038 C 
HETATM   18  C9  UNL     1      43.617   1.513  35.861  1.00  0.00     0.036 C 
HETATM   19  C10 UNL     1      44.197   2.118  37.097  1.00  0.00    -0.009 C 
HETATM   20  C11 UNL     1      45.698   2.282  36.886  1.00  0.00     0.009 C 
HETATM   21  C15 UNL     1      44.017   1.294  38.338  1.00  0.00     0.048 C 
HETATM   22  C12 UNL     1      46.281   0.939  36.582  1.00  0.00    -0.009 C 
HETATM   23  C13 UNL     1      46.079   0.079  37.828  1.00  0.00     0.048 C 
HETATM   24  C17 UNL     1      45.644   0.216  35.445  1.00  0.00     0.036 C 
HETATM   25  C14 UNL     1      44.607  -0.080  38.099  1.00  0.00     0.106 C 
HETATM   26  F1  UNL     1      44.439  -0.924  39.173  1.00  0.00    -0.243 F 
HETATM   27  C16 UNL     1      43.854  -0.675  36.927  1.00  0.00     0.074 C 
ENDBRANCH   5  17
TORSDOF 5
ENDMDL
MODEL 4
REMARK VINA RESULT: -6.826223146      4.519      5.814
REMARK  5 active torsions:
REMARK  status: ('A' for Active; 'I' for Inactive)
REMARK    1  A    between atoms: C2_2  and  N1_4 
REMARK       I    between atoms: N1_4  and  C4_6 
REMARK    2  A    between atoms: C4_6  and  C5_8 
REMARK    3  A    between atoms: C5_8  and  N2_10 
REMARK    4  A    between atoms: N2_10  and  N3_11 
REMARK       I    between atoms: N3_11  and  C7_13 
REMARK       I    between atoms: C7_13  and  N4_15 
REMARK    5  A    between atoms: N4_15  and  C8_17 
ROOT
HETATM    1  N3  UNL     1      43.384  -0.831  28.985  1.00  0.00    -0.255 N 
ATOM      2  H3  UNL     1      43.024  -0.181  28.286  1.00  0.00     0.187 HD
HETATM    3  C7  UNL     1      42.599  -1.136  30.127  1.00  0.00     0.332 C 
HETATM    4  O2  UNL     1      43.057  -1.940  30.995  1.00  0.00    -0.246 OA
HETATM    5  N4  UNL     1      41.321  -0.523  30.246  1.00  0.00    -0.333 N 
ATOM      6  H4  UNL     1      41.026   0.108  29.501  1.00  0.00     0.165 HD
ENDROOT
BRANCH   1   7
HETATM    7  N2  UNL     1      44.634  -1.404  28.805  1.00  0.00    -0.123 NA
BRANCH   7   8
HETATM    8  C5  UNL     1      44.655  -2.135  27.562  1.00  0.00     0.187 C 
HETATM    9  C6  UNL     1      44.168  -1.274  26.400  1.00  0.00     0.040 C 
BRANCH   8  10
HETATM   10  C4  UNL     1      43.837  -3.348  27.697  1.00  0.00     0.238 C 
HETATM   11  N1  UNL     1      43.882  -4.098  28.894  1.00  0.00    -0.356 N 
ATOM     12  H1  UNL     1      44.486  -3.790  29.655  1.00  0.00     0.162 HD
HETATM   13  O1  UNL     1      43.102  -3.724  26.770  1.00  0.00    -0.272 OA
BRANCH  11  14
HETATM   14  C2  UNL     1      43.083  -5.298  29.058  1.00  0.00     0.076 C 
HETATM   15  C1  UNL     1      41.705  -4.990  29.567  1.00  0.00     0.032 C 
HETATM   16  C3  UNL     1      43.845  -6.185  30.042  1.00  0.00     0.032 C 
ENDBRANCH  11  14
ENDBRANCH   8  10
ENDBRANCH   7   8
ENDBRANCH   1   7
BRANCH   5  17
HETATM   17  C8  UNL     1      40.415  -0.732  31.347  1.00  0.00     0.038 C 
HETATM   18  C9  UNL     1      41.086  -0.646  32.698  1.00  0.00     0.036 C 
HETATM   19  C10 UNL     1      40.062  -0.781  33.776  1.00  0.00    -0.009 C 
HETATM   20  C11 UNL     1      39.483  -2.190  33.707  1.00  0.00     0.009 C 
HETATM   21  C15 UNL     1      38.908   0.172  33.665  1.00  0.00     0.048 C 
HETATM   22  C12 UNL     1      38.905  -2.396  32.344  1.00  0.00    -0.009 C 
HETATM   23  C13 UNL     1      37.745  -1.411  32.204  1.00  0.00     0.048 C 
HETATM   24  C17 UNL     1      39.840  -2.132  31.214  1.00  0.00     0.036 C 
HETATM   25  C14 UNL     1      38.265  -0.002  32.304  1.00  0.00     0.106 C 
HETATM   26  F1  UNL     1      37.224   0.874  32.094  1.00  0.00    -0.243 F 
HETATM   27  C16 UNL     1      39.337   0.304  31.278  1.00  0.00     0.074 C 
ENDBRANCH   5  17
TORSDOF 5
ENDMDL
MODEL 5
REMARK VINA RESULT: -6.804079186      3.045      8.185
REMARK  5 active torsions:
REMARK  status: ('A' for Active; 'I' for Inactive)
REMARK    1  A    between atoms: C2_2  and  N1_4 
REMARK       I    between atoms: N1_4  and  C4_6 
REMARK    2  A    between atoms: C4_6  and  C5_8 
REMARK    3  A    between atoms: C5_8  and  N2_10 
REMARK    4  A    between atoms: N2_10  and  N3_11 
REMARK       I    between atoms: N3_11  and  C7_13 
REMARK       I    between atoms: C7_13  and  N4_15 
REMARK    5  A    between atoms: N4_15  and  C8_17 
ROOT
HETATM    1  N3  UNL     1      43.973  -0.170  34.489  1.00  0.00    -0.255 N 
ATOM      2  H3  UNL     1      43.892  -0.828  35.265  1.00  0.00     0.187 HD
HETATM    3  C7  UNL     1      43.647  -0.594  33.175  1.00  0.00     0.332 C 
HETATM    4  O2  UNL     1      43.758   0.227  32.215  1.00  0.00    -0.246 OA
HETATM    5  N4  UNL     1      43.204  -1.934  32.993  1.00  0.00    -0.333 N 
ATOM      6  H4  UNL     1      43.139  -2.528  33.819  1.00  0.00     0.165 HD
ENDROOT
BRANCH   1   7
HETATM    7  N2  UNL     1      44.401   1.126  34.734  1.00  0.00    -0.123 NA
BRANCH   7   8
HETATM    8  C5  UNL     1      44.769   1.258  36.123  1.00  0.00     0.187 C 
HETATM    9  C6  UNL     1      45.334   2.645  36.420  1.00  0.00     0.040 C 
BRANCH   8  10
HETATM   10  C4  UNL     1      45.736   0.209  36.473  1.00  0.00     0.238 C 
HETATM   11  N1  UNL     1      47.120   0.448  36.318  1.00  0.00    -0.356 N 
ATOM     12  H1  UNL     1      47.436   1.349  35.960  1.00  0.00     0.162 HD
HETATM   13  O1  UNL     1      45.352  -0.888  36.908  1.00  0.00    -0.272 OA
BRANCH  11  14
HETATM   14  C2  UNL     1      48.099  -0.567  36.658  1.00  0.00     0.076 C 
HETATM   15  C1  UNL     1      48.864  -0.215  37.901  1.00  0.00     0.032 C 
HETATM   16  C3  UNL     1      49.034  -0.679  35.453  1.00  0.00     0.032 C 
ENDBRANCH  11  14
ENDBRANCH   8  10
ENDBRANCH   7   8
ENDBRANCH   1   7
BRANCH   5  17
HETATM   17  C8  UNL     1      42.841  -2.508  31.722  1.00  0.00     0.038 C 
HETATM   18  C9  UNL     1      41.421  -2.195  31.310  1.00  0.00     0.036 C 
HETATM   19  C10 UNL     1      41.162  -2.748  29.946  1.00  0.00    -0.009 C 
HETATM   20  C11 UNL     1      41.228  -4.270  30.031  1.00  0.00     0.009 C 
HETATM   21  C15 UNL     1      42.153  -2.325  28.903  1.00  0.00     0.048 C 
HETATM   22  C12 UNL     1      42.574  -4.655  30.554  1.00  0.00    -0.009 C 
HETATM   23  C13 UNL     1      43.597  -4.204  29.515  1.00  0.00     0.048 C 
HETATM   24  C17 UNL     1      42.955  -4.018  31.847  1.00  0.00     0.036 C 
HETATM   25  C14 UNL     1      43.543  -2.707  29.369  1.00  0.00     0.106 C 
HETATM   26  F1  UNL     1      44.525  -2.308  28.491  1.00  0.00    -0.243 F 
HETATM   27  C16 UNL     1      43.774  -1.980  30.678  1.00  0.00     0.074 C 
ENDBRANCH   5  17
TORSDOF 5
ENDMDL
