MODEL 1
REMARK VINA RESULT: -7.507284122      0.000      0.000
REMARK  5 active torsions:
REMARK  status: ('A' for Active; 'I' for Inactive)
REMARK    1  A    between atoms: C4_8  and  N3_9 
REMARK       I    between atoms: N3_9  and  C5_11 
REMARK       I    between atoms: C5_11  and  N4_13 
REMARK    2  A    between atoms: N4_13  and  C6_15 
REMARK    3  A    between atoms: C6_15  and  C7_16 
REMARK    4  A    between atoms: C7_16  and  C8_17 
REMARK       I    between atoms: C8_17  and  N5_19 
REMARK    5  A    between atoms: N5_19  and  N6_20 
ROOT
HETATM    1  N3  UNL     1      43.725  -2.258  29.909  1.00  0.00    -0.141 N 
ATOM      2  H3  UNL     1      43.936  -3.204  30.225  1.00  0.00     0.189 HD
HETATM    3  C5  UNL     1      43.299  -1.302  30.862  1.00  0.00     0.334 C 
HETATM    4  O1  UNL     1      42.902  -0.208  30.424  1.00  0.00    -0.247 OA
HETATM    5  N4  UNL     1      43.314  -1.531  32.282  1.00  0.00    -0.342 N 
ATOM      6  H4  UNL     1      43.655  -2.426  32.634  1.00  0.00     0.164 HD
ENDROOT
BRANCH   5   7
HETATM    7  C6  UNL     1      42.860  -0.535  33.228  1.00  0.00     0.135 C 
BRANCH   7   8
HETATM    8  C7  UNL     1      43.709  -0.479  34.435  1.00  0.00     0.140 C 
BRANCH   8   9
HETATM    9  C8  UNL     1      44.878   0.482  34.355  1.00  0.00     0.307 C 
HETATM   10  O2  UNL     1      45.449   0.621  33.253  1.00  0.00    -0.256 OA
HETATM   11  N5  UNL     1      45.284   1.160  35.487  1.00  0.00    -0.312 NA
BRANCH  11  12
HETATM   12  N6  UNL     1      45.681   1.816  36.571  1.00  0.00    -0.153 NA
HETATM   13  C9  UNL     1      46.248   0.847  37.538  1.00  0.00     0.129 C 
HETATM   14  C10 UNL     1      46.157   1.535  38.870  1.00  0.00     0.019 C 
HETATM   15  C11 UNL     1      45.448   2.847  38.618  1.00  0.00     0.029 C 
HETATM   16  C12 UNL     1      44.671   2.509  37.324  1.00  0.00     0.037 C 
HETATM   17  C13 UNL     1      43.547   1.604  37.783  1.00  0.00     0.035 C 
HETATM   18  C14 UNL     1      44.174   3.773  36.730  1.00  0.00     0.035 C 
ENDBRANCH  11  12
ENDBRANCH   8   9
ENDBRANCH   7   8
ENDBRANCH   5   7
BRANCH   1  19
HETATM   19  C4  UNL     1      43.868  -1.956  28.545  1.00  0.00     0.689 A 
HETATM   20  N1  UNL     1      43.854  -2.837  27.505  1.00  0.00    -0.175 N 
HETATM   21  C1  UNL     1      43.510  -4.258  27.623  1.00  0.00     0.176 C 
HETATM   22  C2  UNL     1      44.152  -2.261  26.373  1.00  0.00     0.137 A 
HETATM   23 CL1  UNL     1      44.261  -2.926  24.761  1.00  0.00    -0.062 Cl
HETATM   24  C3  UNL     1      44.373  -0.907  26.687  1.00  0.00     0.149 A 
HETATM   25  N2  UNL     1      44.188  -0.780  28.015  1.00  0.00    -0.198 N 
ATOM     26  H2  UNL     1      44.280   0.092  28.537  1.00  0.00     0.183 HD
ENDBRANCH   1  19
TORSDOF 5
ENDMDL
MODEL 2
REMARK VINA RESULT: -7.413304646      1.034      1.582
REMARK  5 active torsions:
REMARK  status: ('A' for Active; 'I' for Inactive)
REMARK    1  A    between atoms: C4_8  and  N3_9 
REMARK       I    between atoms: N3_9  and  C5_11 
REMARK       I    between atoms: C5_11  and  N4_13 
REMARK    2  A    between atoms: N4_13  and  C6_15 
REMARK    3  A    between atoms: C6_15  and  C7_16 
REMARK    4  A    between atoms: C7_16  and  C8_17 
REMARK       I    between atoms: C8_17  and  N5_19 
REMARK    5  A    between atoms: N5_19  and  N6_20 
ROOT
HETATM    1  N3  UNL     1      43.728  -2.252  30.042  1.00  0.00    -0.141 N 
ATOM      2  H3  UNL     1      43.964  -3.191  30.365  1.00  0.00     0.189 HD
HETATM    3  C5  UNL     1      43.279  -1.301  30.990  1.00  0.00     0.334 C 
HETATM    4  O1  UNL     1      42.854  -0.221  30.545  1.00  0.00    -0.247 OA
HETATM    5  N4  UNL     1      43.302  -1.520  32.411  1.00  0.00    -0.342 N 
ATOM      6  H4  UNL     1      43.666  -2.404  32.769  1.00  0.00     0.164 HD
ENDROOT
BRANCH   5   7
HETATM    7  C6  UNL     1      42.825  -0.529  33.352  1.00  0.00     0.135 C 
BRANCH   7   8
HETATM    8  C7  UNL     1      43.691  -0.422  34.543  1.00  0.00     0.140 C 
BRANCH   8   9
HETATM    9  C8  UNL     1      45.035   0.238  34.304  1.00  0.00     0.307 C 
HETATM   10  O2  UNL     1      45.302   0.621  33.146  1.00  0.00    -0.256 OA
HETATM   11  N5  UNL     1      45.919   0.384  35.353  1.00  0.00    -0.312 NA
BRANCH  11  12
HETATM   12  N6  UNL     1      46.776   0.529  36.356  1.00  0.00    -0.153 NA
HETATM   13  C9  UNL     1      47.786  -0.554  36.286  1.00  0.00     0.129 C 
HETATM   14  C10 UNL     1      48.342  -0.653  37.679  1.00  0.00     0.019 C 
HETATM   15  C11 UNL     1      47.551   0.328  38.517  1.00  0.00     0.029 C 
HETATM   16  C12 UNL     1      46.248   0.427  37.690  1.00  0.00     0.037 C 
HETATM   17  C13 UNL     1      45.536  -0.884  37.948  1.00  0.00     0.035 C 
HETATM   18  C14 UNL     1      45.475   1.597  38.170  1.00  0.00     0.035 C 
ENDBRANCH  11  12
ENDBRANCH   8   9
ENDBRANCH   7   8
ENDBRANCH   5   7
BRANCH   1  19
HETATM   19  C4  UNL     1      43.861  -1.956  28.676  1.00  0.00     0.689 A 
HETATM   20  N1  UNL     1      43.835  -2.841  27.639  1.00  0.00    -0.175 N 
HETATM   21  C1  UNL     1      43.485  -4.260  27.766  1.00  0.00     0.176 C 
HETATM   22  C2  UNL     1      44.126  -2.270  26.503  1.00  0.00     0.137 A 
HETATM   23 CL1  UNL     1      44.218  -2.942  24.893  1.00  0.00    -0.062 Cl
HETATM   24  C3  UNL     1      44.355  -0.916  26.810  1.00  0.00     0.149 A 
HETATM   25  N2  UNL     1      44.181  -0.783  28.139  1.00  0.00    -0.198 N 
ATOM     26  H2  UNL     1      44.281   0.090  28.657  1.00  0.00     0.183 HD
ENDBRANCH   1  19
TORSDOF 5
ENDMDL
MODEL 3
REMARK VINA RESULT: -7.332451302      1.248      1.882
REMARK  5 active torsions:
REMARK  status: ('A' for Active; 'I' for Inactive)
REMARK    1  A    between atoms: C4_8  and  N3_9 
REMARK       I    between atoms: N3_9  and  C5_11 
REMARK       I    between atoms: C5_11  and  N4_13 
REMARK    2  A    between atoms: N4_13  and  C6_15 
REMARK    3  A    between atoms: C6_15  and  C7_16 
REMARK    4  A    between atoms: C7_16  and  C8_17 
REMARK       I    between atoms: C8_17  and  N5_19 
REMARK    5  A    between atoms: N5_19  and  N6_20 
ROOT
HETATM    1  N3  UNL     1      43.864  -2.197  30.075  1.00  0.00    -0.141 N 
ATOM      2  H3  UNL     1      44.221  -3.091  30.412  1.00  0.00     0.189 HD
HETATM    3  C5  UNL     1      43.316  -1.289  31.011  1.00  0.00     0.334 C 
HETATM    4  O1  UNL     1      42.751  -0.280  30.552  1.00  0.00    -0.247 OA
HETATM    5  N4  UNL     1      43.390  -1.470  32.436  1.00  0.00    -0.342 N 
ATOM      6  H4  UNL     1      43.868  -2.292  32.805  1.00  0.00     0.164 HD
ENDROOT
BRANCH   5   7
HETATM    7  C6  UNL     1      42.808  -0.525  33.365  1.00  0.00     0.135 C 
BRANCH   7   8
HETATM    8  C7  UNL     1      43.714   0.603  33.660  1.00  0.00     0.140 C 
BRANCH   8   9
HETATM    9  C8  UNL     1      45.131   0.210  34.026  1.00  0.00     0.307 C 
HETATM   10  O2  UNL     1      46.010   0.300  33.145  1.00  0.00    -0.256 OA
HETATM   11  N5  UNL     1      45.407  -0.240  35.302  1.00  0.00    -0.312 NA
BRANCH  11  12
HETATM   12  N6  UNL     1      45.682  -0.675  36.526  1.00  0.00    -0.153 NA
HETATM   13  C9  UNL     1      44.440  -0.648  37.335  1.00  0.00     0.129 C 
HETATM   14  C10 UNL     1      44.911  -0.611  38.761  1.00  0.00     0.019 C 
HETATM   15  C11 UNL     1      46.420  -0.524  38.703  1.00  0.00     0.029 C 
HETATM   16  C12 UNL     1      46.618   0.095  37.300  1.00  0.00     0.037 C 
HETATM   17  C13 UNL     1      46.205   1.543  37.463  1.00  0.00     0.035 C 
HETATM   18  C14 UNL     1      48.044  -0.049  36.919  1.00  0.00     0.035 C 
ENDBRANCH  11  12
ENDBRANCH   8   9
ENDBRANCH   7   8
ENDBRANCH   5   7
BRANCH   1  19
HETATM   19  C4  UNL     1      43.936  -1.918  28.700  1.00  0.00     0.689 A 
HETATM   20  N1  UNL     1      43.910  -2.821  27.678  1.00  0.00    -0.175 N 
HETATM   21  C1  UNL     1      43.625  -4.250  27.839  1.00  0.00     0.176 C 
HETATM   22  C2  UNL     1      44.137  -2.257  26.524  1.00  0.00     0.137 A 
HETATM   23 CL1  UNL     1      44.200  -2.950  24.922  1.00  0.00    -0.062 Cl
HETATM   24  C3  UNL     1      44.319  -0.889  26.802  1.00  0.00     0.149 A 
HETATM   25  N2  UNL     1      44.188  -0.742  28.134  1.00  0.00    -0.198 N 
ATOM     26  H2  UNL     1      44.269   0.143  28.636  1.00  0.00     0.183 HD
ENDBRANCH   1  19
TORSDOF 5
ENDMDL
MODEL 4
REMARK VINA RESULT: -7.182772565      1.732      2.288
REMARK  5 active torsions:
REMARK  status: ('A' for Active; 'I' for Inactive)
REMARK    1  A    between atoms: C4_8  and  N3_9 
REMARK       I    between atoms: N3_9  and  C5_11 
REMARK       I    between atoms: C5_11  and  N4_13 
REMARK    2  A    between atoms: N4_13  and  C6_15 
REMARK    3  A    between atoms: C6_15  and  C7_16 
REMARK    4  A    between atoms: C7_16  and  C8_17 
REMARK       I    between atoms: C8_17  and  N5_19 
REMARK    5  A    between atoms: N5_19  and  N6_20 
ROOT
HETATM    1  N3  UNL     1      43.855  -1.476  30.105  1.00  0.00    -0.141 N 
ATOM      2  H3  UNL     1      44.685  -1.664  30.668  1.00  0.00     0.189 HD
HETATM    3  C5  UNL     1      42.650  -1.138  30.765  1.00  0.00     0.334 C 
HETATM    4  O1  UNL     1      41.625  -1.068  30.065  1.00  0.00    -0.247 OA
HETATM    5  N4  UNL     1      42.562  -0.868  32.176  1.00  0.00    -0.342 N 
ATOM      6  H4  UNL     1      43.410  -0.913  32.741  1.00  0.00     0.164 HD
ENDROOT
BRANCH   5   7
HETATM    7  C6  UNL     1      41.310  -0.535  32.820  1.00  0.00     0.135 C 
BRANCH   7   8
HETATM    8  C7  UNL     1      41.241  -1.034  34.207  1.00  0.00     0.140 C 
BRANCH   8   9
HETATM    9  C8  UNL     1      42.468  -1.788  34.681  1.00  0.00     0.307 C 
HETATM   10  O2  UNL     1      42.464  -3.032  34.588  1.00  0.00    -0.256 OA
HETATM   11  N5  UNL     1      43.537  -1.090  35.207  1.00  0.00    -0.312 NA
BRANCH  11  12
HETATM   12  N6  UNL     1      44.569  -0.428  35.714  1.00  0.00    -0.153 NA
HETATM   13  C9  UNL     1      44.237  -0.004  37.095  1.00  0.00     0.129 C 
HETATM   14  C10 UNL     1      45.160   1.147  37.377  1.00  0.00     0.019 C 
HETATM   15  C11 UNL     1      45.926   1.395  36.097  1.00  0.00     0.029 C 
HETATM   16  C12 UNL     1      44.951   0.794  35.058  1.00  0.00     0.037 C 
HETATM   17  C13 UNL     1      43.822   1.800  34.973  1.00  0.00     0.035 C 
HETATM   18  C14 UNL     1      45.671   0.639  33.771  1.00  0.00     0.035 C 
ENDBRANCH  11  12
ENDBRANCH   8   9
ENDBRANCH   7   8
ENDBRANCH   5   7
BRANCH   1  19
HETATM   19  C4  UNL     1      43.955  -1.564  28.707  1.00  0.00     0.689 A 
HETATM   20  N1  UNL     1      44.046  -2.703  27.962  1.00  0.00    -0.175 N 
HETATM   21  C1  UNL     1      43.882  -4.060  28.493  1.00  0.00     0.176 C 
HETATM   22  C2  UNL     1      44.267  -2.445  26.703  1.00  0.00     0.137 A 
HETATM   23 CL1  UNL     1      44.451  -3.527  25.344  1.00  0.00    -0.062 Cl
HETATM   24  C3  UNL     1      44.318  -1.041  26.609  1.00  0.00     0.149 A 
HETATM   25  N2  UNL     1      44.124  -0.561  27.852  1.00  0.00    -0.198 N 
ATOM     26  H2  UNL     1      44.109   0.428  28.101  1.00  0.00     0.183 HD
ENDBRANCH   1  19
TORSDOF 5
ENDMDL
MODEL 5
REMARK VINA RESULT: -7.002683903      0.922      1.609
REMARK  5 active torsions:
REMARK  status: ('A' for Active; 'I' for Inactive)
REMARK    1  A    between atoms: C4_8  and  N3_9 
REMARK       I    between atoms: N3_9  and  C5_11 
REMARK       I    between atoms: C5_11  and  N4_13 
REMARK    2  A    between atoms: N4_13  and  C6_15 
REMARK    3  A    between atoms: C6_15  and  C7_16 
REMARK    4  A    between atoms: C7_16  and  C8_17 
REMARK       I    between atoms: C8_17  and  N5_19 
REMARK    5  A    between atoms: N5_19  and  N6_20 
ROOT
HETATM    1  N3  UNL     1      43.582  -2.428  30.081  1.00  0.00    -0.141 N 
ATOM      2  H3  UNL     1      43.698  -3.417  30.302  1.00  0.00     0.189 HD
HETATM    3  C5  UNL     1      43.202  -1.541  31.116  1.00  0.00     0.334 C 
HETATM    4  O1  UNL     1      42.920  -0.377  30.784  1.00  0.00    -0.247 OA
HETATM    5  N4  UNL     1      43.139  -1.916  32.504  1.00  0.00    -0.342 N 
ATOM      6  H4  UNL     1      43.387  -2.869  32.770  1.00  0.00     0.164 HD
ENDROOT
BRANCH   5   7
HETATM    7  C6  UNL     1      42.736  -0.985  33.536  1.00  0.00     0.135 C 
BRANCH   7   8
HETATM    8  C7  UNL     1      43.883  -0.481  34.318  1.00  0.00     0.140 C 
BRANCH   8   9
HETATM    9  C8  UNL     1      44.065   1.023  34.296  1.00  0.00     0.307 C 
HETATM   10  O2  UNL     1      44.495   1.547  33.248  1.00  0.00    -0.256 OA
HETATM   11  N5  UNL     1      43.767   1.763  35.423  1.00  0.00    -0.312 NA
BRANCH  11  12
HETATM   12  N6  UNL     1      43.482   2.483  36.501  1.00  0.00    -0.153 NA
HETATM   13  C9  UNL     1      44.117   3.816  36.370  1.00  0.00     0.129 C 
HETATM   14  C10 UNL     1      44.222   4.332  37.777  1.00  0.00     0.019 C 
HETATM   15  C11 UNL     1      43.721   3.220  38.671  1.00  0.00     0.029 C 
HETATM   16  C12 UNL     1      43.964   1.991  37.764  1.00  0.00     0.037 C 
HETATM   17  C13 UNL     1      45.464   1.791  37.790  1.00  0.00     0.035 C 
HETATM   18  C14 UNL     1      43.227   0.835  38.331  1.00  0.00     0.035 C 
ENDBRANCH  11  12
ENDBRANCH   8   9
ENDBRANCH   7   8
ENDBRANCH   5   7
BRANCH   1  19
HETATM   19  C4  UNL     1      43.806  -2.001  28.762  1.00  0.00     0.689 A 
HETATM   20  N1  UNL     1      43.782  -2.772  27.637  1.00  0.00    -0.175 N 
HETATM   21  C1  UNL     1      43.342  -4.170  27.595  1.00  0.00     0.176 C 
HETATM   22  C2  UNL     1      44.168  -2.107  26.583  1.00  0.00     0.137 A 
HETATM   23 CL1  UNL     1      44.306  -2.613  24.916  1.00  0.00    -0.062 Cl
HETATM   24  C3  UNL     1      44.461  -0.809  27.042  1.00  0.00     0.149 A 
HETATM   25  N2  UNL     1      44.224  -0.803  28.368  1.00  0.00    -0.198 N 
ATOM     26  H2  UNL     1      44.348   0.003  28.981  1.00  0.00     0.183 HD
ENDBRANCH   1  19
TORSDOF 5
ENDMDL
