MODEL 1
REMARK VINA RESULT: -6.965980831      0.000      0.000
REMARK  6 active torsions:
REMARK  status: ('A' for Active; 'I' for Inactive)
REMARK    1  A    between atoms: C5_5  and  N1_6 
REMARK    2  A    between atoms: N1_6  and  C6_8 
REMARK    3  A    between atoms: C6_8  and  C7_9 
REMARK       I    between atoms: C7_9  and  N2_11 
REMARK    4  A    between atoms: N2_11  and  C8_12 
REMARK    5  A    between atoms: C10_14  and  N3_15 
REMARK       I    between atoms: N3_15  and  C11_17 
REMARK    6  A    between atoms: C11_17  and  C12_19 
ROOT
HETATM    1  C8  UNL     1      43.406  -1.498  30.802  1.00  0.00     0.201 A 
HETATM    2  C9  UNL     1      44.063  -2.356  29.897  1.00  0.00     0.115 A 
HETATM    3  C10 UNL     1      44.035  -1.830  28.632  1.00  0.00     0.127 A 
HETATM    4  N4  UNL     1      43.357  -0.653  28.779  1.00  0.00    -0.283 N 
ATOM      5  H4  UNL     1      43.156  -0.008  28.016  1.00  0.00     0.188 HD
HETATM    6  N5  UNL     1      42.998  -0.458  30.013  1.00  0.00    -0.272 N 
ATOM      7  H5  UNL     1      42.483   0.357  30.346  1.00  0.00     0.189 HD
ENDROOT
BRANCH   1   8
HETATM    8  N2  UNL     1      43.229  -1.615  31.980  1.00  0.00    -0.349 NA
HETATM    9  C7  UNL     1      43.000  -1.714  33.256  1.00  0.00     0.310 C 
HETATM   10  O1  UNL     1      42.633  -2.842  33.775  1.00  0.00    -0.255 OA
BRANCH   9  11
HETATM   11  C6  UNL     1      43.115  -0.605  34.292  1.00  0.00     0.234 C 
BRANCH  11  12
HETATM   12  N1  UNL     1      43.748   0.541  33.747  1.00  0.00    -0.408 N 
ATOM     13  H1  UNL     1      43.583   0.858  32.792  1.00  0.00     0.154 HD
BRANCH  12  14
HETATM   14  C5  UNL     1      44.642   1.222  34.645  1.00  0.00     0.077 C 
HETATM   15  C4  UNL     1      45.163   0.224  35.683  1.00  0.00     0.025 C 
HETATM   16  C3  UNL     1      46.221   1.004  36.451  1.00  0.00     0.006 C 
HETATM   17  C2  UNL     1      45.425   1.940  37.336  1.00  0.00    -0.019 C 
HETATM   18  C1  UNL     1      44.680   1.070  38.350  1.00  0.00     0.010 C 
HETATM   19  C16 UNL     1      44.521   2.846  36.590  1.00  0.00     0.006 C 
HETATM   20  C15 UNL     1      44.086   2.464  35.237  1.00  0.00     0.025 C 
ENDBRANCH  12  14
ENDBRANCH  11  12
ENDBRANCH   9  11
ENDBRANCH   1   8
BRANCH   3  21
HETATM   21  N3  UNL     1      44.574  -2.350  27.431  1.00  0.00    -0.312 N 
HETATM   22  C11 UNL     1      43.956  -3.377  26.697  1.00  0.00     0.227 C 
HETATM   23  O2  UNL     1      42.883  -3.950  27.001  1.00  0.00    -0.273 OA
ATOM     24  H3  UNL     1      45.452  -1.962  27.083  1.00  0.00     0.170 HD
BRANCH  22  25
HETATM   25  C12 UNL     1      44.598  -3.873  25.421  1.00  0.00     0.078 A 
HETATM   26  C13 UNL     1      44.397  -2.932  24.234  1.00  0.00     0.015 A 
HETATM   27  C14 UNL     1      43.713  -4.235  24.281  1.00  0.00     0.015 A 
ENDBRANCH  22  25
ENDBRANCH   3  21
TORSDOF 6
ENDMDL
MODEL 2
REMARK VINA RESULT: -6.886259037      0.750      1.255
REMARK  6 active torsions:
REMARK  status: ('A' for Active; 'I' for Inactive)
REMARK    1  A    between atoms: C5_5  and  N1_6 
REMARK    2  A    between atoms: N1_6  and  C6_8 
REMARK    3  A    between atoms: C6_8  and  C7_9 
REMARK       I    between atoms: C7_9  and  N2_11 
REMARK    4  A    between atoms: N2_11  and  C8_12 
REMARK    5  A    between atoms: C10_14  and  N3_15 
REMARK       I    between atoms: N3_15  and  C11_17 
REMARK    6  A    between atoms: C11_17  and  C12_19 
ROOT
HETATM    1  C8  UNL     1      43.266  -1.535  30.848  1.00  0.00     0.201 A 
HETATM    2  C9  UNL     1      43.905  -2.403  29.938  1.00  0.00     0.115 A 
HETATM    3  C10 UNL     1      43.981  -1.826  28.699  1.00  0.00     0.127 A 
HETATM    4  N4  UNL     1      43.384  -0.608  28.865  1.00  0.00    -0.283 N 
ATOM      5  H4  UNL     1      43.272   0.082  28.122  1.00  0.00     0.188 HD
HETATM    6  N5  UNL     1      42.977  -0.437  30.087  1.00  0.00    -0.272 N 
ATOM      7  H5  UNL     1      42.508   0.401  30.431  1.00  0.00     0.189 HD
ENDROOT
BRANCH   1   8
HETATM    8  N2  UNL     1      43.020  -1.687  32.010  1.00  0.00    -0.349 NA
HETATM    9  C7  UNL     1      42.708  -1.838  33.263  1.00  0.00     0.310 C 
HETATM   10  O1  UNL     1      42.707  -3.014  33.805  1.00  0.00    -0.255 OA
BRANCH   9  11
HETATM   11  C6  UNL     1      42.320  -0.742  34.244  1.00  0.00     0.234 C 
BRANCH  11  12
HETATM   12  N1  UNL     1      43.231   0.343  34.187  1.00  0.00    -0.408 N 
ATOM     13  H1  UNL     1      43.442   0.839  33.321  1.00  0.00     0.154 HD
BRANCH  12  14
HETATM   14  C5  UNL     1      43.836   0.691  35.445  1.00  0.00     0.077 C 
HETATM   15  C4  UNL     1      42.875   1.590  36.229  1.00  0.00     0.025 C 
HETATM   16  C3  UNL     1      43.535   1.739  37.593  1.00  0.00     0.006 C 
HETATM   17  C2  UNL     1      44.681   2.698  37.351  1.00  0.00    -0.019 C 
HETATM   18  C1  UNL     1      44.064   4.052  36.996  1.00  0.00     0.010 C 
HETATM   19  C16 UNL     1      45.648   2.229  36.331  1.00  0.00     0.006 C 
HETATM   20  C15 UNL     1      45.210   1.240  35.333  1.00  0.00     0.025 C 
ENDBRANCH  12  14
ENDBRANCH  11  12
ENDBRANCH   9  11
ENDBRANCH   1   8
BRANCH   3  21
HETATM   21  N3  UNL     1      44.542  -2.336  27.504  1.00  0.00    -0.312 N 
HETATM   22  C11 UNL     1      43.938  -3.357  26.750  1.00  0.00     0.227 C 
HETATM   23  O2  UNL     1      42.860  -3.932  27.029  1.00  0.00    -0.273 OA
ATOM     24  H3  UNL     1      45.426  -1.945  27.175  1.00  0.00     0.170 HD
BRANCH  22  25
HETATM   25  C12 UNL     1      44.603  -3.842  25.482  1.00  0.00     0.078 A 
HETATM   26  C13 UNL     1      44.404  -2.903  24.293  1.00  0.00     0.015 A 
HETATM   27  C14 UNL     1      43.739  -4.215  24.330  1.00  0.00     0.015 A 
ENDBRANCH  22  25
ENDBRANCH   3  21
TORSDOF 6
ENDMDL
MODEL 3
REMARK VINA RESULT: -6.880254819      0.713      1.218
REMARK  6 active torsions:
REMARK  status: ('A' for Active; 'I' for Inactive)
REMARK    1  A    between atoms: C5_5  and  N1_6 
REMARK    2  A    between atoms: N1_6  and  C6_8 
REMARK    3  A    between atoms: C6_8  and  C7_9 
REMARK       I    between atoms: C7_9  and  N2_11 
REMARK    4  A    between atoms: N2_11  and  C8_12 
REMARK    5  A    between atoms: C10_14  and  N3_15 
REMARK       I    between atoms: N3_15  and  C11_17 
REMARK    6  A    between atoms: C11_17  and  C12_19 
ROOT
HETATM    1  C8  UNL     1      43.276  -1.561  30.842  1.00  0.00     0.201 A 
HETATM    2  C9  UNL     1      43.926  -2.415  29.927  1.00  0.00     0.115 A 
HETATM    3  C10 UNL     1      43.985  -1.834  28.688  1.00  0.00     0.127 A 
HETATM    4  N4  UNL     1      43.367  -0.627  28.860  1.00  0.00    -0.283 N 
ATOM      5  H4  UNL     1      43.238   0.061  28.119  1.00  0.00     0.188 HD
HETATM    6  N5  UNL     1      42.963  -0.466  30.084  1.00  0.00    -0.272 N 
ATOM      7  H5  UNL     1      42.479   0.362  30.432  1.00  0.00     0.189 HD
ENDROOT
BRANCH   1   8
HETATM    8  N2  UNL     1      43.039  -1.719  32.005  1.00  0.00    -0.349 NA
HETATM    9  C7  UNL     1      42.737  -1.874  33.260  1.00  0.00     0.310 C 
HETATM   10  O1  UNL     1      42.655  -3.058  33.778  1.00  0.00    -0.255 OA
BRANCH   9  11
HETATM   11  C6  UNL     1      42.452  -0.774  34.271  1.00  0.00     0.234 C 
BRANCH  11  12
HETATM   12  N1  UNL     1      43.348   0.315  34.111  1.00  0.00    -0.408 N 
ATOM     13  H1  UNL     1      43.593   0.694  33.197  1.00  0.00     0.154 HD
BRANCH  12  14
HETATM   14  C5  UNL     1      43.884   0.841  35.338  1.00  0.00     0.077 C 
HETATM   15  C4  UNL     1      45.278   1.416  35.068  1.00  0.00     0.025 C 
HETATM   16  C3  UNL     1      45.659   2.096  36.375  1.00  0.00     0.006 C 
HETATM   17  C2  UNL     1      46.002   0.951  37.306  1.00  0.00    -0.019 C 
HETATM   18  C1  UNL     1      47.267   0.291  36.752  1.00  0.00     0.010 C 
HETATM   19  C16 UNL     1      44.896  -0.015  37.501  1.00  0.00     0.006 C 
HETATM   20  C15 UNL     1      43.838  -0.104  36.481  1.00  0.00     0.025 C 
ENDBRANCH  12  14
ENDBRANCH  11  12
ENDBRANCH   9  11
ENDBRANCH   1   8
BRANCH   3  21
HETATM   21  N3  UNL     1      44.550  -2.331  27.490  1.00  0.00    -0.312 N 
HETATM   22  C11 UNL     1      43.955  -3.354  26.731  1.00  0.00     0.227 C 
HETATM   23  O2  UNL     1      42.884  -3.943  27.010  1.00  0.00    -0.273 OA
ATOM     24  H3  UNL     1      45.428  -1.929  27.161  1.00  0.00     0.170 HD
BRANCH  22  25
HETATM   25  C12 UNL     1      44.622  -3.825  25.460  1.00  0.00     0.078 A 
HETATM   26  C13 UNL     1      44.395  -2.892  24.271  1.00  0.00     0.015 A 
HETATM   27  C14 UNL     1      43.760  -4.218  24.313  1.00  0.00     0.015 A 
ENDBRANCH  22  25
ENDBRANCH   3  21
TORSDOF 6
ENDMDL
MODEL 4
REMARK VINA RESULT: -6.737306304      1.167      1.243
REMARK  6 active torsions:
REMARK  status: ('A' for Active; 'I' for Inactive)
REMARK    1  A    between atoms: C5_5  and  N1_6 
REMARK    2  A    between atoms: N1_6  and  C6_8 
REMARK    3  A    between atoms: C6_8  and  C7_9 
REMARK       I    between atoms: C7_9  and  N2_11 
REMARK    4  A    between atoms: N2_11  and  C8_12 
REMARK    5  A    between atoms: C10_14  and  N3_15 
REMARK       I    between atoms: N3_15  and  C11_17 
REMARK    6  A    between atoms: C11_17  and  C12_19 
ROOT
HETATM    1  C8  UNL     1      42.689  -0.893  31.219  1.00  0.00     0.201 A 
HETATM    2  C9  UNL     1      43.766  -1.418  30.476  1.00  0.00     0.115 A 
HETATM    3  C10 UNL     1      43.411  -1.573  29.162  1.00  0.00     0.127 A 
HETATM    4  N4  UNL     1      42.115  -1.142  29.117  1.00  0.00    -0.283 N 
ATOM      5  H4  UNL     1      41.545  -1.128  28.272  1.00  0.00     0.188 HD
HETATM    6  N5  UNL     1      41.700  -0.752  30.285  1.00  0.00    -0.272 N 
ATOM      7  H5  UNL     1      40.766  -0.390  30.479  1.00  0.00     0.189 HD
ENDROOT
BRANCH   1   8
HETATM    8  N2  UNL     1      42.619  -0.622  32.383  1.00  0.00    -0.349 NA
HETATM    9  C7  UNL     1      42.568  -0.288  33.639  1.00  0.00     0.310 C 
HETATM   10  O1  UNL     1      41.434  -0.014  34.202  1.00  0.00    -0.255 OA
BRANCH   9  11
HETATM   11  C6  UNL     1      43.740  -0.171  34.600  1.00  0.00     0.234 C 
BRANCH  11  12
HETATM   12  N1  UNL     1      44.449   1.042  34.398  1.00  0.00    -0.408 N 
ATOM     13  H1  UNL     1      44.304   1.633  33.580  1.00  0.00     0.154 HD
BRANCH  12  14
HETATM   14  C5  UNL     1      45.388   1.373  35.437  1.00  0.00     0.077 C 
HETATM   15  C4  UNL     1      45.811   0.088  36.156  1.00  0.00     0.025 C 
HETATM   16  C3  UNL     1      46.923   0.536  37.094  1.00  0.00     0.006 C 
HETATM   17  C2  UNL     1      46.201   1.259  38.212  1.00  0.00    -0.019 C 
HETATM   18  C1  UNL     1      45.373   0.211  38.958  1.00  0.00     0.010 C 
HETATM   19  C16 UNL     1      45.385   2.407  37.753  1.00  0.00     0.006 C 
HETATM   20  C15 UNL     1      44.933   2.448  36.353  1.00  0.00     0.025 C 
ENDBRANCH  12  14
ENDBRANCH  11  12
ENDBRANCH   9  11
ENDBRANCH   1   8
BRANCH   3  21
HETATM   21  N3  UNL     1      44.178  -2.058  28.076  1.00  0.00    -0.312 N 
HETATM   22  C11 UNL     1      43.736  -3.088  27.227  1.00  0.00     0.227 C 
HETATM   23  O2  UNL     1      42.643  -3.694  27.319  1.00  0.00    -0.273 OA
ATOM     24  H3  UNL     1      45.093  -1.642  27.901  1.00  0.00     0.170 HD
BRANCH  22  25
HETATM   25  C12 UNL     1      44.617  -3.544  26.087  1.00  0.00     0.078 A 
HETATM   26  C13 UNL     1      44.480  -2.685  24.830  1.00  0.00     0.015 A 
HETATM   27  C14 UNL     1      43.964  -4.063  24.854  1.00  0.00     0.015 A 
ENDBRANCH  22  25
ENDBRANCH   3  21
TORSDOF 6
ENDMDL
MODEL 5
REMARK VINA RESULT: -6.692011852      2.058      8.761
REMARK  6 active torsions:
REMARK  status: ('A' for Active; 'I' for Inactive)
REMARK    1  A    between atoms: C5_5  and  N1_6 
REMARK    2  A    between atoms: N1_6  and  C6_8 
REMARK    3  A    between atoms: C6_8  and  C7_9 
REMARK       I    between atoms: C7_9  and  N2_11 
REMARK    4  A    between atoms: N2_11  and  C8_12 
REMARK    5  A    between atoms: C10_14  and  N3_15 
REMARK       I    between atoms: N3_15  and  C11_17 
REMARK    6  A    between atoms: C11_17  and  C12_19 
ROOT
HETATM    1  C8  UNL     1      42.882  -1.078  32.192  1.00  0.00     0.201 A 
HETATM    2  C9  UNL     1      42.767  -0.299  33.362  1.00  0.00     0.115 A 
HETATM    3  C10 UNL     1      43.953   0.328  33.638  1.00  0.00     0.127 A 
HETATM    4  N4  UNL     1      44.783  -0.078  32.632  1.00  0.00    -0.283 N 
ATOM      5  H4  UNL     1      45.757   0.210  32.541  1.00  0.00     0.188 HD
HETATM    6  N5  UNL     1      44.178  -0.877  31.805  1.00  0.00    -0.272 N 
ATOM      7  H5  UNL     1      44.609  -1.296  30.981  1.00  0.00     0.189 HD
ENDROOT
BRANCH   1   8
HETATM    8  N2  UNL     1      42.067  -1.761  31.641  1.00  0.00    -0.349 NA
HETATM    9  C7  UNL     1      41.216  -2.518  31.014  1.00  0.00     0.310 C 
HETATM   10  O1  UNL     1      40.648  -3.513  31.619  1.00  0.00    -0.255 OA
BRANCH   9  11
HETATM   11  C6  UNL     1      40.767  -2.381  29.567  1.00  0.00     0.234 C 
BRANCH  11  12
HETATM   12  N1  UNL     1      41.327  -3.403  28.758  1.00  0.00    -0.408 N 
ATOM     13  H1  UNL     1      40.785  -4.200  28.426  1.00  0.00     0.154 HD
BRANCH  12  14
HETATM   14  C5  UNL     1      42.719  -3.227  28.441  1.00  0.00     0.077 C 
HETATM   15  C4  UNL     1      42.999  -1.735  28.230  1.00  0.00     0.025 C 
HETATM   16  C3  UNL     1      44.512  -1.658  28.085  1.00  0.00     0.006 C 
HETATM   17  C2  UNL     1      44.782  -2.194  26.694  1.00  0.00    -0.019 C 
HETATM   18  C1  UNL     1      44.180  -1.192  25.706  1.00  0.00     0.010 C 
HETATM   19  C16 UNL     1      44.288  -3.573  26.477  1.00  0.00     0.006 C 
HETATM   20  C15 UNL     1      43.209  -4.088  27.336  1.00  0.00     0.025 C 
ENDBRANCH  12  14
ENDBRANCH  11  12
ENDBRANCH   9  11
ENDBRANCH   1   8
BRANCH   3  21
HETATM   21  N3  UNL     1      44.279   1.202  34.703  1.00  0.00    -0.312 N 
HETATM   22  C11 UNL     1      45.468   1.092  35.445  1.00  0.00     0.227 C 
HETATM   23  O2  UNL     1      46.363   0.231  35.270  1.00  0.00    -0.273 OA
ATOM     24  H3  UNL     1      43.623   1.945  34.942  1.00  0.00     0.170 HD
BRANCH  22  25
HETATM   25  C12 UNL     1      45.742   2.069  36.564  1.00  0.00     0.078 A 
HETATM   26  C13 UNL     1      44.928   1.792  37.827  1.00  0.00     0.015 A 
HETATM   27  C14 UNL     1      44.642   2.973  36.998  1.00  0.00     0.015 A 
ENDBRANCH  22  25
ENDBRANCH   3  21
TORSDOF 6
ENDMDL
