MODEL 1
REMARK VINA RESULT: -6.509167834      0.000      0.000
REMARK  8 active torsions:
REMARK  status: ('A' for Active; 'I' for Inactive)
REMARK    1  A    between atoms: C2_2  and  C3_3 
REMARK    2  A    between atoms: C4_4  and  C5_5 
REMARK    3  A    between atoms: C7_7  and  C8_8 
REMARK    4  A    between atoms: C9_9  and  C10_10 
REMARK    5  A    between atoms: C13_16  and  C14_17 
REMARK    6  A    between atoms: C14_17  and  C15_18 
REMARK    7  A    between atoms: C16_19  and  O1_20 
REMARK    8  A    between atoms: C17_26  and  N4_27 
ROOT
HETATM    1  C10 UNL     1      40.995  -2.483  30.333  1.00  0.00     0.040 A 
HETATM    2  N1  UNL     1      40.169  -3.393  30.836  1.00  0.00    -0.364 N 
ATOM      3  H1  UNL     1      39.170  -3.257  30.986  1.00  0.00     0.165 HD
HETATM    4  C11 UNL     1      40.844  -4.511  31.114  1.00  0.00     0.108 A 
HETATM    5  C12 UNL     1      42.145  -4.349  30.791  1.00  0.00     0.035 A 
HETATM    6 BR1  UNL     1      43.569  -5.644  30.919  1.00  0.00    -0.049 Br
HETATM    7  C13 UNL     1      42.273  -3.053  30.289  1.00  0.00    -0.008 A 
ENDROOT
BRANCH   7   8
HETATM    8  C14 UNL     1      43.551  -2.450  29.816  1.00  0.00     0.089 C 
BRANCH   8   9
HETATM    9  C15 UNL     1      43.664  -2.257  28.360  1.00  0.00     0.043 A 
HETATM   10  C16 UNL     1      43.473  -3.158  27.311  1.00  0.00     0.165 A 
HETATM   11  N2  UNL     1      43.615  -2.513  26.114  1.00  0.00    -0.278 N 
HETATM   12  N3  UNL     1      43.880  -1.267  26.379  1.00  0.00    -0.283 N 
ATOM     13  H2  UNL     1      43.529  -2.929  25.187  1.00  0.00     0.189 HD
HETATM   14  C17 UNL     1      43.921  -1.056  27.705  1.00  0.00     0.124 A 
ATOM     15  H3  UNL     1      44.036  -0.547  25.674  1.00  0.00     0.188 HD
BRANCH  10  16
HETATM   16  O1  UNL     1      43.189  -4.488  27.462  1.00  0.00    -0.345 OA
ATOM     17  H1  UNL     1      42.388  -4.910  27.174  1.00  0.00     0.219 HD
ENDBRANCH  10  16
BRANCH  14  18
HETATM   18  N4  UNL     1      44.137   0.098  28.204  1.00  0.00    -0.384 N 
ATOM     19  H42 UNL     1      44.861   0.262  28.904  1.00  0.00     0.157 HD
ATOM     20  H41 UNL     1      43.679   0.983  27.990  1.00  0.00     0.157 HD
ENDBRANCH  14  18
ENDBRANCH   8   9
ENDBRANCH   7   8
BRANCH   1  21
HETATM   21  C9  UNL     1      40.665  -1.138  29.910  1.00  0.00     0.030 C 
HETATM   22  C8  UNL     1      39.938  -0.220  30.421  1.00  0.00     0.003 C 
BRANCH  22  23
HETATM   23  C7  UNL     1      39.154  -0.118  31.608  1.00  0.00     0.016 C 
HETATM   24  C5  UNL     1      37.927  -0.644  31.720  1.00  0.00    -0.009 C 
HETATM   25  C6  UNL     1      37.211  -0.472  33.001  1.00  0.00     0.058 C 
BRANCH  24  26
HETATM   26  C4  UNL     1      37.391  -1.339  30.584  1.00  0.00    -0.072 C 
HETATM   27  C3  UNL     1      36.951  -1.945  29.630  1.00  0.00    -0.102 C 
BRANCH  27  28
HETATM   28  C2  UNL     1      36.422  -2.670  28.457  1.00  0.00     0.090 C 
HETATM   29  C1  UNL     1      37.124  -4.005  28.273  1.00  0.00     0.018 C 
ENDBRANCH  27  28
ENDBRANCH  24  26
ENDBRANCH  22  23
ENDBRANCH   1  21
TORSDOF 8
ENDMDL
MODEL 2
REMARK VINA RESULT: -6.462673037      1.147      1.593
REMARK  8 active torsions:
REMARK  status: ('A' for Active; 'I' for Inactive)
REMARK    1  A    between atoms: C2_2  and  C3_3 
REMARK    2  A    between atoms: C4_4  and  C5_5 
REMARK    3  A    between atoms: C7_7  and  C8_8 
REMARK    4  A    between atoms: C9_9  and  C10_10 
REMARK    5  A    between atoms: C13_16  and  C14_17 
REMARK    6  A    between atoms: C14_17  and  C15_18 
REMARK    7  A    between atoms: C16_19  and  O1_20 
REMARK    8  A    between atoms: C17_26  and  N4_27 
ROOT
HETATM    1  C10 UNL     1      40.997  -2.386  30.298  1.00  0.00     0.040 A 
HETATM    2  N1  UNL     1      40.171  -3.296  30.800  1.00  0.00    -0.364 N 
ATOM      3  H1  UNL     1      39.176  -3.154  30.969  1.00  0.00     0.165 HD
HETATM    4  C11 UNL     1      40.840  -4.425  31.050  1.00  0.00     0.108 A 
HETATM    5  C12 UNL     1      42.137  -4.269  30.707  1.00  0.00     0.035 A 
HETATM    6 BR1  UNL     1      43.551  -5.578  30.791  1.00  0.00    -0.049 Br
HETATM    7  C13 UNL     1      42.269  -2.967  30.224  1.00  0.00    -0.008 A 
ENDROOT
BRANCH   7   8
HETATM    8  C14 UNL     1      43.544  -2.367  29.739  1.00  0.00     0.089 C 
BRANCH   8   9
HETATM    9  C15 UNL     1      43.605  -2.078  28.296  1.00  0.00     0.043 A 
HETATM   10  C16 UNL     1      43.828  -0.876  27.623  1.00  0.00     0.165 A 
HETATM   11  N2  UNL     1      43.872  -1.100  26.275  1.00  0.00    -0.278 N 
HETATM   12  N3  UNL     1      43.689  -2.375  26.092  1.00  0.00    -0.283 N 
ATOM     13  H2  UNL     1      44.021  -0.399  25.549  1.00  0.00     0.189 HD
HETATM   14  C17 UNL     1      43.525  -3.010  27.265  1.00  0.00     0.124 A 
ATOM     15  H3  UNL     1      43.673  -2.831  25.181  1.00  0.00     0.188 HD
BRANCH  10  16
HETATM   16  O1  UNL     1      43.977   0.344  28.226  1.00  0.00    -0.345 OA
ATOM     17  H1  UNL     1      43.300   0.796  28.716  1.00  0.00     0.219 HD
ENDBRANCH  10  16
BRANCH  14  18
HETATM   18  N4  UNL     1      43.358  -4.272  27.338  1.00  0.00    -0.384 N 
ATOM     19  H42 UNL     1      43.806  -4.840  28.057  1.00  0.00     0.157 HD
ATOM     20  H41 UNL     1      42.777  -4.875  26.756  1.00  0.00     0.157 HD
ENDBRANCH  14  18
ENDBRANCH   8   9
ENDBRANCH   7   8
BRANCH   1  21
HETATM   21  C9  UNL     1      40.672  -1.031  29.902  1.00  0.00     0.030 C 
HETATM   22  C8  UNL     1      39.974  -0.110  30.446  1.00  0.00     0.003 C 
BRANCH  22  23
HETATM   23  C7  UNL     1      39.228  -0.012  31.659  1.00  0.00     0.016 C 
HETATM   24  C5  UNL     1      38.010  -0.548  31.811  1.00  0.00    -0.009 C 
HETATM   25  C6  UNL     1      37.335  -0.380  33.115  1.00  0.00     0.058 C 
BRANCH  24  26
HETATM   26  C4  UNL     1      37.443  -1.248  30.694  1.00  0.00    -0.072 C 
HETATM   27  C3  UNL     1      36.984  -1.849  29.745  1.00  0.00    -0.102 C 
BRANCH  27  28
HETATM   28  C2  UNL     1      36.421  -2.564  28.582  1.00  0.00     0.090 C 
HETATM   29  C1  UNL     1      37.156  -3.870  28.331  1.00  0.00     0.018 C 
ENDBRANCH  27  28
ENDBRANCH  24  26
ENDBRANCH  22  23
ENDBRANCH   1  21
TORSDOF 8
ENDMDL
MODEL 3
REMARK VINA RESULT: -6.449068028      1.658      3.151
REMARK  8 active torsions:
REMARK  status: ('A' for Active; 'I' for Inactive)
REMARK    1  A    between atoms: C2_2  and  C3_3 
REMARK    2  A    between atoms: C4_4  and  C5_5 
REMARK    3  A    between atoms: C7_7  and  C8_8 
REMARK    4  A    between atoms: C9_9  and  C10_10 
REMARK    5  A    between atoms: C13_16  and  C14_17 
REMARK    6  A    between atoms: C14_17  and  C15_18 
REMARK    7  A    between atoms: C16_19  and  O1_20 
REMARK    8  A    between atoms: C17_26  and  N4_27 
ROOT
HETATM    1  C10 UNL     1      41.632  -1.837  31.266  1.00  0.00     0.040 A 
HETATM    2  N1  UNL     1      42.087  -2.271  32.436  1.00  0.00    -0.364 N 
ATOM      3  H1  UNL     1      41.918  -1.820  33.335  1.00  0.00     0.165 HD
HETATM    4  C11 UNL     1      42.797  -3.389  32.259  1.00  0.00     0.108 A 
HETATM    5  C12 UNL     1      42.818  -3.711  30.948  1.00  0.00     0.035 A 
HETATM    6 BR1  UNL     1      43.637  -5.246  30.116  1.00  0.00    -0.049 Br
HETATM    7  C13 UNL     1      42.081  -2.729  30.284  1.00  0.00    -0.008 A 
ENDROOT
BRANCH   7   8
HETATM    8  C14 UNL     1      41.851  -2.690  28.812  1.00  0.00     0.089 C 
BRANCH   8   9
HETATM    9  C15 UNL     1      42.999  -2.254  27.999  1.00  0.00     0.043 A 
HETATM   10  C16 UNL     1      43.772  -1.094  28.075  1.00  0.00     0.165 A 
HETATM   11  N2  UNL     1      44.785  -1.151  27.159  1.00  0.00    -0.278 N 
HETATM   12  N3  UNL     1      44.670  -2.284  26.530  1.00  0.00    -0.283 N 
ATOM     13  H2  UNL     1      45.498  -0.439  26.998  1.00  0.00     0.189 HD
HETATM   14  C17 UNL     1      43.621  -2.985  26.991  1.00  0.00     0.124 A 
ATOM     15  H3  UNL     1      45.294  -2.598  25.787  1.00  0.00     0.188 HD
BRANCH  10  16
HETATM   16  O1  UNL     1      43.546  -0.056  28.938  1.00  0.00    -0.345 OA
ATOM     17  H1  UNL     1      43.943   0.036  29.796  1.00  0.00     0.219 HD
ENDBRANCH  10  16
BRANCH  14  18
HETATM   18  N4  UNL     1      43.327  -4.143  26.545  1.00  0.00    -0.384 N 
ATOM     19  H42 UNL     1      43.397  -4.379  25.555  1.00  0.00     0.157 HD
ATOM     20  H41 UNL     1      43.023  -4.968  27.060  1.00  0.00     0.157 HD
ENDBRANCH  14  18
ENDBRANCH   8   9
ENDBRANCH   7   8
BRANCH   1  21
HETATM   21  C9  UNL     1      40.830  -0.657  31.021  1.00  0.00     0.030 C 
HETATM   22  C8  UNL     1      39.656  -0.487  30.545  1.00  0.00     0.003 C 
BRANCH  22  23
HETATM   23  C7  UNL     1      38.642  -1.367  30.062  1.00  0.00     0.016 C 
HETATM   24  C5  UNL     1      37.383  -1.349  30.518  1.00  0.00    -0.009 C 
HETATM   25  C6  UNL     1      36.421  -2.310  29.940  1.00  0.00     0.058 C 
BRANCH  24  26
HETATM   26  C4  UNL     1      37.055  -0.395  31.540  1.00  0.00    -0.072 C 
HETATM   27  C3  UNL     1      36.763   0.419  32.390  1.00  0.00    -0.102 C 
BRANCH  27  28
HETATM   28  C2  UNL     1      36.424   1.418  33.424  1.00  0.00     0.090 C 
HETATM   29  C1  UNL     1      37.670   1.925  34.129  1.00  0.00     0.018 C 
ENDBRANCH  27  28
ENDBRANCH  24  26
ENDBRANCH  22  23
ENDBRANCH   1  21
TORSDOF 8
ENDMDL
MODEL 4
REMARK VINA RESULT: -6.441528174      1.480      2.938
REMARK  8 active torsions:
REMARK  status: ('A' for Active; 'I' for Inactive)
REMARK    1  A    between atoms: C2_2  and  C3_3 
REMARK    2  A    between atoms: C4_4  and  C5_5 
REMARK    3  A    between atoms: C7_7  and  C8_8 
REMARK    4  A    between atoms: C9_9  and  C10_10 
REMARK    5  A    between atoms: C13_16  and  C14_17 
REMARK    6  A    between atoms: C14_17  and  C15_18 
REMARK    7  A    between atoms: C16_19  and  O1_20 
REMARK    8  A    between atoms: C17_26  and  N4_27 
ROOT
HETATM    1  C10 UNL     1      41.795  -2.065  31.322  1.00  0.00     0.040 A 
HETATM    2  N1  UNL     1      42.242  -2.668  32.417  1.00  0.00    -0.364 N 
ATOM      3  H1  UNL     1      42.182  -2.288  33.362  1.00  0.00     0.165 HD
HETATM    4  C11 UNL     1      42.782  -3.847  32.097  1.00  0.00     0.108 A 
HETATM    5  C12 UNL     1      42.693  -4.039  30.763  1.00  0.00     0.035 A 
HETATM    6 BR1  UNL     1      43.250  -5.581  29.747  1.00  0.00    -0.049 Br
HETATM    7  C13 UNL     1      42.066  -2.908  30.237  1.00  0.00    -0.008 A 
ENDROOT
BRANCH   7   8
HETATM    8  C14 UNL     1      41.771  -2.696  28.792  1.00  0.00     0.089 C 
BRANCH   8   9
HETATM    9  C15 UNL     1      42.933  -2.375  27.945  1.00  0.00     0.043 A 
HETATM   10  C16 UNL     1      43.473  -3.060  26.855  1.00  0.00     0.165 A 
HETATM   11  N2  UNL     1      44.513  -2.346  26.328  1.00  0.00    -0.278 N 
HETATM   12  N3  UNL     1      44.633  -1.263  27.039  1.00  0.00    -0.283 N 
ATOM     13  H2  UNL     1      45.088  -2.612  25.528  1.00  0.00     0.189 HD
HETATM   14  C17 UNL     1      43.715  -1.226  28.018  1.00  0.00     0.124 A 
ATOM     15  H3  UNL     1      45.332  -0.539  26.874  1.00  0.00     0.188 HD
BRANCH  10  16
HETATM   16  O1  UNL     1      43.027  -4.267  26.388  1.00  0.00    -0.345 OA
ATOM     17  H1  UNL     1      43.491  -4.815  25.765  1.00  0.00     0.219 HD
ENDBRANCH  10  16
BRANCH  14  18
HETATM   18  N4  UNL     1      43.620  -0.244  28.826  1.00  0.00    -0.384 N 
ATOM     19  H42 UNL     1      43.684  -0.362  29.837  1.00  0.00     0.157 HD
ATOM     20  H41 UNL     1      43.500   0.747  28.617  1.00  0.00     0.157 HD
ENDBRANCH  14  18
ENDBRANCH   8   9
ENDBRANCH   7   8
BRANCH   1  21
HETATM   21  C9  UNL     1      41.151  -0.771  31.235  1.00  0.00     0.030 C 
HETATM   22  C8  UNL     1      39.967  -0.408  30.920  1.00  0.00     0.003 C 
BRANCH  22  23
HETATM   23  C7  UNL     1      38.785  -1.104  30.529  1.00  0.00     0.016 C 
HETATM   24  C5  UNL     1      37.572  -0.816  31.021  1.00  0.00    -0.009 C 
HETATM   25  C6  UNL     1      36.421  -1.608  30.540  1.00  0.00     0.058 C 
BRANCH  24  26
HETATM   26  C4  UNL     1      37.476   0.244  31.984  1.00  0.00    -0.072 C 
HETATM   27  C3  UNL     1      37.372   1.137  32.799  1.00  0.00    -0.102 C 
BRANCH  27  28
HETATM   28  C2  UNL     1      37.253   2.235  33.778  1.00  0.00     0.090 C 
HETATM   29  C1  UNL     1      38.403   2.214  34.771  1.00  0.00     0.018 C 
ENDBRANCH  27  28
ENDBRANCH  24  26
ENDBRANCH  22  23
ENDBRANCH   1  21
TORSDOF 8
ENDMDL
MODEL 5
REMARK VINA RESULT: -6.335490424      1.800      3.423
REMARK  8 active torsions:
REMARK  status: ('A' for Active; 'I' for Inactive)
REMARK    1  A    between atoms: C2_2  and  C3_3 
REMARK    2  A    between atoms: C4_4  and  C5_5 
REMARK    3  A    between atoms: C7_7  and  C8_8 
REMARK    4  A    between atoms: C9_9  and  C10_10 
REMARK    5  A    between atoms: C13_16  and  C14_17 
REMARK    6  A    between atoms: C14_17  and  C15_18 
REMARK    7  A    between atoms: C16_19  and  O1_20 
REMARK    8  A    between atoms: C17_26  and  N4_27 
ROOT
HETATM    1  C10 UNL     1      40.727  -2.695  29.844  1.00  0.00     0.040 A 
HETATM    2  N1  UNL     1      39.773  -3.590  30.070  1.00  0.00    -0.364 N 
ATOM      3  H1  UNL     1      38.784  -3.373  30.195  1.00  0.00     0.165 HD
HETATM    4  C11 UNL     1      40.301  -4.816  30.109  1.00  0.00     0.108 A 
HETATM    5  C12 UNL     1      41.634  -4.743  29.904  1.00  0.00     0.035 A 
HETATM    6 BR1  UNL     1      42.899  -6.194  29.795  1.00  0.00    -0.049 Br
HETATM    7  C13 UNL     1      41.938  -3.391  29.734  1.00  0.00    -0.008 A 
ENDROOT
BRANCH   7   8
HETATM    8  C14 UNL     1      43.305  -2.853  29.488  1.00  0.00     0.089 C 
BRANCH   8   9
HETATM    9  C15 UNL     1      43.561  -2.360  28.124  1.00  0.00     0.043 A 
HETATM   10  C16 UNL     1      43.568  -3.039  26.904  1.00  0.00     0.165 A 
HETATM   11  N2  UNL     1      43.783  -2.155  25.883  1.00  0.00    -0.278 N 
HETATM   12  N3  UNL     1      43.906  -0.975  26.417  1.00  0.00    -0.283 N 
ATOM     13  H2  UNL     1      43.837  -2.378  24.889  1.00  0.00     0.189 HD
HETATM   14  C17 UNL     1      43.781  -1.037  27.753  1.00  0.00     0.124 A 
ATOM     15  H3  UNL     1      44.074  -0.118  25.891  1.00  0.00     0.188 HD
BRANCH  10  16
HETATM   16  O1  UNL     1      43.389  -4.388  26.756  1.00  0.00    -0.345 OA
ATOM     17  H1  UNL     1      42.567  -4.806  26.526  1.00  0.00     0.219 HD
ENDBRANCH  10  16
BRANCH  14  18
HETATM   18  N4  UNL     1      43.837   0.002  28.491  1.00  0.00    -0.384 N 
ATOM     19  H42 UNL     1      43.036   0.620  28.623  1.00  0.00     0.157 HD
ATOM     20  H41 UNL     1      44.616   0.350  29.049  1.00  0.00     0.157 HD
ENDBRANCH  14  18
ENDBRANCH   8   9
ENDBRANCH   7   8
BRANCH   1  21
HETATM   21  C9  UNL     1      40.575  -1.260  29.738  1.00  0.00     0.030 C 
HETATM   22  C8  UNL     1      39.981  -0.392  30.464  1.00  0.00     0.003 C 
BRANCH  22  23
HETATM   23  C7  UNL     1      39.227  -0.456  31.674  1.00  0.00     0.016 C 
HETATM   24  C5  UNL     1      39.795  -0.532  32.885  1.00  0.00    -0.009 C 
HETATM   25  C6  UNL     1      38.908  -0.594  34.065  1.00  0.00     0.058 C 
BRANCH  24  26
HETATM   26  C4  UNL     1      41.228  -0.549  32.951  1.00  0.00    -0.072 C 
HETATM   27  C3  UNL     1      42.440  -0.542  33.016  1.00  0.00    -0.102 C 
BRANCH  27  28
HETATM   28  C2  UNL     1      43.915  -0.536  33.077  1.00  0.00     0.090 C 
HETATM   29  C1  UNL     1      44.432   0.706  33.784  1.00  0.00     0.018 C 
ENDBRANCH  27  28
ENDBRANCH  24  26
ENDBRANCH  22  23
ENDBRANCH   1  21
TORSDOF 8
ENDMDL
