MODEL 1
REMARK VINA RESULT: -6.340026212      0.000      0.000
REMARK  7 active torsions:
REMARK  status: ('A' for Active; 'I' for Inactive)
REMARK    1  A    between atoms: C2_2  and  C3_3 
REMARK    2  A    between atoms: C3_3  and  C4_4 
REMARK    3  A    between atoms: C4_4  and  N1_5 
REMARK    4  A    between atoms: N1_5  and  C5_7 
REMARK    5  A    between atoms: C5_7  and  N2_9 
REMARK    6  A    between atoms: N2_9  and  N3_11 
REMARK       I    between atoms: N3_11  and  C6_13 
REMARK       I    between atoms: C6_13  and  N4_15 
REMARK    7  A    between atoms: N4_15  and  C7_17 
ROOT
HETATM    1  N3  UNL     1      43.907  -0.326  31.978  1.00  0.00    -0.249 N 
ATOM      2  H3  UNL     1      44.718  -0.063  31.418  1.00  0.00     0.192 HD
HETATM    3  C6  UNL     1      43.798   0.148  33.305  1.00  0.00     0.339 C 
HETATM    4  O1  UNL     1      42.801  -0.193  33.955  1.00  0.00    -0.245 OA
HETATM    5  N4  UNL     1      44.792   0.972  33.845  1.00  0.00    -0.307 N 
ATOM      6  H4  UNL     1      45.568   1.189  33.220  1.00  0.00     0.170 HD
ENDROOT
BRANCH   1   7
HETATM    7  N2  UNL     1      42.931  -1.146  31.419  1.00  0.00    -0.272 N 
ATOM      8  H2  UNL     1      42.518  -1.868  32.009  1.00  0.00     0.189 HD
BRANCH   7   9
HETATM    9  C5  UNL     1      42.481  -1.040  30.090  1.00  0.00     0.186 C 
HETATM   10  S1  UNL     1      41.056  -1.743  29.690  1.00  0.00    -0.040 SA
BRANCH   9  11
HETATM   11  N1  UNL     1      43.228  -0.345  29.106  1.00  0.00    -0.366 N 
ATOM     12  H1  UNL     1      43.028   0.641  28.941  1.00  0.00     0.161 HD
BRANCH  11  13
HETATM   13  C4  UNL     1      44.261  -0.985  28.331  1.00  0.00     0.122 C 
BRANCH  13  14
HETATM   14  C3  UNL     1      43.876  -1.060  26.882  1.00  0.00     0.019 C 
BRANCH  14  15
HETATM   15  C2  UNL     1      44.705  -2.056  26.116  1.00  0.00    -0.003 C 
HETATM   16  C1  UNL     1      43.957  -2.453  24.842  1.00  0.00     0.005 C 
ENDBRANCH  14  15
ENDBRANCH  13  14
ENDBRANCH  11  13
ENDBRANCH   9  11
ENDBRANCH   7   9
ENDBRANCH   1   7
BRANCH   5  17
HETATM   17  C7  UNL     1      44.871   1.543  35.129  1.00  0.00     0.043 A 
HETATM   18  C8  UNL     1      44.114   2.585  35.592  1.00  0.00     0.049 A 
HETATM   19  C9  UNL     1      44.249   3.103  36.889  1.00  0.00     0.019 A 
HETATM   20 BR1  UNL     1      43.156   4.550  37.447  1.00  0.00    -0.051 Br
HETATM   21  C10 UNL     1      45.173   2.557  37.752  1.00  0.00    -0.044 A 
HETATM   22  C11 UNL     1      45.328   3.094  39.130  1.00  0.00     0.049 C 
HETATM   23  C12 UNL     1      45.945   1.510  37.312  1.00  0.00     0.017 A 
HETATM   24  C13 UNL     1      45.794   1.019  36.030  1.00  0.00    -0.035 A 
HETATM   25  C14 UNL     1      46.638  -0.106  35.588  1.00  0.00     0.050 C 
ENDBRANCH   5  17
TORSDOF 7
ENDMDL
MODEL 2
REMARK VINA RESULT: -6.318088122      1.650      2.161
REMARK  7 active torsions:
REMARK  status: ('A' for Active; 'I' for Inactive)
REMARK    1  A    between atoms: C2_2  and  C3_3 
REMARK    2  A    between atoms: C3_3  and  C4_4 
REMARK    3  A    between atoms: C4_4  and  N1_5 
REMARK    4  A    between atoms: N1_5  and  C5_7 
REMARK    5  A    between atoms: C5_7  and  N2_9 
REMARK    6  A    between atoms: N2_9  and  N3_11 
REMARK       I    between atoms: N3_11  and  C6_13 
REMARK       I    between atoms: C6_13  and  N4_15 
REMARK    7  A    between atoms: N4_15  and  C7_17 
ROOT
HETATM    1  N3  UNL     1      43.910  -0.392  31.921  1.00  0.00    -0.249 N 
ATOM      2  H3  UNL     1      44.350   0.290  31.303  1.00  0.00     0.192 HD
HETATM    3  C6  UNL     1      44.127  -0.302  33.315  1.00  0.00     0.339 C 
HETATM    4  O1  UNL     1      43.580  -1.146  34.036  1.00  0.00    -0.245 OA
HETATM    5  N4  UNL     1      44.937   0.712  33.841  1.00  0.00    -0.307 N 
ATOM      6  H4  UNL     1      45.337   1.352  33.156  1.00  0.00     0.170 HD
ENDROOT
BRANCH   1   7
HETATM    7  N2  UNL     1      43.110  -1.390  31.375  1.00  0.00    -0.272 N 
ATOM      8  H2  UNL     1      42.869  -2.187  31.965  1.00  0.00     0.189 HD
BRANCH   7   9
HETATM    9  C5  UNL     1      42.614  -1.369  30.059  1.00  0.00     0.186 C 
HETATM   10  S1  UNL     1      41.320  -2.306  29.697  1.00  0.00    -0.040 SA
BRANCH   9  11
HETATM   11  N1  UNL     1      43.205  -0.561  29.055  1.00  0.00    -0.366 N 
ATOM     12  H1  UNL     1      42.860   0.389  28.920  1.00  0.00     0.161 HD
BRANCH  11  13
HETATM   13  C4  UNL     1      44.278  -1.037  28.219  1.00  0.00     0.122 C 
BRANCH  13  14
HETATM   14  C3  UNL     1      43.871  -1.041  26.774  1.00  0.00     0.019 C 
BRANCH  14  15
HETATM   15  C2  UNL     1      44.712  -1.970  25.940  1.00  0.00    -0.003 C 
HETATM   16  C1  UNL     1      44.124  -3.380  26.019  1.00  0.00     0.005 C 
ENDBRANCH  14  15
ENDBRANCH  13  14
ENDBRANCH  11  13
ENDBRANCH   9  11
ENDBRANCH   7   9
ENDBRANCH   1   7
BRANCH   5  17
HETATM   17  C7  UNL     1      45.275   0.972  35.183  1.00  0.00     0.043 A 
HETATM   18  C8  UNL     1      46.230   0.316  35.911  1.00  0.00     0.049 A 
HETATM   19  C9  UNL     1      46.514   0.632  37.248  1.00  0.00     0.019 A 
HETATM   20 BR1  UNL     1      47.856  -0.330  38.182  1.00  0.00    -0.051 Br
HETATM   21  C10 UNL     1      45.817   1.640  37.877  1.00  0.00    -0.044 A 
HETATM   22  C11 UNL     1      46.106   1.987  39.293  1.00  0.00     0.049 C 
HETATM   23  C12 UNL     1      44.853   2.314  37.168  1.00  0.00     0.017 A 
HETATM   24  C13 UNL     1      44.592   1.983  35.853  1.00  0.00    -0.035 A 
HETATM   25  C14 UNL     1      43.552   2.726  35.118  1.00  0.00     0.050 C 
ENDBRANCH   5  17
TORSDOF 7
ENDMDL
MODEL 3
REMARK VINA RESULT: -6.281882741      3.692      9.349
REMARK  7 active torsions:
REMARK  status: ('A' for Active; 'I' for Inactive)
REMARK    1  A    between atoms: C2_2  and  C3_3 
REMARK    2  A    between atoms: C3_3  and  C4_4 
REMARK    3  A    between atoms: C4_4  and  N1_5 
REMARK    4  A    between atoms: N1_5  and  C5_7 
REMARK    5  A    between atoms: C5_7  and  N2_9 
REMARK    6  A    between atoms: N2_9  and  N3_11 
REMARK       I    between atoms: N3_11  and  C6_13 
REMARK       I    between atoms: C6_13  and  N4_15 
REMARK    7  A    between atoms: N4_15  and  C7_17 
ROOT
HETATM    1  N3  UNL     1      43.194  -0.599  31.591  1.00  0.00    -0.249 N 
ATOM      2  H3  UNL     1      44.149  -0.356  31.855  1.00  0.00     0.192 HD
HETATM    3  C6  UNL     1      42.942  -1.113  30.299  1.00  0.00     0.339 C 
HETATM    4  O1  UNL     1      41.771  -1.395  30.012  1.00  0.00    -0.245 OA
HETATM    5  N4  UNL     1      43.992  -1.287  29.390  1.00  0.00    -0.307 N 
ATOM      6  H4  UNL     1      44.916  -1.021  29.731  1.00  0.00     0.170 HD
ENDROOT
BRANCH   1   7
HETATM    7  N2  UNL     1      42.167  -0.417  32.512  1.00  0.00    -0.272 N 
ATOM      8  H2  UNL     1      41.212  -0.607  32.207  1.00  0.00     0.189 HD
BRANCH   7   9
HETATM    9  C5  UNL     1      42.365   0.012  33.837  1.00  0.00     0.186 C 
HETATM   10  S1  UNL     1      41.072   0.068  34.842  1.00  0.00    -0.040 SA
BRANCH   9  11
HETATM   11  N1  UNL     1      43.645   0.392  34.311  1.00  0.00    -0.366 N 
ATOM     12  H1  UNL     1      44.237  -0.313  34.751  1.00  0.00     0.161 HD
BRANCH  11  13
HETATM   13  C4  UNL     1      44.140   1.740  34.194  1.00  0.00     0.122 C 
BRANCH  13  14
HETATM   14  C3  UNL     1      43.900   2.513  35.458  1.00  0.00     0.019 C 
BRANCH  14  15
HETATM   15  C2  UNL     1      45.130   2.604  36.321  1.00  0.00    -0.003 C 
HETATM   16  C1  UNL     1      44.763   3.279  37.644  1.00  0.00     0.005 C 
ENDBRANCH  14  15
ENDBRANCH  13  14
ENDBRANCH  11  13
ENDBRANCH   9  11
ENDBRANCH   7   9
ENDBRANCH   1   7
BRANCH   5  17
HETATM   17  C7  UNL     1      43.953  -1.778  28.071  1.00  0.00     0.043 A 
HETATM   18  C8  UNL     1      43.949  -1.018  26.933  1.00  0.00     0.049 A 
HETATM   19  C9  UNL     1      43.910  -1.579  25.647  1.00  0.00     0.019 A 
HETATM   20 BR1  UNL     1      43.908  -0.449  24.123  1.00  0.00    -0.051 Br
HETATM   21  C10 UNL     1      43.874  -2.948  25.497  1.00  0.00    -0.044 A 
HETATM   22  C11 UNL     1      43.832  -3.558  24.142  1.00  0.00     0.049 C 
HETATM   23  C12 UNL     1      43.877  -3.732  26.624  1.00  0.00     0.017 A 
HETATM   24  C13 UNL     1      43.915  -3.155  27.879  1.00  0.00    -0.035 A 
HETATM   25  C14 UNL     1      43.919  -4.025  29.069  1.00  0.00     0.050 C 
ENDBRANCH   5  17
TORSDOF 7
ENDMDL
MODEL 4
REMARK VINA RESULT: -6.262175486      3.880      8.996
REMARK  7 active torsions:
REMARK  status: ('A' for Active; 'I' for Inactive)
REMARK    1  A    between atoms: C2_2  and  C3_3 
REMARK    2  A    between atoms: C3_3  and  C4_4 
REMARK    3  A    between atoms: C4_4  and  N1_5 
REMARK    4  A    between atoms: N1_5  and  C5_7 
REMARK    5  A    between atoms: C5_7  and  N2_9 
REMARK    6  A    between atoms: N2_9  and  N3_11 
REMARK       I    between atoms: N3_11  and  C6_13 
REMARK       I    between atoms: C6_13  and  N4_15 
REMARK    7  A    between atoms: N4_15  and  C7_17 
ROOT
HETATM    1  N3  UNL     1      43.095  -0.608  31.533  1.00  0.00    -0.249 N 
ATOM      2  H3  UNL     1      44.042  -0.353  31.815  1.00  0.00     0.192 HD
HETATM    3  C6  UNL     1      42.876  -1.122  30.234  1.00  0.00     0.339 C 
HETATM    4  O1  UNL     1      41.715  -1.420  29.925  1.00  0.00    -0.245 OA
HETATM    5  N4  UNL     1      43.946  -1.279  29.346  1.00  0.00    -0.307 N 
ATOM      6  H4  UNL     1      44.859  -1.001  29.706  1.00  0.00     0.170 HD
ENDROOT
BRANCH   1   7
HETATM    7  N2  UNL     1      42.048  -0.443  32.433  1.00  0.00    -0.272 N 
ATOM      8  H2  UNL     1      41.114  -0.284  32.057  1.00  0.00     0.189 HD
BRANCH   7   9
HETATM    9  C5  UNL     1      42.199  -0.483  33.832  1.00  0.00     0.186 C 
HETATM   10  S1  UNL     1      42.379  -1.941  34.557  1.00  0.00    -0.040 SA
BRANCH   9  11
HETATM   11  N1  UNL     1      42.198   0.700  34.613  1.00  0.00    -0.366 N 
ATOM     12  H1  UNL     1      41.316   1.193  34.758  1.00  0.00     0.161 HD
BRANCH  11  13
HETATM   13  C4  UNL     1      43.398   1.230  35.209  1.00  0.00     0.122 C 
BRANCH  13  14
HETATM   14  C3  UNL     1      44.360   1.697  34.155  1.00  0.00     0.019 C 
BRANCH  14  15
HETATM   15  C2  UNL     1      45.555   0.791  34.024  1.00  0.00    -0.003 C 
HETATM   16  C1  UNL     1      45.905   0.224  35.401  1.00  0.00     0.005 C 
ENDBRANCH  14  15
ENDBRANCH  13  14
ENDBRANCH  11  13
ENDBRANCH   9  11
ENDBRANCH   7   9
ENDBRANCH   1   7
BRANCH   5  17
HETATM   17  C7  UNL     1      43.940  -1.767  28.025  1.00  0.00     0.043 A 
HETATM   18  C8  UNL     1      43.925  -1.005  26.889  1.00  0.00     0.049 A 
HETATM   19  C9  UNL     1      43.919  -1.563  25.601  1.00  0.00     0.019 A 
HETATM   20 BR1  UNL     1      43.899  -0.429  24.080  1.00  0.00    -0.051 Br
HETATM   21  C10 UNL     1      43.931  -2.931  25.448  1.00  0.00    -0.044 A 
HETATM   22  C11 UNL     1      43.926  -3.539  24.091  1.00  0.00     0.049 C 
HETATM   23  C12 UNL     1      43.946  -3.719  26.573  1.00  0.00     0.017 A 
HETATM   24  C13 UNL     1      43.950  -3.145  27.829  1.00  0.00    -0.035 A 
HETATM   25  C14 UNL     1      43.968  -4.017  29.017  1.00  0.00     0.050 C 
ENDBRANCH   5  17
TORSDOF 7
ENDMDL
MODEL 5
REMARK VINA RESULT: -6.204361961      1.279      1.279
REMARK  7 active torsions:
REMARK  status: ('A' for Active; 'I' for Inactive)
REMARK    1  A    between atoms: C2_2  and  C3_3 
REMARK    2  A    between atoms: C3_3  and  C4_4 
REMARK    3  A    between atoms: C4_4  and  N1_5 
REMARK    4  A    between atoms: N1_5  and  C5_7 
REMARK    5  A    between atoms: C5_7  and  N2_9 
REMARK    6  A    between atoms: N2_9  and  N3_11 
REMARK       I    between atoms: N3_11  and  C6_13 
REMARK       I    between atoms: C6_13  and  N4_15 
REMARK    7  A    between atoms: N4_15  and  C7_17 
ROOT
HETATM    1  N3  UNL     1      43.752  -0.884  32.264  1.00  0.00    -0.249 N 
ATOM      2  H3  UNL     1      43.803  -1.882  32.468  1.00  0.00     0.192 HD
HETATM    3  C6  UNL     1      43.971   0.047  33.305  1.00  0.00     0.339 C 
HETATM    4  O1  UNL     1      43.899   1.250  33.023  1.00  0.00    -0.245 OA
HETATM    5  N4  UNL     1      44.258  -0.397  34.602  1.00  0.00    -0.307 N 
ATOM      6  H4  UNL     1      44.292  -1.409  34.721  1.00  0.00     0.170 HD
ENDROOT
BRANCH   1   7
HETATM    7  N2  UNL     1      43.466  -0.467  30.968  1.00  0.00    -0.272 N 
ATOM      8  H2  UNL     1      43.378   0.534  30.795  1.00  0.00     0.189 HD
BRANCH   7   9
HETATM    9  C5  UNL     1      43.290  -1.343  29.881  1.00  0.00     0.186 C 
HETATM   10  S1  UNL     1      43.219  -2.953  30.178  1.00  0.00    -0.040 SA
BRANCH   9  11
HETATM   11  N1  UNL     1      43.176  -0.864  28.552  1.00  0.00    -0.366 N 
ATOM     12  H1  UNL     1      42.265  -0.551  28.217  1.00  0.00     0.161 HD
BRANCH  11  13
HETATM   13  C4  UNL     1      44.304  -0.802  27.657  1.00  0.00     0.122 C 
BRANCH  13  14
HETATM   14  C3  UNL     1      43.911  -1.214  26.268  1.00  0.00     0.019 C 
BRANCH  14  15
HETATM   15  C2  UNL     1      44.579  -2.491  25.834  1.00  0.00    -0.003 C 
HETATM   16  C1  UNL     1      43.935  -2.974  24.532  1.00  0.00     0.005 C 
ENDBRANCH  14  15
ENDBRANCH  13  14
ENDBRANCH  11  13
ENDBRANCH   9  11
ENDBRANCH   7   9
ENDBRANCH   1   7
BRANCH   5  17
HETATM   17  C7  UNL     1      44.505   0.358  35.764  1.00  0.00     0.043 A 
HETATM   18  C8  UNL     1      43.555   0.936  36.562  1.00  0.00     0.049 A 
HETATM   19  C9  UNL     1      43.878   1.677  37.710  1.00  0.00     0.019 A 
HETATM   20 BR1  UNL     1      42.495   2.444  38.758  1.00  0.00    -0.051 Br
HETATM   21  C10 UNL     1      45.197   1.841  38.070  1.00  0.00    -0.044 A 
HETATM   22  C11 UNL     1      45.555   2.622  39.284  1.00  0.00     0.049 C 
HETATM   23  C12 UNL     1      46.169   1.271  37.286  1.00  0.00     0.017 A 
HETATM   24  C13 UNL     1      45.825   0.547  36.161  1.00  0.00    -0.035 A 
HETATM   25  C14 UNL     1      46.892  -0.054  35.341  1.00  0.00     0.050 C 
ENDBRANCH   5  17
TORSDOF 7
ENDMDL
