MODEL 1
REMARK VINA RESULT: -7.690438250      0.000      0.000
REMARK  4 active torsions:
REMARK  status: ('A' for Active; 'I' for Inactive)
REMARK    1  A    between atoms: C3_3  and  N1_4 
REMARK       I    between atoms: N1_4  and  C4_6 
REMARK       I    between atoms: C4_6  and  N2_8 
REMARK    2  A    between atoms: N2_8  and  C5_10 
REMARK    3  A    between atoms: C8_13  and  N3_14 
REMARK       I    between atoms: N3_14  and  C9_16 
REMARK       I    between atoms: C9_16  and  N5_22 
REMARK       I    between atoms: N4_17  and  C10_19 
REMARK    4  A    between atoms: N5_22  and  C12_24 
ROOT
HETATM    1  C1  UNL     1      43.509   4.824  37.551  1.00  0.00     0.014 C 
HETATM    2  C2  UNL     1      43.923   3.983  36.783  1.00  0.00    -0.098 C 
HETATM    3  C3  UNL     1      44.403   2.970  35.841  1.00  0.00     0.217 C 
ENDROOT
BRANCH   3   4
HETATM    4  N1  UNL     1      43.450   1.887  35.733  1.00  0.00    -0.333 N 
HETATM    5  C4  UNL     1      43.303   1.141  34.507  1.00  0.00     0.321 C 
HETATM    6  O1  UNL     1      44.019   1.452  33.534  1.00  0.00    -0.247 OA
HETATM    7  N2  UNL     1      42.380   0.099  34.421  1.00  0.00    -0.309 N 
ATOM      8  H2  UNL     1      41.817  -0.099  35.248  1.00  0.00     0.170 HD
ATOM      9  H1  UNL     1      42.873   1.646  36.538  1.00  0.00     0.165 HD
BRANCH   7  10
HETATM   10  C5  UNL     1      42.165  -0.701  33.285  1.00  0.00     0.036 A 
HETATM   11  C6  UNL     1      41.247  -0.470  32.313  1.00  0.00     0.032 A 
HETATM   12  C7  UNL     1      41.102  -1.347  31.230  1.00  0.00     0.032 A 
HETATM   13  C8  UNL     1      41.896  -2.462  31.139  1.00  0.00     0.049 A 
HETATM   14  C18 UNL     1      42.844  -2.722  32.120  1.00  0.00     0.032 A 
HETATM   15  C19 UNL     1      42.957  -1.850  33.156  1.00  0.00     0.032 A 
BRANCH  13  16
HETATM   16  N3  UNL     1      41.738  -3.351  30.027  1.00  0.00    -0.192 N 
HETATM   17  C9  UNL     1      42.807  -4.169  29.587  1.00  0.00     0.685 C 
HETATM   18  N4  UNL     1      42.727  -5.438  29.791  1.00  0.00    -0.160 N 
HETATM   19  N5  UNL     1      43.954  -3.660  28.937  1.00  0.00    -0.192 N 
HETATM   20  C10 UNL     1      41.624  -6.027  30.431  1.00  0.00     0.231 C 
ATOM     21  H4  UNL     1      43.492  -6.036  29.477  1.00  0.00     0.187 HD
HETATM   22  C11 UNL     1      41.490  -7.510  30.436  1.00  0.00     0.118 C 
HETATM   23  O2  UNL     1      40.718  -5.367  31.013  1.00  0.00    -0.273 OA
ATOM     24  H5  UNL     1      44.854  -3.803  29.394  1.00  0.00     0.184 HD
ATOM     25  H3  UNL     1      40.841  -3.396  29.544  1.00  0.00     0.184 HD
BRANCH  19  26
HETATM   26  C12 UNL     1      43.949  -2.965  27.698  1.00  0.00     0.049 A 
HETATM   27  C13 UNL     1      43.955  -3.639  26.499  1.00  0.00     0.033 A 
HETATM   28  C14 UNL     1      43.949  -2.927  25.304  1.00  0.00     0.044 A 
HETATM   29  C15 UNL     1      43.938  -1.537  25.300  1.00  0.00     0.116 A 
HETATM   30  F1  UNL     1      43.933  -0.868  24.100  1.00  0.00    -0.206 F 
HETATM   31  C16 UNL     1      43.933  -0.895  26.508  1.00  0.00     0.044 A 
HETATM   32  C17 UNL     1      43.937  -1.579  27.688  1.00  0.00     0.033 A 
ENDBRANCH  19  26
ENDBRANCH  13  16
ENDBRANCH   7  10
ENDBRANCH   3   4
TORSDOF 4
ENDMDL
MODEL 2
REMARK VINA RESULT: -7.447913953      0.839      1.153
REMARK  4 active torsions:
REMARK  status: ('A' for Active; 'I' for Inactive)
REMARK    1  A    between atoms: C3_3  and  N1_4 
REMARK       I    between atoms: N1_4  and  C4_6 
REMARK       I    between atoms: C4_6  and  N2_8 
REMARK    2  A    between atoms: N2_8  and  C5_10 
REMARK    3  A    between atoms: C8_13  and  N3_14 
REMARK       I    between atoms: N3_14  and  C9_16 
REMARK       I    between atoms: C9_16  and  N5_22 
REMARK       I    between atoms: N4_17  and  C10_19 
REMARK    4  A    between atoms: N5_22  and  C12_24 
ROOT
HETATM    1  C1  UNL     1      46.532   1.137  37.100  1.00  0.00     0.014 C 
HETATM    2  C2  UNL     1      45.677   1.722  36.472  1.00  0.00    -0.098 C 
HETATM    3  C3  UNL     1      44.626   2.425  35.733  1.00  0.00     0.217 C 
ENDROOT
BRANCH   3   4
HETATM    4  N1  UNL     1      43.504   1.546  35.488  1.00  0.00    -0.333 N 
HETATM    5  C4  UNL     1      43.412   0.773  34.275  1.00  0.00     0.321 C 
HETATM    6  O1  UNL     1      44.328   0.879  33.433  1.00  0.00    -0.247 OA
HETATM    7  N2  UNL     1      42.323  -0.070  34.055  1.00  0.00    -0.309 N 
ATOM      8  H2  UNL     1      41.602  -0.104  34.776  1.00  0.00     0.170 HD
ATOM      9  H1  UNL     1      42.764   1.472  36.186  1.00  0.00     0.165 HD
BRANCH   7  10
HETATM   10  C5  UNL     1      42.139  -0.877  32.919  1.00  0.00     0.036 A 
HETATM   11  C6  UNL     1      41.345  -0.588  31.858  1.00  0.00     0.032 A 
HETATM   12  C7  UNL     1      41.219  -1.477  30.782  1.00  0.00     0.032 A 
HETATM   13  C8  UNL     1      41.905  -2.666  30.790  1.00  0.00     0.049 A 
HETATM   14  C18 UNL     1      42.726  -2.987  31.864  1.00  0.00     0.032 A 
HETATM   15  C19 UNL     1      42.825  -2.100  32.890  1.00  0.00     0.032 A 
BRANCH  13  16
HETATM   16  N3  UNL     1      41.768  -3.566  29.686  1.00  0.00    -0.192 N 
HETATM   17  C9  UNL     1      42.856  -4.360  29.249  1.00  0.00     0.685 C 
HETATM   18  N4  UNL     1      42.810  -5.628  29.463  1.00  0.00    -0.160 N 
HETATM   19  N5  UNL     1      43.988  -3.826  28.592  1.00  0.00    -0.192 N 
HETATM   20  C10 UNL     1      41.724  -6.241  30.110  1.00  0.00     0.231 C 
ATOM     21  H4  UNL     1      43.590  -6.208  29.151  1.00  0.00     0.187 HD
HETATM   22  C11 UNL     1      41.629  -7.727  30.126  1.00  0.00     0.118 C 
HETATM   23  O2  UNL     1      40.804  -5.601  30.690  1.00  0.00    -0.273 OA
ATOM     24  H5  UNL     1      44.893  -3.941  29.047  1.00  0.00     0.184 HD
ATOM     25  H3  UNL     1      40.871  -3.638  29.206  1.00  0.00     0.184 HD
BRANCH  19  26
HETATM   26  C12 UNL     1      43.962  -3.141  27.347  1.00  0.00     0.049 A 
HETATM   27  C13 UNL     1      43.974  -3.823  26.154  1.00  0.00     0.033 A 
HETATM   28  C14 UNL     1      43.947  -3.120  24.954  1.00  0.00     0.044 A 
HETATM   29  C15 UNL     1      43.908  -1.731  24.939  1.00  0.00     0.116 A 
HETATM   30  F1  UNL     1      43.882  -1.071  23.734  1.00  0.00    -0.206 F 
HETATM   31  C16 UNL     1      43.897  -1.080  26.142  1.00  0.00     0.044 A 
HETATM   32  C17 UNL     1      43.922  -1.755  27.327  1.00  0.00     0.033 A 
ENDBRANCH  19  26
ENDBRANCH  13  16
ENDBRANCH   7  10
ENDBRANCH   3   4
TORSDOF 4
ENDMDL
MODEL 3
REMARK VINA RESULT: -7.398147914      0.356      1.338
REMARK  4 active torsions:
REMARK  status: ('A' for Active; 'I' for Inactive)
REMARK    1  A    between atoms: C3_3  and  N1_4 
REMARK       I    between atoms: N1_4  and  C4_6 
REMARK       I    between atoms: C4_6  and  N2_8 
REMARK    2  A    between atoms: N2_8  and  C5_10 
REMARK    3  A    between atoms: C8_13  and  N3_14 
REMARK       I    between atoms: N3_14  and  C9_16 
REMARK       I    between atoms: C9_16  and  N5_22 
REMARK       I    between atoms: N4_17  and  C10_19 
REMARK    4  A    between atoms: N5_22  and  C12_24 
ROOT
HETATM    1  C1  UNL     1      43.968   4.757  37.244  1.00  0.00     0.014 C 
HETATM    2  C2  UNL     1      44.292   3.734  36.681  1.00  0.00    -0.098 C 
HETATM    3  C3  UNL     1      44.670   2.505  35.980  1.00  0.00     0.217 C 
ENDROOT
BRANCH   3   4
HETATM    4  N1  UNL     1      43.495   1.734  35.639  1.00  0.00    -0.333 N 
HETATM    5  C4  UNL     1      43.493   0.836  34.511  1.00  0.00     0.321 C 
HETATM    6  O1  UNL     1      44.533   0.737  33.829  1.00  0.00    -0.247 OA
HETATM    7  N2  UNL     1      42.350   0.099  34.196  1.00  0.00    -0.309 N 
ATOM      8  H2  UNL     1      41.529   0.233  34.786  1.00  0.00     0.170 HD
ATOM      9  H1  UNL     1      42.653   1.827  36.207  1.00  0.00     0.165 HD
BRANCH   7  10
HETATM   10  C5  UNL     1      42.242  -0.813  33.132  1.00  0.00     0.036 A 
HETATM   11  C6  UNL     1      42.957  -1.956  32.990  1.00  0.00     0.032 A 
HETATM   12  C7  UNL     1      42.783  -2.786  31.874  1.00  0.00     0.032 A 
HETATM   13  C8  UNL     1      41.876  -2.447  30.901  1.00  0.00     0.049 A 
HETATM   14  C18 UNL     1      41.130  -1.282  31.023  1.00  0.00     0.032 A 
HETATM   15  C19 UNL     1      41.325  -0.501  32.118  1.00  0.00     0.032 A 
BRANCH  13  16
HETATM   16  N3  UNL     1      41.707  -3.303  29.766  1.00  0.00    -0.192 N 
HETATM   17  C9  UNL     1      42.764  -4.125  29.305  1.00  0.00     0.685 C 
HETATM   18  N4  UNL     1      42.665  -5.398  29.475  1.00  0.00    -0.160 N 
HETATM   19  N5  UNL     1      43.919  -3.617  28.671  1.00  0.00    -0.192 N 
HETATM   20  C10 UNL     1      41.551  -5.987  30.097  1.00  0.00     0.231 C 
ATOM     21  H4  UNL     1      43.420  -5.998  29.146  1.00  0.00     0.187 HD
HETATM   22  C11 UNL     1      41.395  -7.467  30.062  1.00  0.00     0.118 C 
HETATM   23  O2  UNL     1      40.655  -5.329  30.696  1.00  0.00    -0.273 OA
ATOM     24  H5  UNL     1      44.817  -3.785  29.124  1.00  0.00     0.184 HD
ATOM     25  H3  UNL     1      40.810  -3.321  29.281  1.00  0.00     0.184 HD
BRANCH  19  26
HETATM   26  C12 UNL     1      43.927  -2.888  27.450  1.00  0.00     0.049 A 
HETATM   27  C13 UNL     1      43.911  -1.513  27.436  1.00  0.00     0.033 A 
HETATM   28  C14 UNL     1      43.920  -0.833  26.223  1.00  0.00     0.044 A 
HETATM   29  C15 UNL     1      43.946  -1.523  25.016  1.00  0.00     0.116 A 
HETATM   30  F1  UNL     1      43.955  -0.817  23.838  1.00  0.00    -0.206 F 
HETATM   31  C16 UNL     1      43.962  -2.890  25.062  1.00  0.00     0.044 A 
HETATM   32  C17 UNL     1      43.954  -3.571  26.244  1.00  0.00     0.033 A 
ENDBRANCH  19  26
ENDBRANCH  13  16
ENDBRANCH   7  10
ENDBRANCH   3   4
TORSDOF 4
ENDMDL
MODEL 4
REMARK VINA RESULT: -7.261054975      3.252      3.648
REMARK  4 active torsions:
REMARK  status: ('A' for Active; 'I' for Inactive)
REMARK    1  A    between atoms: C3_3  and  N1_4 
REMARK       I    between atoms: N1_4  and  C4_6 
REMARK       I    between atoms: C4_6  and  N2_8 
REMARK    2  A    between atoms: N2_8  and  C5_10 
REMARK    3  A    between atoms: C8_13  and  N3_14 
REMARK       I    between atoms: N3_14  and  C9_16 
REMARK       I    between atoms: C9_16  and  N5_22 
REMARK       I    between atoms: N4_17  and  C10_19 
REMARK    4  A    between atoms: N5_22  and  C12_24 
ROOT
HETATM    1  C1  UNL     1      38.540   2.836  35.486  1.00  0.00     0.014 C 
HETATM    2  C2  UNL     1      37.854   2.472  34.556  1.00  0.00    -0.098 C 
HETATM    3  C3  UNL     1      37.013   2.016  33.448  1.00  0.00     0.217 C 
ENDROOT
BRANCH   3   4
HETATM    4  N1  UNL     1      37.075   0.576  33.322  1.00  0.00    -0.333 N 
HETATM    5  C4  UNL     1      37.942  -0.052  32.357  1.00  0.00     0.321 C 
HETATM    6  O1  UNL     1      38.644   0.677  31.626  1.00  0.00    -0.247 OA
HETATM    7  N2  UNL     1      37.990  -1.442  32.250  1.00  0.00    -0.309 N 
ATOM      8  H2  UNL     1      37.384  -1.982  32.868  1.00  0.00     0.170 HD
ATOM      9  H1  UNL     1      36.495  -0.004  33.928  1.00  0.00     0.165 HD
BRANCH   7  10
HETATM   10  C5  UNL     1      38.807  -2.159  31.358  1.00  0.00     0.036 A 
HETATM   11  C6  UNL     1      38.547  -2.380  30.045  1.00  0.00     0.032 A 
HETATM   12  C7  UNL     1      39.423  -3.128  29.248  1.00  0.00     0.032 A 
HETATM   13  C8  UNL     1      40.568  -3.653  29.793  1.00  0.00     0.049 A 
HETATM   14  C18 UNL     1      40.859  -3.441  31.135  1.00  0.00     0.032 A 
HETATM   15  C19 UNL     1      39.987  -2.710  31.878  1.00  0.00     0.032 A 
BRANCH  13  16
HETATM   16  N3  UNL     1      41.456  -4.416  28.969  1.00  0.00    -0.192 N 
HETATM   17  C9  UNL     1      42.859  -4.342  29.141  1.00  0.00     0.685 C 
HETATM   18  N4  UNL     1      43.468  -5.363  29.635  1.00  0.00    -0.160 N 
HETATM   19  N5  UNL     1      43.621  -3.202  28.798  1.00  0.00    -0.192 N 
HETATM   20  C10 UNL     1      42.788  -6.536  30.004  1.00  0.00     0.231 C 
ATOM     21  H4  UNL     1      44.479  -5.319  29.762  1.00  0.00     0.187 HD
HETATM   22  C11 UNL     1      43.570  -7.753  30.356  1.00  0.00     0.118 C 
HETATM   23  O2  UNL     1      41.529  -6.627  30.057  1.00  0.00    -0.273 OA
ATOM     24  H5  UNL     1      44.130  -2.734  29.547  1.00  0.00     0.184 HD
ATOM     25  H3  UNL     1      41.071  -5.024  28.246  1.00  0.00     0.184 HD
BRANCH  19  26
HETATM   26  C12 UNL     1      43.732  -2.657  27.490  1.00  0.00     0.049 A 
HETATM   27  C13 UNL     1      43.769  -3.466  26.378  1.00  0.00     0.033 A 
HETATM   28  C14 UNL     1      43.878  -2.899  25.112  1.00  0.00     0.044 A 
HETATM   29  C15 UNL     1      43.950  -1.520  24.950  1.00  0.00     0.116 A 
HETATM   30  F1  UNL     1      44.057  -0.996  23.685  1.00  0.00    -0.206 F 
HETATM   31  C16 UNL     1      43.912  -0.742  26.075  1.00  0.00     0.044 A 
HETATM   32  C17 UNL     1      43.804  -1.283  27.322  1.00  0.00     0.033 A 
ENDBRANCH  19  26
ENDBRANCH  13  16
ENDBRANCH   7  10
ENDBRANCH   3   4
TORSDOF 4
ENDMDL
MODEL 5
REMARK VINA RESULT: -7.258540204      4.541      9.395
REMARK  4 active torsions:
REMARK  status: ('A' for Active; 'I' for Inactive)
REMARK    1  A    between atoms: C3_3  and  N1_4 
REMARK       I    between atoms: N1_4  and  C4_6 
REMARK       I    between atoms: C4_6  and  N2_8 
REMARK    2  A    between atoms: N2_8  and  C5_10 
REMARK    3  A    between atoms: C8_13  and  N3_14 
REMARK       I    between atoms: N3_14  and  C9_16 
REMARK       I    between atoms: C9_16  and  N5_22 
REMARK       I    between atoms: N4_17  and  C10_19 
REMARK    4  A    between atoms: N5_22  and  C12_24 
ROOT
HETATM    1  C1  UNL     1      44.344  -1.529  26.473  1.00  0.00     0.014 C 
HETATM    2  C2  UNL     1      43.529  -1.986  27.245  1.00  0.00    -0.098 C 
HETATM    3  C3  UNL     1      42.529  -2.519  28.172  1.00  0.00     0.217 C 
ENDROOT
BRANCH   3   4
HETATM    4  N1  UNL     1      42.190  -1.532  29.174  1.00  0.00    -0.333 N 
HETATM    5  C4  UNL     1      42.735  -1.604  30.507  1.00  0.00     0.321 C 
HETATM    6  O1  UNL     1      43.511  -2.543  30.781  1.00  0.00    -0.247 OA
HETATM    7  N2  UNL     1      42.398  -0.643  31.461  1.00  0.00    -0.309 N 
ATOM      8  H2  UNL     1      41.750   0.092  31.178  1.00  0.00     0.170 HD
ATOM      9  H1  UNL     1      41.554  -0.772  28.934  1.00  0.00     0.165 HD
BRANCH   7  10
HETATM   10  C5  UNL     1      42.880  -0.609  32.781  1.00  0.00     0.036 A 
HETATM   11  C6  UNL     1      42.335  -1.253  33.843  1.00  0.00     0.032 A 
HETATM   12  C7  UNL     1      42.887  -1.132  35.126  1.00  0.00     0.032 A 
HETATM   13  C8  UNL     1      43.998  -0.351  35.324  1.00  0.00     0.049 A 
HETATM   14  C18 UNL     1      44.576   0.319  34.253  1.00  0.00     0.032 A 
HETATM   15  C19 UNL     1      44.014   0.179  33.024  1.00  0.00     0.032 A 
BRANCH  13  16
HETATM   16  N3  UNL     1      44.553  -0.235  36.639  1.00  0.00    -0.192 N 
HETATM   17  C9  UNL     1      45.346   0.880  37.003  1.00  0.00     0.685 C 
HETATM   18  N4  UNL     1      44.853   1.734  37.830  1.00  0.00    -0.160 N 
HETATM   19  N5  UNL     1      46.649   1.099  36.501  1.00  0.00    -0.192 N 
HETATM   20  C10 UNL     1      43.566   1.594  38.376  1.00  0.00     0.231 C 
ATOM     21  H4  UNL     1      45.417   2.541  38.099  1.00  0.00     0.187 HD
HETATM   22  C11 UNL     1      43.144   2.488  39.489  1.00  0.00     0.118 C 
HETATM   23  O2  UNL     1      42.726   0.740  37.975  1.00  0.00    -0.273 OA
ATOM     24  H5  UNL     1      46.808   1.950  35.962  1.00  0.00     0.184 HD
ATOM     25  H3  UNL     1      44.374  -0.968  37.325  1.00  0.00     0.184 HD
BRANCH  19  26
HETATM   26  C12 UNL     1      47.755   0.226  36.690  1.00  0.00     0.049 A 
HETATM   27  C13 UNL     1      48.316   0.040  37.932  1.00  0.00     0.033 A 
HETATM   28  C14 UNL     1      49.397  -0.822  38.080  1.00  0.00     0.044 A 
HETATM   29  C15 UNL     1      49.923  -1.504  36.990  1.00  0.00     0.116 A 
HETATM   30  F1  UNL     1      50.992  -2.348  37.175  1.00  0.00    -0.206 F 
HETATM   31  C16 UNL     1      49.344  -1.299  35.768  1.00  0.00     0.044 A 
HETATM   32  C17 UNL     1      48.283  -0.457  35.606  1.00  0.00     0.033 A 
ENDBRANCH  19  26
ENDBRANCH  13  16
ENDBRANCH   7  10
ENDBRANCH   3   4
TORSDOF 4
ENDMDL
