MODEL 1
REMARK VINA RESULT: -6.019538562      0.000      0.000
REMARK  5 active torsions:
REMARK  status: ('A' for Active; 'I' for Inactive)
REMARK    1  A    between atoms: C2_2  and  N1_4 
REMARK       I    between atoms: N1_4  and  C4_6 
REMARK    2  A    between atoms: C4_6  and  C5_8 
REMARK    3  A    between atoms: C5_8  and  N2_9 
REMARK    4  A    between atoms: C5_8  and  C7_16 
REMARK       I    between atoms: N2_9  and  C6_11 
REMARK    5  A    between atoms: C12_22  and  C13_23 
ROOT
HETATM    1  C5  UNL     1      42.870  -1.386  30.618  1.00  0.00     0.114 C 
ENDROOT
BRANCH   1   2
HETATM    2  C4  UNL     1      41.469  -1.036  31.034  1.00  0.00     0.269 C 
HETATM    3  N1  UNL     1      40.846  -1.786  32.043  1.00  0.00    -0.352 N 
ATOM      4  H1  UNL     1      41.359  -2.553  32.477  1.00  0.00     0.163 HD
HETATM    5  O1  UNL     1      40.831  -0.099  30.522  1.00  0.00    -0.266 OA
BRANCH   3   6
HETATM    6  C2  UNL     1      39.484  -1.502  32.492  1.00  0.00     0.076 C 
HETATM    7  C1  UNL     1      38.697  -2.767  32.710  1.00  0.00     0.032 C 
HETATM    8  C3  UNL     1      39.545  -0.761  33.811  1.00  0.00     0.032 C 
ENDBRANCH   3   6
ENDBRANCH   1   2
BRANCH   1   9
HETATM    9  N2  UNL     1      43.884  -1.108  31.550  1.00  0.00    -0.326 N 
HETATM   10  C6  UNL     1      43.701  -0.705  32.856  1.00  0.00     0.186 C 
HETATM   11  N3  UNL     1      43.990   0.547  33.135  1.00  0.00    -0.373 N 
HETATM   12  N4  UNL     1      43.254  -1.486  33.911  1.00  0.00    -0.064 NA
ATOM     13  H32 UNL     1      44.319   1.121  32.358  1.00  0.00     0.158 HD
ATOM     14  H31 UNL     1      43.854   0.844  34.101  1.00  0.00     0.158 HD
ATOM     15  H2  UNL     1      44.847  -1.213  31.230  1.00  0.00     0.169 HD
ENDBRANCH   1   9
BRANCH   1  16
HETATM   16  C7  UNL     1      43.060  -1.941  29.306  1.00  0.00     0.003 A 
HETATM   17  C8  UNL     1      43.483  -1.107  28.243  1.00  0.00     0.016 A 
HETATM   18  C9  UNL     1      43.768  -1.512  26.968  1.00  0.00     0.020 A 
HETATM   19  C10 UNL     1      43.642  -2.830  26.672  1.00  0.00     0.011 A 
HETATM   20 BR1  UNL     1      44.019  -3.498  24.924  1.00  0.00    -0.051 Br
HETATM   21  C11 UNL     1      43.232  -3.671  27.681  1.00  0.00     0.027 A 
HETATM   22  C12 UNL     1      42.931  -3.278  28.997  1.00  0.00    -0.037 A 
BRANCH  22  23
HETATM   23  C13 UNL     1      42.440  -4.264  29.924  1.00  0.00    -0.023 C 
HETATM   24  C14 UNL     1      40.945  -4.443  30.008  1.00  0.00     0.019 C 
HETATM   25  C15 UNL     1      43.156  -4.434  31.236  1.00  0.00     0.019 C 
HETATM   26  C16 UNL     1      42.767  -5.645  29.241  1.00  0.00     0.019 C 
ENDBRANCH  22  23
ENDBRANCH   1  16
TORSDOF 5
ENDMDL
MODEL 2
REMARK VINA RESULT: -5.905251205      5.918      8.610
REMARK  5 active torsions:
REMARK  status: ('A' for Active; 'I' for Inactive)
REMARK    1  A    between atoms: C2_2  and  N1_4 
REMARK       I    between atoms: N1_4  and  C4_6 
REMARK    2  A    between atoms: C4_6  and  C5_8 
REMARK    3  A    between atoms: C5_8  and  N2_9 
REMARK    4  A    between atoms: C5_8  and  C7_16 
REMARK       I    between atoms: N2_9  and  C6_11 
REMARK    5  A    between atoms: C12_22  and  C13_23 
ROOT
HETATM    1  C5  UNL     1      45.632   0.801  35.931  1.00  0.00     0.114 C 
ENDROOT
BRANCH   1   2
HETATM    2  C4  UNL     1      44.572  -0.112  35.383  1.00  0.00     0.269 C 
HETATM    3  N1  UNL     1      44.261  -0.057  34.015  1.00  0.00    -0.352 N 
ATOM      4  H1  UNL     1      44.764   0.600  33.420  1.00  0.00     0.163 HD
HETATM    5  O1  UNL     1      43.955  -0.926  36.091  1.00  0.00    -0.266 OA
BRANCH   3   6
HETATM    6  C2  UNL     1      43.238  -0.913  33.418  1.00  0.00     0.076 C 
HETATM    7  C1  UNL     1      41.869  -0.293  33.515  1.00  0.00     0.032 C 
HETATM    8  C3  UNL     1      43.555  -1.110  31.951  1.00  0.00     0.032 C 
ENDBRANCH   3   6
ENDBRANCH   1   2
BRANCH   1   9
HETATM    9  N2  UNL     1      45.321   2.172  35.957  1.00  0.00    -0.326 N 
HETATM   10  C6  UNL     1      44.077   2.720  36.193  1.00  0.00     0.186 C 
HETATM   11  N3  UNL     1      43.462   3.257  35.163  1.00  0.00    -0.373 N 
HETATM   12  N4  UNL     1      43.411   2.773  37.408  1.00  0.00    -0.064 NA
ATOM     13  H32 UNL     1      43.953   3.217  34.270  1.00  0.00     0.158 HD
ATOM     14  H31 UNL     1      42.542   3.661  35.339  1.00  0.00     0.158 HD
ATOM     15  H2  UNL     1      46.086   2.823  35.784  1.00  0.00     0.169 HD
ENDBRANCH   1   9
BRANCH   1  16
HETATM   16  C7  UNL     1      46.874   0.212  36.349  1.00  0.00     0.003 A 
HETATM   17  C8  UNL     1      47.818  -0.204  35.380  1.00  0.00     0.016 A 
HETATM   18  C9  UNL     1      49.061  -0.714  35.636  1.00  0.00     0.020 A 
HETATM   19  C10 UNL     1      49.447  -0.842  36.930  1.00  0.00     0.011 A 
HETATM   20 BR1  UNL     1      51.163  -1.540  37.393  1.00  0.00    -0.051 Br
HETATM   21  C11 UNL     1      48.554  -0.448  37.900  1.00  0.00     0.027 A 
HETATM   22  C12 UNL     1      47.271   0.076  37.662  1.00  0.00    -0.037 A 
BRANCH  22  23
HETATM   23  C13 UNL     1      46.420   0.373  38.785  1.00  0.00    -0.023 C 
HETATM   24  C14 UNL     1      45.168  -0.454  38.934  1.00  0.00     0.019 C 
HETATM   25  C15 UNL     1      46.265   1.808  39.207  1.00  0.00     0.019 C 
HETATM   26  C16 UNL     1      47.191  -0.207  40.029  1.00  0.00     0.019 C 
ENDBRANCH  22  23
ENDBRANCH   1  16
TORSDOF 5
ENDMDL
MODEL 3
REMARK VINA RESULT: -5.787997965      3.305      5.537
REMARK  5 active torsions:
REMARK  status: ('A' for Active; 'I' for Inactive)
REMARK    1  A    between atoms: C2_2  and  N1_4 
REMARK       I    between atoms: N1_4  and  C4_6 
REMARK    2  A    between atoms: C4_6  and  C5_8 
REMARK    3  A    between atoms: C5_8  and  N2_9 
REMARK    4  A    between atoms: C5_8  and  C7_16 
REMARK       I    between atoms: N2_9  and  C6_11 
REMARK    5  A    between atoms: C12_22  and  C13_23 
ROOT
HETATM    1  C5  UNL     1      42.328  -1.544  29.896  1.00  0.00     0.114 C 
ENDROOT
BRANCH   1   2
HETATM    2  C4  UNL     1      41.761  -2.879  29.500  1.00  0.00     0.269 C 
HETATM    3  N1  UNL     1      42.189  -4.032  30.176  1.00  0.00    -0.352 N 
ATOM      4  H1  UNL     1      42.874  -3.940  30.926  1.00  0.00     0.163 HD
HETATM    5  O1  UNL     1      40.919  -3.009  28.595  1.00  0.00    -0.266 OA
BRANCH   3   6
HETATM    6  C2  UNL     1      41.682  -5.361  29.839  1.00  0.00     0.076 C 
HETATM    7  C1  UNL     1      42.785  -6.387  29.821  1.00  0.00     0.032 C 
HETATM    8  C3  UNL     1      40.674  -5.784  30.886  1.00  0.00     0.032 C 
ENDBRANCH   3   6
ENDBRANCH   1   2
BRANCH   1   9
HETATM    9  N2  UNL     1      42.841  -0.752  28.854  1.00  0.00    -0.326 N 
HETATM   10  C6  UNL     1      43.921  -1.061  28.054  1.00  0.00     0.186 C 
HETATM   11  N3  UNL     1      45.022  -0.373  28.255  1.00  0.00    -0.373 N 
HETATM   12  N4  UNL     1      43.964  -2.015  27.049  1.00  0.00    -0.064 NA
ATOM     13  H32 UNL     1      44.990   0.330  28.995  1.00  0.00     0.158 HD
ATOM     14  H31 UNL     1      45.821  -0.602  27.663  1.00  0.00     0.158 HD
ATOM     15  H2  UNL     1      42.372   0.135  28.674  1.00  0.00     0.169 HD
ENDBRANCH   1   9
BRANCH   1  16
HETATM   16  C7  UNL     1      42.327  -1.203  31.292  1.00  0.00     0.003 A 
HETATM   17  C8  UNL     1      43.544  -1.194  32.016  1.00  0.00     0.016 A 
HETATM   18  C9  UNL     1      43.698  -0.824  33.323  1.00  0.00     0.020 A 
HETATM   19  C10 UNL     1      42.599  -0.426  34.010  1.00  0.00     0.011 A 
HETATM   20 BR1  UNL     1      42.708   0.112  35.839  1.00  0.00    -0.051 Br
HETATM   21  C11 UNL     1      41.398  -0.423  33.339  1.00  0.00     0.027 A 
HETATM   22  C12 UNL     1      41.213  -0.801  31.998  1.00  0.00    -0.037 A 
BRANCH  22  23
HETATM   23  C13 UNL     1      39.880  -0.817  31.455  1.00  0.00    -0.023 C 
HETATM   24  C14 UNL     1      39.126  -2.122  31.527  1.00  0.00     0.019 C 
HETATM   25  C15 UNL     1      39.599  -0.011  30.216  1.00  0.00     0.019 C 
HETATM   26  C16 UNL     1      39.015  -0.029  32.509  1.00  0.00     0.019 C 
ENDBRANCH  22  23
ENDBRANCH   1  16
TORSDOF 5
ENDMDL
MODEL 4
REMARK VINA RESULT: -5.734523380      2.943      5.380
REMARK  5 active torsions:
REMARK  status: ('A' for Active; 'I' for Inactive)
REMARK    1  A    between atoms: C2_2  and  N1_4 
REMARK       I    between atoms: N1_4  and  C4_6 
REMARK    2  A    between atoms: C4_6  and  C5_8 
REMARK    3  A    between atoms: C5_8  and  N2_9 
REMARK    4  A    between atoms: C5_8  and  C7_16 
REMARK       I    between atoms: N2_9  and  C6_11 
REMARK    5  A    between atoms: C12_22  and  C13_23 
ROOT
HETATM    1  C5  UNL     1      43.157  -3.180  29.891  1.00  0.00     0.114 C 
ENDROOT
BRANCH   1   2
HETATM    2  C4  UNL     1      42.856  -3.227  28.419  1.00  0.00     0.269 C 
HETATM    3  N1  UNL     1      43.868  -2.905  27.502  1.00  0.00    -0.352 N 
ATOM      4  H1  UNL     1      44.790  -2.648  27.854  1.00  0.00     0.163 HD
HETATM    5  O1  UNL     1      41.740  -3.546  27.972  1.00  0.00    -0.266 OA
BRANCH   3   6
HETATM    6  C2  UNL     1      43.642  -2.926  26.058  1.00  0.00     0.076 C 
HETATM    7  C1  UNL     1      44.030  -1.620  25.417  1.00  0.00     0.032 C 
HETATM    8  C3  UNL     1      44.492  -4.016  25.442  1.00  0.00     0.032 C 
ENDBRANCH   3   6
ENDBRANCH   1   2
BRANCH   1   9
HETATM    9  N2  UNL     1      43.393  -1.906  30.438  1.00  0.00    -0.326 N 
HETATM   10  C6  UNL     1      42.698  -0.753  30.144  1.00  0.00     0.186 C 
HETATM   11  N3  UNL     1      43.325   0.148  29.422  1.00  0.00    -0.373 N 
HETATM   12  N4  UNL     1      41.407  -0.438  30.540  1.00  0.00    -0.064 NA
ATOM     13  H32 UNL     1      44.275  -0.084  29.131  1.00  0.00     0.158 HD
ATOM     14  H31 UNL     1      42.810   1.002  29.205  1.00  0.00     0.158 HD
ATOM     15  H2  UNL     1      44.152  -1.828  31.116  1.00  0.00     0.169 HD
ENDBRANCH   1   9
BRANCH   1  16
HETATM   16  C7  UNL     1      43.210  -4.426  30.604  1.00  0.00     0.003 A 
HETATM   17  C8  UNL     1      44.225  -5.366  30.306  1.00  0.00     0.016 A 
HETATM   18  C9  UNL     1      44.435  -6.554  30.950  1.00  0.00     0.020 A 
HETATM   19  C10 UNL     1      43.606  -6.884  31.972  1.00  0.00     0.011 A 
HETATM   20 BR1  UNL     1      43.815  -8.518  32.937  1.00  0.00    -0.051 Br
HETATM   21  C11 UNL     1      42.606  -5.994  32.290  1.00  0.00     0.027 A 
HETATM   22  C12 UNL     1      42.369  -4.769  31.641  1.00  0.00    -0.037 A 
BRANCH  22  23
HETATM   23  C13 UNL     1      41.233  -3.977  32.039  1.00  0.00    -0.023 C 
HETATM   24  C14 UNL     1      40.193  -3.694  30.984  1.00  0.00     0.019 C 
HETATM   25  C15 UNL     1      41.450  -2.850  33.011  1.00  0.00     0.019 C 
HETATM   26  C16 UNL     1      40.363  -4.950  32.920  1.00  0.00     0.019 C 
ENDBRANCH  22  23
ENDBRANCH   1  16
TORSDOF 5
ENDMDL
MODEL 5
REMARK VINA RESULT: -5.727043150      3.209      5.911
REMARK  5 active torsions:
REMARK  status: ('A' for Active; 'I' for Inactive)
REMARK    1  A    between atoms: C2_2  and  N1_4 
REMARK       I    between atoms: N1_4  and  C4_6 
REMARK    2  A    between atoms: C4_6  and  C5_8 
REMARK    3  A    between atoms: C5_8  and  N2_9 
REMARK    4  A    between atoms: C5_8  and  C7_16 
REMARK       I    between atoms: N2_9  and  C6_11 
REMARK    5  A    between atoms: C12_22  and  C13_23 
ROOT
HETATM    1  C5  UNL     1      42.465  -2.670  30.287  1.00  0.00     0.114 C 
ENDROOT
BRANCH   1   2
HETATM    2  C4  UNL     1      43.411  -2.165  29.234  1.00  0.00     0.269 C 
HETATM    3  N1  UNL     1      43.413  -2.770  27.967  1.00  0.00    -0.352 N 
ATOM      4  H1  UNL     1      42.768  -3.539  27.786  1.00  0.00     0.163 HD
HETATM    5  O1  UNL     1      44.198  -1.224  29.434  1.00  0.00    -0.266 OA
BRANCH   3   6
HETATM    6  C2  UNL     1      44.310  -2.331  26.900  1.00  0.00     0.076 C 
HETATM    7  C1  UNL     1      44.395  -3.349  25.793  1.00  0.00     0.032 C 
HETATM    8  C3  UNL     1      43.778  -1.044  26.306  1.00  0.00     0.032 C 
ENDBRANCH   3   6
ENDBRANCH   1   2
BRANCH   1   9
HETATM    9  N2  UNL     1      42.612  -4.017  30.661  1.00  0.00    -0.326 N 
HETATM   10  C6  UNL     1      41.898  -5.084  30.159  1.00  0.00     0.186 C 
HETATM   11  N3  UNL     1      41.008  -5.628  30.959  1.00  0.00    -0.373 N 
HETATM   12  N4  UNL     1      42.028  -5.652  28.901  1.00  0.00    -0.064 NA
ATOM     13  H32 UNL     1      40.913  -5.210  31.884  1.00  0.00     0.158 HD
ATOM     14  H31 UNL     1      40.479  -6.418  30.587  1.00  0.00     0.158 HD
ATOM     15  H2  UNL     1      43.314  -4.225  31.372  1.00  0.00     0.169 HD
ENDBRANCH   1   9
BRANCH   1  16
HETATM   16  C7  UNL     1      41.479  -1.757  30.795  1.00  0.00     0.003 A 
HETATM   17  C8  UNL     1      40.400  -1.355  29.972  1.00  0.00     0.016 A 
HETATM   18  C9  UNL     1      39.359  -0.551  30.347  1.00  0.00     0.020 A 
HETATM   19  C10 UNL     1      39.338  -0.083  31.620  1.00  0.00     0.011 A 
HETATM   20 BR1  UNL     1      37.929   1.043  32.244  1.00  0.00    -0.051 Br
HETATM   21  C11 UNL     1      40.372  -0.453  32.449  1.00  0.00     0.027 A 
HETATM   22  C12 UNL     1      41.453  -1.275  32.087  1.00  0.00    -0.037 A 
BRANCH  22  23
HETATM   23  C13 UNL     1      42.501  -1.513  33.045  1.00  0.00    -0.023 C 
HETATM   24  C14 UNL     1      43.842  -0.882  32.766  1.00  0.00     0.019 C 
HETATM   25  C15 UNL     1      42.581  -2.865  33.701  1.00  0.00     0.019 C 
HETATM   26  C16 UNL     1      42.114  -0.619  34.282  1.00  0.00     0.019 C 
ENDBRANCH  22  23
ENDBRANCH   1  16
TORSDOF 5
ENDMDL
