MODEL 1
REMARK VINA RESULT: -5.963353953      0.000      0.000
REMARK  3 active torsions:
REMARK  status: ('A' for Active; 'I' for Inactive)
REMARK    1  A    between atoms: C5_7  and  C6_8 
REMARK       I    between atoms: C6_8  and  N2_10 
REMARK    2  A    between atoms: N2_10  and  C7_12 
REMARK    3  A    between atoms: C7_12  and  C12_22 
ROOT
HETATM    1  C6  UNL     1      44.942   2.594  39.103  1.00  0.00     0.259 C 
HETATM    2  O1  UNL     1      46.084   2.952  39.548  1.00  0.00    -0.267 OA
HETATM    3  N2  UNL     1      44.869   1.267  38.562  1.00  0.00    -0.325 N 
ATOM      4  H2  UNL     1      43.996   0.908  38.175  1.00  0.00     0.169 HD
ENDROOT
BRANCH   3   5
HETATM    5  C7  UNL     1      46.078   0.440  38.581  1.00  0.00     0.033 C 
HETATM    6  C8  UNL     1      46.788   0.202  37.347  1.00  0.00     0.080 A 
HETATM    7  C9  UNL     1      46.282   0.302  36.043  1.00  0.00     0.039 A 
HETATM    8  C11 UNL     1      48.176   0.042  37.150  1.00  0.00     0.274 A 
HETATM    9  C10 UNL     1      44.842   0.398  35.653  1.00  0.00     0.071 C 
HETATM   10  N3  UNL     1      47.301   0.207  35.188  1.00  0.00    -0.301 N 
HETATM   11  N4  UNL     1      48.429   0.050  35.816  1.00  0.00    -0.266 N 
ATOM     12  H3  UNL     1      47.207   0.251  34.173  1.00  0.00     0.186 HD
ATOM     13  H4  UNL     1      49.346  -0.050  35.381  1.00  0.00     0.190 HD
HETATM   14  O2  UNL     1      49.091  -0.081  38.001  1.00  0.00    -0.266 OA
BRANCH   5  15
HETATM   15  C12 UNL     1      46.112  -0.501  39.696  1.00  0.00     0.028 C 
HETATM   16  C13 UNL     1      44.689  -0.865  40.184  1.00  0.00     0.016 C 
HETATM   17  C14 UNL     1      46.847  -0.183  40.956  1.00  0.00     0.016 C 
ENDBRANCH   5  15
ENDBRANCH   3   5
BRANCH   1  18
HETATM   18  C5  UNL     1      43.845   3.525  39.188  1.00  0.00     0.073 A 
HETATM   19  C3  UNL     1      43.419   4.284  38.070  1.00  0.00     0.022 A 
HETATM   20  N1  UNL     1      42.370   5.026  38.412  1.00  0.00    -0.361 N 
HETATM   21  C4  UNL     1      44.090   4.267  36.735  1.00  0.00     0.069 C 
HETATM   22  C2  UNL     1      42.061   4.815  39.705  1.00  0.00     0.024 A 
ATOM     23  H1  UNL     1      41.874   5.661  37.788  1.00  0.00     0.165 HD
HETATM   24  C1  UNL     1      40.920   5.493  40.408  1.00  0.00     0.069 C 
HETATM   25  C15 UNL     1      42.975   3.887  40.179  1.00  0.00     0.050 A 
HETATM   26 BR1  UNL     1      42.969   3.270  41.958  1.00  0.00    -0.048 Br
ENDBRANCH   1  18
TORSDOF 3
ENDMDL
MODEL 2
REMARK VINA RESULT: -5.704912762      2.815      4.395
REMARK  3 active torsions:
REMARK  status: ('A' for Active; 'I' for Inactive)
REMARK    1  A    between atoms: C5_7  and  C6_8 
REMARK       I    between atoms: C6_8  and  N2_10 
REMARK    2  A    between atoms: N2_10  and  C7_12 
REMARK    3  A    between atoms: C7_12  and  C12_22 
ROOT
HETATM    1  C6  UNL     1      46.117   0.301  36.786  1.00  0.00     0.259 C 
HETATM    2  O1  UNL     1      45.501  -0.762  36.440  1.00  0.00    -0.267 OA
HETATM    3  N2  UNL     1      47.471   0.126  37.225  1.00  0.00    -0.325 N 
ATOM      4  H2  UNL     1      48.029   0.923  37.530  1.00  0.00     0.169 HD
ENDROOT
BRANCH   3   5
HETATM    5  C7  UNL     1      48.034  -1.227  37.223  1.00  0.00     0.033 C 
HETATM    6  C8  UNL     1      47.780  -2.097  38.346  1.00  0.00     0.080 A 
HETATM    7  C9  UNL     1      47.409  -1.721  39.646  1.00  0.00     0.039 A 
HETATM    8  C11 UNL     1      47.620  -3.499  38.351  1.00  0.00     0.274 A 
HETATM    9  C10 UNL     1      47.472  -0.344  40.224  1.00  0.00     0.071 C 
HETATM   10  N3  UNL     1      47.071  -2.820  40.321  1.00  0.00    -0.301 N 
HETATM   11  N4  UNL     1      47.189  -3.883  39.581  1.00  0.00    -0.266 N 
ATOM     12  H3  UNL     1      46.760  -2.826  41.292  1.00  0.00     0.186 HD
ATOM     13  H4  UNL     1      46.993  -4.840  39.873  1.00  0.00     0.190 HD
HETATM   14  O2  UNL     1      47.809  -4.324  37.424  1.00  0.00    -0.266 OA
BRANCH   5  15
HETATM   15  C12 UNL     1      49.229  -1.350  36.394  1.00  0.00     0.028 C 
HETATM   16  C13 UNL     1      50.500  -1.572  37.248  1.00  0.00     0.016 C 
HETATM   17  C14 UNL     1      49.626  -0.272  35.442  1.00  0.00     0.016 C 
ENDBRANCH   5  15
ENDBRANCH   3   5
BRANCH   1  18
HETATM   18  C5  UNL     1      45.421   1.560  36.698  1.00  0.00     0.073 A 
HETATM   19  C3  UNL     1      44.903   2.045  35.472  1.00  0.00     0.022 A 
HETATM   20  N1  UNL     1      44.277   3.200  35.682  1.00  0.00    -0.361 N 
HETATM   21  C4  UNL     1      45.083   1.366  34.154  1.00  0.00     0.069 C 
HETATM   22  C2  UNL     1      44.344   3.528  36.984  1.00  0.00     0.024 A 
ATOM     23  H1  UNL     1      43.815   3.754  34.961  1.00  0.00     0.165 HD
HETATM   24  C1  UNL     1      43.730   4.773  37.561  1.00  0.00     0.069 C 
HETATM   25  C15 UNL     1      45.052   2.513  37.608  1.00  0.00     0.050 A 
HETATM   26 BR1  UNL     1      45.428   2.519  39.453  1.00  0.00    -0.048 Br
ENDBRANCH   1  18
TORSDOF 3
ENDMDL
MODEL 3
REMARK VINA RESULT: -5.632355760      9.674     11.903
REMARK  3 active torsions:
REMARK  status: ('A' for Active; 'I' for Inactive)
REMARK    1  A    between atoms: C5_7  and  C6_8 
REMARK       I    between atoms: C6_8  and  N2_10 
REMARK    2  A    between atoms: N2_10  and  C7_12 
REMARK    3  A    between atoms: C7_12  and  C12_22 
ROOT
HETATM    1  C6  UNL     1      39.949  -3.997  30.323  1.00  0.00     0.259 C 
HETATM    2  O1  UNL     1      39.553  -3.007  31.024  1.00  0.00    -0.267 OA
HETATM    3  N2  UNL     1      41.363  -4.079  30.097  1.00  0.00    -0.325 N 
ATOM      4  H2  UNL     1      41.760  -4.834  29.536  1.00  0.00     0.169 HD
ENDROOT
BRANCH   3   5
HETATM    5  C7  UNL     1      42.224  -3.053  30.690  1.00  0.00     0.033 C 
HETATM    6  C8  UNL     1      42.793  -2.034  29.841  1.00  0.00     0.080 A 
HETATM    7  C9  UNL     1      42.987  -2.095  28.453  1.00  0.00     0.039 A 
HETATM    8  C11 UNL     1      43.069  -0.686  30.153  1.00  0.00     0.274 A 
HETATM    9  C10 UNL     1      42.913  -3.319  27.599  1.00  0.00     0.071 C 
HETATM   10  N3  UNL     1      43.343  -0.883  28.025  1.00  0.00    -0.301 N 
HETATM   11  N4  UNL     1      43.401  -0.034  29.008  1.00  0.00    -0.266 N 
ATOM     12  H3  UNL     1      43.543  -0.653  27.051  1.00  0.00     0.186 HD
ATOM     13  H4  UNL     1      43.653   0.951  28.932  1.00  0.00     0.190 HD
HETATM   14  O2  UNL     1      43.029  -0.102  31.263  1.00  0.00    -0.266 OA
BRANCH   5  15
HETATM   15  C12 UNL     1      42.864  -3.486  31.928  1.00  0.00     0.028 C 
HETATM   16  C13 UNL     1      42.899  -5.029  32.046  1.00  0.00     0.016 C 
HETATM   17  C14 UNL     1      42.358  -3.041  33.259  1.00  0.00     0.016 C 
ENDBRANCH   5  15
ENDBRANCH   3   5
BRANCH   1  18
HETATM   18  C5  UNL     1      38.967  -4.936  29.839  1.00  0.00     0.073 A 
HETATM   19  C3  UNL     1      37.856  -4.522  29.063  1.00  0.00     0.022 A 
HETATM   20  N1  UNL     1      37.139  -5.587  28.716  1.00  0.00    -0.361 N 
HETATM   21  C4  UNL     1      37.539  -3.100  28.736  1.00  0.00     0.069 C 
HETATM   22  C2  UNL     1      37.700  -6.702  29.216  1.00  0.00     0.024 A 
ATOM     23  H1  UNL     1      36.288  -5.561  28.153  1.00  0.00     0.165 HD
HETATM   24  C1  UNL     1      37.144  -8.081  29.003  1.00  0.00     0.069 C 
HETATM   25  C15 UNL     1      38.829  -6.295  29.909  1.00  0.00     0.050 A 
HETATM   26 BR1  UNL     1      39.960  -7.499  30.811  1.00  0.00    -0.048 Br
ENDBRANCH   1  18
TORSDOF 3
ENDMDL
MODEL 4
REMARK VINA RESULT: -5.447477725     10.710     12.755
REMARK  3 active torsions:
REMARK  status: ('A' for Active; 'I' for Inactive)
REMARK    1  A    between atoms: C5_7  and  C6_8 
REMARK       I    between atoms: C6_8  and  N2_10 
REMARK    2  A    between atoms: N2_10  and  C7_12 
REMARK    3  A    between atoms: C7_12  and  C12_22 
ROOT
HETATM    1  C6  UNL     1      43.379  -5.072  29.594  1.00  0.00     0.259 C 
HETATM    2  O1  UNL     1      44.150  -4.336  30.297  1.00  0.00    -0.267 OA
HETATM    3  N2  UNL     1      43.028  -4.557  28.301  1.00  0.00    -0.325 N 
ATOM      4  H2  UNL     1      42.407  -5.078  27.682  1.00  0.00     0.169 HD
ENDROOT
BRANCH   3   5
HETATM    5  C7  UNL     1      43.585  -3.265  27.892  1.00  0.00     0.033 C 
HETATM    6  C8  UNL     1      43.081  -2.057  28.498  1.00  0.00     0.080 A 
HETATM    7  C9  UNL     1      41.845  -1.878  29.137  1.00  0.00     0.039 A 
HETATM    8  C11 UNL     1      43.778  -0.865  28.792  1.00  0.00     0.274 A 
HETATM    9  C10 UNL     1      40.674  -2.806  29.082  1.00  0.00     0.071 C 
HETATM   10  N3  UNL     1      41.849  -0.687  29.737  1.00  0.00    -0.301 N 
HETATM   11  N4  UNL     1      42.977  -0.069  29.547  1.00  0.00    -0.266 N 
ATOM     12  H3  UNL     1      41.069  -0.311  30.276  1.00  0.00     0.186 HD
ATOM     13  H4  UNL     1      43.219   0.856  29.903  1.00  0.00     0.190 HD
HETATM   14  O2  UNL     1      44.940  -0.522  28.465  1.00  0.00    -0.266 OA
BRANCH   5  15
HETATM   15  C12 UNL     1      44.156  -3.286  26.549  1.00  0.00     0.028 C 
HETATM   16  C13 UNL     1      43.801  -2.006  25.755  1.00  0.00     0.016 C 
HETATM   17  C14 UNL     1      43.850  -4.391  25.594  1.00  0.00     0.016 C 
ENDBRANCH   5  15
ENDBRANCH   3   5
BRANCH   1  18
HETATM   18  C5  UNL     1      42.945  -6.334  30.138  1.00  0.00     0.073 A 
HETATM   19  C3  UNL     1      41.598  -6.764  30.047  1.00  0.00     0.022 A 
HETATM   20  N1  UNL     1      41.482  -7.973  30.590  1.00  0.00    -0.361 N 
HETATM   21  C4  UNL     1      40.490  -5.948  29.466  1.00  0.00     0.069 C 
HETATM   22  C2  UNL     1      42.678  -8.387  31.047  1.00  0.00     0.024 A 
ATOM     23  H1  UNL     1      40.616  -8.507  30.649  1.00  0.00     0.165 HD
HETATM   24  C1  UNL     1      42.898  -9.716  31.712  1.00  0.00     0.069 C 
HETATM   25  C15 UNL     1      43.577  -7.371  30.766  1.00  0.00     0.050 A 
HETATM   26 BR1  UNL     1      45.400  -7.469  31.229  1.00  0.00    -0.048 Br
ENDBRANCH   1  18
TORSDOF 3
ENDMDL
MODEL 5
REMARK VINA RESULT: -5.385380005      3.413      6.563
REMARK  3 active torsions:
REMARK  status: ('A' for Active; 'I' for Inactive)
REMARK    1  A    between atoms: C5_7  and  C6_8 
REMARK       I    between atoms: C6_8  and  N2_10 
REMARK    2  A    between atoms: N2_10  and  C7_12 
REMARK    3  A    between atoms: C7_12  and  C12_22 
ROOT
HETATM    1  C6  UNL     1      46.470  -0.247  37.461  1.00  0.00     0.259 C 
HETATM    2  O1  UNL     1      45.465  -1.016  37.624  1.00  0.00    -0.267 OA
HETATM    3  N2  UNL     1      46.188   1.042  36.897  1.00  0.00    -0.325 N 
ATOM      4  H2  UNL     1      46.938   1.712  36.723  1.00  0.00     0.169 HD
ENDROOT
BRANCH   3   5
HETATM    5  C7  UNL     1      44.798   1.372  36.577  1.00  0.00     0.033 C 
HETATM    6  C8  UNL     1      44.252   0.966  35.304  1.00  0.00     0.080 A 
HETATM    7  C9  UNL     1      44.962   0.650  34.137  1.00  0.00     0.039 A 
HETATM    8  C11 UNL     1      42.930   0.576  35.000  1.00  0.00     0.274 A 
HETATM    9  C10 UNL     1      46.405   0.935  33.870  1.00  0.00     0.071 C 
HETATM   10  N3  UNL     1      44.110   0.128  33.254  1.00  0.00    -0.301 N 
HETATM   11  N4  UNL     1      42.904   0.075  33.738  1.00  0.00    -0.266 N 
ATOM     12  H3  UNL     1      44.370  -0.190  32.320  1.00  0.00     0.186 HD
ATOM     13  H4  UNL     1      42.080  -0.280  33.253  1.00  0.00     0.190 HD
HETATM   14  O2  UNL     1      41.899   0.635  35.715  1.00  0.00    -0.266 OA
BRANCH   5  15
HETATM   15  C12 UNL     1      44.303   2.538  37.302  1.00  0.00     0.028 C 
HETATM   16  C13 UNL     1      44.155   3.770  36.377  1.00  0.00     0.016 C 
HETATM   17  C14 UNL     1      45.027   3.075  38.492  1.00  0.00     0.016 C 
ENDBRANCH   5  15
ENDBRANCH   3   5
BRANCH   1  18
HETATM   18  C5  UNL     1      47.772  -0.720  37.859  1.00  0.00     0.073 A 
HETATM   19  C3  UNL     1      48.127  -0.879  39.222  1.00  0.00     0.022 A 
HETATM   20  N1  UNL     1      49.361  -1.366  39.304  1.00  0.00    -0.361 N 
HETATM   21  C4  UNL     1      47.246  -0.507  40.369  1.00  0.00     0.069 C 
HETATM   22  C2  UNL     1      49.867  -1.545  38.070  1.00  0.00     0.024 A 
ATOM     23  H1  UNL     1      49.852  -1.573  40.173  1.00  0.00     0.165 HD
HETATM   24  C1  UNL     1      51.243  -2.089  37.806  1.00  0.00     0.069 C 
HETATM   25  C15 UNL     1      48.882  -1.144  37.181  1.00  0.00     0.050 A 
HETATM   26 BR1  UNL     1      49.116  -1.191  35.314  1.00  0.00    -0.048 Br
ENDBRANCH   1  18
TORSDOF 3
ENDMDL
