MODEL 1
REMARK VINA RESULT: -5.941126147      0.000      0.000
REMARK  6 active torsions:
REMARK  status: ('A' for Active; 'I' for Inactive)
REMARK    1  A    between atoms: C2_2  and  C3_3 
REMARK    2  A    between atoms: C3_3  and  C4_4 
REMARK       I    between atoms: N2_8  and  C6_10 
REMARK    3  A    between atoms: N4_12  and  N5_14 
REMARK    4  A    between atoms: C7_17  and  N6_18 
REMARK    5  A    between atoms: N6_18  and  C8_20 
REMARK    6  A    between atoms: C12_24  and  C13_25 
ROOT
HETATM    1  C4  UNL     1      47.213  -0.155  39.491  1.00  0.00     0.029 A 
HETATM    2  N1  UNL     1      47.799  -0.251  38.288  1.00  0.00    -0.343 N 
ATOM      3  H1  UNL     1      48.659  -0.794  38.205  1.00  0.00     0.167 HD
HETATM    4  C5  UNL     1      47.302   0.337  37.191  1.00  0.00     0.135 A 
HETATM    5  N2  UNL     1      47.911   0.218  36.053  1.00  0.00    -0.314 N 
ATOM      6  H2  UNL     1      47.490   0.685  35.250  1.00  0.00     0.170 HD
HETATM    7  C6  UNL     1      49.093  -0.495  35.827  1.00  0.00     0.208 C 
HETATM    8  N3  UNL     1      49.088  -1.911  35.928  1.00  0.00    -0.062 NA
HETATM    9  N4  UNL     1      50.163   0.160  35.532  1.00  0.00    -0.280 N 
ATOM     10  H4  UNL     1      50.111   1.177  35.472  1.00  0.00     0.189 HD
HETATM   11  C7  UNL     1      46.150   1.083  37.229  1.00  0.00     0.081 A 
HETATM   12  C12 UNL     1      45.494   1.225  38.432  1.00  0.00    -0.009 A 
HETATM   13  C15 UNL     1      46.063   0.586  39.545  1.00  0.00     0.042 A 
HETATM   14 BR1  UNL     1      45.196   0.743  41.251  1.00  0.00    -0.048 Br
ENDROOT
BRANCH  11  15
HETATM   15  N6  UNL     1      45.632   1.756  36.100  1.00  0.00    -0.378 N 
ATOM     16  H6  UNL     1      46.023   2.685  35.944  1.00  0.00     0.160 HD
BRANCH  15  17
HETATM   17  C8  UNL     1      44.664   1.363  35.153  1.00  0.00     0.019 C 
HETATM   18  C9  UNL     1      45.336   1.147  33.780  1.00  0.00     0.037 C 
HETATM   19  C10 UNL     1      43.881   0.113  35.461  1.00  0.00     0.037 C 
HETATM   20  C11 UNL     1      43.656   2.477  34.978  1.00  0.00     0.037 C 
ENDBRANCH  15  17
ENDBRANCH  11  15
BRANCH   1  21
HETATM   21  C3  UNL     1      47.749  -0.798  40.721  1.00  0.00     0.058 C 
BRANCH  21  22
HETATM   22  C2  UNL     1      49.067  -1.467  40.489  1.00  0.00     0.002 C 
HETATM   23  C1  UNL     1      49.874  -1.325  41.784  1.00  0.00     0.005 C 
ENDBRANCH  21  22
ENDBRANCH   1  21
BRANCH  12  24
HETATM   24  C13 UNL     1      44.267   2.009  38.662  1.00  0.00     0.038 C 
HETATM   25  C14 UNL     1      44.420   3.487  38.707  1.00  0.00     0.010 C 
ENDBRANCH  12  24
BRANCH   9  26
HETATM   26  N5  UNL     1      51.377  -0.456  35.291  1.00  0.00    -0.343 N 
ATOM     27  H52 UNL     1      52.028  -0.536  36.073  1.00  0.00     0.176 HD
ATOM     28  H51 UNL     1      51.640  -0.825  34.377  1.00  0.00     0.176 HD
ENDBRANCH   9  26
TORSDOF 6
ENDMDL
MODEL 2
REMARK VINA RESULT: -5.383757979      9.224     11.193
REMARK  6 active torsions:
REMARK  status: ('A' for Active; 'I' for Inactive)
REMARK    1  A    between atoms: C2_2  and  C3_3 
REMARK    2  A    between atoms: C3_3  and  C4_4 
REMARK       I    between atoms: N2_8  and  C6_10 
REMARK    3  A    between atoms: N4_12  and  N5_14 
REMARK    4  A    between atoms: C7_17  and  N6_18 
REMARK    5  A    between atoms: N6_18  and  C8_20 
REMARK    6  A    between atoms: C12_24  and  C13_25 
ROOT
HETATM    1  C4  UNL     1      39.046  -0.666  30.828  1.00  0.00     0.029 A 
HETATM    2  N1  UNL     1      40.288  -0.867  30.363  1.00  0.00    -0.343 N 
ATOM      3  H1  UNL     1      40.944  -0.085  30.366  1.00  0.00     0.167 HD
HETATM    4  C5  UNL     1      40.703  -2.053  29.895  1.00  0.00     0.135 A 
HETATM    5  N2  UNL     1      41.914  -2.192  29.452  1.00  0.00    -0.314 N 
ATOM      6  H2  UNL     1      42.178  -3.115  29.107  1.00  0.00     0.170 HD
HETATM    7  C6  UNL     1      42.890  -1.191  29.405  1.00  0.00     0.208 C 
HETATM    8  N3  UNL     1      43.433  -0.685  30.614  1.00  0.00    -0.062 NA
HETATM    9  N4  UNL     1      43.271  -0.753  28.255  1.00  0.00    -0.280 N 
ATOM     10  H4  UNL     1      42.848  -1.151  27.417  1.00  0.00     0.189 HD
HETATM   11  C7  UNL     1      39.876  -3.147  29.861  1.00  0.00     0.081 A 
HETATM   12  C12 UNL     1      38.584  -3.013  30.321  1.00  0.00    -0.009 A 
HETATM   13  C15 UNL     1      38.208  -1.749  30.799  1.00  0.00     0.042 A 
HETATM   14 BR1  UNL     1      36.422  -1.497  31.458  1.00  0.00    -0.048 Br
ENDROOT
BRANCH  11  15
HETATM   15  N6  UNL     1      40.270  -4.393  29.325  1.00  0.00    -0.378 N 
ATOM     16  H6  UNL     1      40.071  -4.510  28.331  1.00  0.00     0.160 HD
BRANCH  15  17
HETATM   17  C8  UNL     1      40.892  -5.504  29.931  1.00  0.00     0.019 C 
HETATM   18  C9  UNL     1      42.214  -5.825  29.199  1.00  0.00     0.037 C 
HETATM   19  C10 UNL     1      41.219  -5.384  31.397  1.00  0.00     0.037 C 
HETATM   20  C11 UNL     1      40.001  -6.717  29.781  1.00  0.00     0.037 C 
ENDBRANCH  15  17
ENDBRANCH  11  15
BRANCH   1  21
HETATM   21  C3  UNL     1      38.565   0.641  31.350  1.00  0.00     0.058 C 
BRANCH  21  22
HETATM   22  C2  UNL     1      38.778   0.783  32.824  1.00  0.00     0.002 C 
HETATM   23  C1  UNL     1      37.648   1.671  33.356  1.00  0.00     0.005 C 
ENDBRANCH  21  22
ENDBRANCH   1  21
BRANCH  12  24
HETATM   24  C13 UNL     1      37.555  -4.069  30.332  1.00  0.00     0.038 C 
HETATM   25  C14 UNL     1      36.851  -4.326  29.048  1.00  0.00     0.010 C 
ENDBRANCH  12  24
BRANCH   9  26
HETATM   26  N5  UNL     1      44.229   0.233  28.107  1.00  0.00    -0.343 N 
ATOM     27  H52 UNL     1      43.943   1.197  28.280  1.00  0.00     0.176 HD
ATOM     28  H51 UNL     1      45.192   0.034  27.837  1.00  0.00     0.176 HD
ENDBRANCH   9  26
TORSDOF 6
ENDMDL
MODEL 3
REMARK VINA RESULT: -5.172686592      9.516     10.803
REMARK  6 active torsions:
REMARK  status: ('A' for Active; 'I' for Inactive)
REMARK    1  A    between atoms: C2_2  and  C3_3 
REMARK    2  A    between atoms: C3_3  and  C4_4 
REMARK       I    between atoms: N2_8  and  C6_10 
REMARK    3  A    between atoms: N4_12  and  N5_14 
REMARK    4  A    between atoms: C7_17  and  N6_18 
REMARK    5  A    between atoms: N6_18  and  C8_20 
REMARK    6  A    between atoms: C12_24  and  C13_25 
ROOT
HETATM    1  C4  UNL     1      42.243  -5.411  29.774  1.00  0.00     0.029 A 
HETATM    2  N1  UNL     1      42.505  -4.202  29.252  1.00  0.00    -0.343 N 
ATOM      3  H1  UNL     1      43.430  -4.031  28.857  1.00  0.00     0.167 HD
HETATM    4  C5  UNL     1      41.603  -3.212  29.231  1.00  0.00     0.135 A 
HETATM    5  N2  UNL     1      41.909  -2.060  28.720  1.00  0.00    -0.314 N 
ATOM      6  H2  UNL     1      41.186  -1.341  28.729  1.00  0.00     0.170 HD
HETATM    7  C6  UNL     1      43.143  -1.716  28.157  1.00  0.00     0.208 C 
HETATM    8  N3  UNL     1      43.551  -2.320  26.940  1.00  0.00    -0.062 NA
HETATM    9  N4  UNL     1      43.880  -0.852  28.766  1.00  0.00    -0.280 N 
ATOM     10  H4  UNL     1      43.540  -0.448  29.638  1.00  0.00     0.189 HD
HETATM   11  C7  UNL     1      40.341  -3.371  29.746  1.00  0.00     0.081 A 
HETATM   12  C12 UNL     1      40.001  -4.587  30.299  1.00  0.00    -0.009 A 
HETATM   13  C15 UNL     1      40.987  -5.585  30.292  1.00  0.00     0.042 A 
HETATM   14 BR1  UNL     1      40.577  -7.303  31.045  1.00  0.00    -0.048 Br
ENDROOT
BRANCH  11  15
HETATM   15  N6  UNL     1      39.387  -2.329  29.784  1.00  0.00    -0.378 N 
ATOM     16  H6  UNL     1      38.816  -2.246  28.943  1.00  0.00     0.160 HD
BRANCH  15  17
HETATM   17  C8  UNL     1      39.092  -1.383  30.787  1.00  0.00     0.019 C 
HETATM   18  C9  UNL     1      37.562  -1.267  30.960  1.00  0.00     0.037 C 
HETATM   19  C10 UNL     1      39.671  -1.640  32.154  1.00  0.00     0.037 C 
HETATM   20  C11 UNL     1      39.588  -0.023  30.351  1.00  0.00     0.037 C 
ENDBRANCH  15  17
ENDBRANCH  11  15
BRANCH   1  21
HETATM   21  C3  UNL     1      43.230  -6.523  29.809  1.00  0.00     0.058 C 
BRANCH  21  22
HETATM   22  C2  UNL     1      44.253  -6.347  30.887  1.00  0.00     0.002 C 
HETATM   23  C1  UNL     1      44.733  -7.748  31.280  1.00  0.00     0.005 C 
ENDBRANCH  21  22
ENDBRANCH   1  21
BRANCH  12  24
HETATM   24  C13 UNL     1      38.708  -4.924  30.920  1.00  0.00     0.038 C 
HETATM   25  C14 UNL     1      37.590  -5.253  29.997  1.00  0.00     0.010 C 
ENDBRANCH  12  24
BRANCH   9  26
HETATM   26  N5  UNL     1      45.114  -0.449  28.288  1.00  0.00    -0.343 N 
ATOM     27  H52 UNL     1      45.639  -1.112  27.718  1.00  0.00     0.176 HD
ATOM     28  H51 UNL     1      45.509   0.471  28.482  1.00  0.00     0.176 HD
ENDBRANCH   9  26
TORSDOF 6
ENDMDL
MODEL 4
REMARK VINA RESULT: -5.159553530      9.035     10.962
REMARK  6 active torsions:
REMARK  status: ('A' for Active; 'I' for Inactive)
REMARK    1  A    between atoms: C2_2  and  C3_3 
REMARK    2  A    between atoms: C3_3  and  C4_4 
REMARK       I    between atoms: N2_8  and  C6_10 
REMARK    3  A    between atoms: N4_12  and  N5_14 
REMARK    4  A    between atoms: C7_17  and  N6_18 
REMARK    5  A    between atoms: N6_18  and  C8_20 
REMARK    6  A    between atoms: C12_24  and  C13_25 
ROOT
HETATM    1  C4  UNL     1      39.095  -1.826  30.749  1.00  0.00     0.029 A 
HETATM    2  N1  UNL     1      40.378  -1.650  30.396  1.00  0.00    -0.343 N 
ATOM      3  H1  UNL     1      40.727  -0.699  30.279  1.00  0.00     0.167 HD
HETATM    4  C5  UNL     1      41.219  -2.673  30.190  1.00  0.00     0.135 A 
HETATM    5  N2  UNL     1      42.448  -2.449  29.845  1.00  0.00    -0.314 N 
ATOM      6  H2  UNL     1      43.046  -3.262  29.700  1.00  0.00     0.170 HD
HETATM    7  C6  UNL     1      43.028  -1.191  29.653  1.00  0.00     0.208 C 
HETATM    8  N3  UNL     1      43.226  -0.332  30.765  1.00  0.00    -0.062 NA
HETATM    9  N4  UNL     1      43.369  -0.843  28.460  1.00  0.00    -0.280 N 
ATOM     10  H4  UNL     1      43.205  -1.498  27.695  1.00  0.00     0.189 HD
HETATM   11  C7  UNL     1      40.818  -3.979  30.328  1.00  0.00     0.081 A 
HETATM   12  C12 UNL     1      39.513  -4.235  30.688  1.00  0.00    -0.009 A 
HETATM   13  C15 UNL     1      38.680  -3.123  30.890  1.00  0.00     0.042 A 
HETATM   14 BR1  UNL     1      36.850  -3.412  31.397  1.00  0.00    -0.048 Br
ENDROOT
BRANCH  11  15
HETATM   15  N6  UNL     1      41.668  -5.077  30.067  1.00  0.00    -0.378 N 
ATOM     16  H6  UNL     1      41.611  -5.441  29.116  1.00  0.00     0.160 HD
BRANCH  15  17
HETATM   17  C8  UNL     1      42.583  -5.755  30.899  1.00  0.00     0.019 C 
HETATM   18  C9  UNL     1      44.019  -5.556  30.366  1.00  0.00     0.037 C 
HETATM   19  C10 UNL     1      42.596  -5.366  32.354  1.00  0.00     0.037 C 
HETATM   20  C11 UNL     1      42.297  -7.240  30.846  1.00  0.00     0.037 C 
ENDBRANCH  15  17
ENDBRANCH  11  15
BRANCH   1  21
HETATM   21  C3  UNL     1      38.145  -0.705  30.981  1.00  0.00     0.058 C 
BRANCH  21  22
HETATM   22  C2  UNL     1      38.792   0.465  31.652  1.00  0.00     0.002 C 
HETATM   23  C1  UNL     1      37.718   1.137  32.513  1.00  0.00     0.005 C 
ENDBRANCH  21  22
ENDBRANCH   1  21
BRANCH  12  24
HETATM   24  C13 UNL     1      38.906  -5.568  30.853  1.00  0.00     0.038 C 
HETATM   25  C14 UNL     1      38.996  -6.179  32.205  1.00  0.00     0.010 C 
ENDBRANCH  12  24
BRANCH   9  26
HETATM   26  N5  UNL     1      43.949   0.379  28.171  1.00  0.00    -0.343 N 
ATOM     27  H52 UNL     1      43.459   1.218  28.480  1.00  0.00     0.176 HD
ATOM     28  H51 UNL     1      44.832   0.468  27.668  1.00  0.00     0.176 HD
ENDBRANCH   9  26
TORSDOF 6
ENDMDL
MODEL 5
REMARK VINA RESULT: -5.053653288      6.478      8.576
REMARK  6 active torsions:
REMARK  status: ('A' for Active; 'I' for Inactive)
REMARK    1  A    between atoms: C2_2  and  C3_3 
REMARK    2  A    between atoms: C3_3  and  C4_4 
REMARK       I    between atoms: N2_8  and  C6_10 
REMARK    3  A    between atoms: N4_12  and  N5_14 
REMARK    4  A    between atoms: C7_17  and  N6_18 
REMARK    5  A    between atoms: N6_18  and  C8_20 
REMARK    6  A    between atoms: C12_24  and  C13_25 
ROOT
HETATM    1  C4  UNL     1      42.436  -0.415  33.150  1.00  0.00     0.029 A 
HETATM    2  N1  UNL     1      42.631  -0.767  31.870  1.00  0.00    -0.343 N 
ATOM      3  H1  UNL     1      43.587  -0.894  31.538  1.00  0.00     0.167 HD
HETATM    4  C5  UNL     1      41.621  -0.960  31.010  1.00  0.00     0.135 A 
HETATM    5  N2  UNL     1      41.865  -1.295  29.781  1.00  0.00    -0.314 N 
ATOM      6  H2  UNL     1      41.061  -1.428  29.168  1.00  0.00     0.170 HD
HETATM    7  C6  UNL     1      43.132  -1.489  29.221  1.00  0.00     0.208 C 
HETATM    8  N3  UNL     1      43.920  -2.594  29.636  1.00  0.00    -0.062 NA
HETATM    9  N4  UNL     1      43.551  -0.652  28.336  1.00  0.00    -0.280 N 
ATOM     10  H4  UNL     1      42.945   0.125  28.073  1.00  0.00     0.189 HD
HETATM   11  C7  UNL     1      40.311  -0.807  31.387  1.00  0.00     0.081 A 
HETATM   12  C12 UNL     1      40.035  -0.445  32.687  1.00  0.00    -0.009 A 
HETATM   13  C15 UNL     1      41.133  -0.258  33.541  1.00  0.00     0.042 A 
HETATM   14 BR1  UNL     1      40.816   0.245  35.367  1.00  0.00    -0.048 Br
ENDROOT
BRANCH  11  15
HETATM   15  N6  UNL     1      39.229  -0.952  30.488  1.00  0.00    -0.378 N 
ATOM     16  H6  UNL     1      39.046  -0.133  29.909  1.00  0.00     0.160 HD
BRANCH  15  17
HETATM   17  C8  UNL     1      38.360  -2.039  30.257  1.00  0.00     0.019 C 
HETATM   18  C9  UNL     1      38.745  -2.742  28.937  1.00  0.00     0.037 C 
HETATM   19  C10 UNL     1      38.304  -3.103  31.322  1.00  0.00     0.037 C 
HETATM   20  C11 UNL     1      36.950  -1.519  30.083  1.00  0.00     0.037 C 
ENDBRANCH  15  17
ENDBRANCH  11  15
BRANCH   1  21
HETATM   21  C3  UNL     1      43.542  -0.195  34.120  1.00  0.00     0.058 C 
BRANCH  21  22
HETATM   22  C2  UNL     1      44.329   1.042  33.821  1.00  0.00     0.002 C 
HETATM   23  C1  UNL     1      45.792   0.732  34.153  1.00  0.00     0.005 C 
ENDBRANCH  21  22
ENDBRANCH   1  21
BRANCH  12  24
HETATM   24  C13 UNL     1      38.695  -0.209  33.254  1.00  0.00     0.038 C 
HETATM   25  C14 UNL     1      38.037   1.076  32.898  1.00  0.00     0.010 C 
ENDBRANCH  12  24
BRANCH   9  26
HETATM   26  N5  UNL     1      44.788  -0.761  27.726  1.00  0.00    -0.343 N 
ATOM     27  H52 UNL     1      45.068  -0.012  27.092  1.00  0.00     0.176 HD
ATOM     28  H51 UNL     1      45.416  -1.549  27.884  1.00  0.00     0.176 HD
ENDBRANCH   9  26
TORSDOF 6
ENDMDL
