MODEL 1
REMARK VINA RESULT: -6.895348029      0.000      0.000
REMARK  8 active torsions:
REMARK  status: ('A' for Active; 'I' for Inactive)
REMARK       I    between atoms: C2_4  and  N2_5 
REMARK       I    between atoms: C2_4  and  N3_16 
REMARK    1  A    between atoms: N2_5  and  C3_7 
REMARK    2  A    between atoms: C3_7  and  C4_8 
REMARK    3  A    between atoms: C4_8  and  C5_9 
REMARK    4  A    between atoms: C5_9  and  C6_10 
REMARK    5  A    between atoms: N3_16  and  N4_18 
REMARK    6  A    between atoms: N4_18  and  C12_20 
REMARK    7  A    between atoms: C12_20  and  N5_22 
REMARK       I    between atoms: N5_22  and  C13_24 
REMARK    8  A    between atoms: C13_24  and  C14_26 
ROOT
HETATM    1  C1  UNL     1      40.739  -0.546  33.057  1.00  0.00     0.165 C 
HETATM    2  N1  UNL     1      42.077  -0.310  33.554  1.00  0.00    -0.229 N 
ATOM      3  H1  UNL     1      42.188  -0.137  34.553  1.00  0.00     0.177 HD
HETATM    4  C2  UNL     1      43.124  -0.304  32.830  1.00  0.00     0.688 C 
HETATM    5  N2  UNL     1      43.026  -0.538  31.443  1.00  0.00    -0.225 N 
ATOM      6  H2  UNL     1      42.852   0.223  30.785  1.00  0.00     0.177 HD
HETATM    7  N3  UNL     1      44.380  -0.065  33.412  1.00  0.00    -0.130 N 
ATOM      8  H3  UNL     1      44.958  -0.860  33.683  1.00  0.00     0.205 HD
ENDROOT
BRANCH   5   9
HETATM    9  C3  UNL     1      43.181  -1.900  30.994  1.00  0.00     0.138 C 
BRANCH   9  10
HETATM   10  C4  UNL     1      42.839  -1.992  29.547  1.00  0.00     0.025 C 
BRANCH  10  11
HETATM   11  C5  UNL     1      43.945  -1.332  28.745  1.00  0.00     0.040 C 
BRANCH  11  12
HETATM   12  C6  UNL     1      43.951  -1.987  27.413  1.00  0.00    -0.058 A 
HETATM   13  C7  UNL     1      43.944  -3.361  27.334  1.00  0.00     0.007 A 
HETATM   14  C8  UNL     1      43.950  -3.920  26.078  1.00  0.00     0.001 A 
HETATM   15  C9  UNL     1      43.960  -3.136  24.953  1.00  0.00     0.000 A 
HETATM   16  C10 UNL     1      43.966  -1.761  25.047  1.00  0.00     0.001 A 
HETATM   17  C11 UNL     1      43.961  -1.181  26.297  1.00  0.00     0.007 A 
ENDBRANCH  11  12
ENDBRANCH  10  11
ENDBRANCH   9  10
ENDBRANCH   5   9
BRANCH   7  18
HETATM   18  N4  UNL     1      44.857   1.221  33.628  1.00  0.00    -0.262 N 
ATOM     19  H4  UNL     1      45.220   1.776  32.854  1.00  0.00     0.190 HD
BRANCH  18  20
HETATM   20  C12 UNL     1      44.831   1.745  34.937  1.00  0.00     0.193 C 
HETATM   21  S1  UNL     1      43.549   2.647  35.377  1.00  0.00    -0.039 SA
BRANCH  20  22
HETATM   22  N5  UNL     1      45.870   1.511  35.868  1.00  0.00    -0.302 N 
HETATM   23  C13 UNL     1      46.099   0.264  36.500  1.00  0.00     0.231 C 
HETATM   24  O1  UNL     1      45.340  -0.697  36.219  1.00  0.00    -0.272 OA
ATOM     25  H5  UNL     1      46.491   2.287  36.098  1.00  0.00     0.171 HD
BRANCH  23  26
HETATM   26  C14 UNL     1      47.194   0.049  37.473  1.00  0.00     0.030 C 
HETATM   27  C15 UNL     1      47.104  -1.354  38.036  1.00  0.00     0.025 C 
HETATM   28  C16 UNL     1      47.076   1.018  38.630  1.00  0.00     0.025 C 
HETATM   29  C17 UNL     1      48.551   0.173  36.815  1.00  0.00     0.025 C 
ENDBRANCH  23  26
ENDBRANCH  20  22
ENDBRANCH  18  20
ENDBRANCH   7  18
TORSDOF 8
ENDMDL
MODEL 2
REMARK VINA RESULT: -6.879126298      0.091      1.319
REMARK  8 active torsions:
REMARK  status: ('A' for Active; 'I' for Inactive)
REMARK       I    between atoms: C2_4  and  N2_5 
REMARK       I    between atoms: C2_4  and  N3_16 
REMARK    1  A    between atoms: N2_5  and  C3_7 
REMARK    2  A    between atoms: C3_7  and  C4_8 
REMARK    3  A    between atoms: C4_8  and  C5_9 
REMARK    4  A    between atoms: C5_9  and  C6_10 
REMARK    5  A    between atoms: N3_16  and  N4_18 
REMARK    6  A    between atoms: N4_18  and  C12_20 
REMARK    7  A    between atoms: C12_20  and  N5_22 
REMARK       I    between atoms: N5_22  and  C13_24 
REMARK    8  A    between atoms: C13_24  and  C14_26 
ROOT
HETATM    1  C1  UNL     1      40.690  -0.601  32.979  1.00  0.00     0.165 C 
HETATM    2  N1  UNL     1      42.014  -0.336  33.500  1.00  0.00    -0.229 N 
ATOM      3  H1  UNL     1      42.103  -0.147  34.498  1.00  0.00     0.177 HD
HETATM    4  C2  UNL     1      43.075  -0.321  32.796  1.00  0.00     0.688 C 
HETATM    5  N2  UNL     1      43.008  -0.574  31.410  1.00  0.00    -0.225 N 
ATOM      6  H2  UNL     1      42.835   0.174  30.739  1.00  0.00     0.177 HD
HETATM    7  N3  UNL     1      44.315  -0.052  33.398  1.00  0.00    -0.130 N 
ATOM      8  H3  UNL     1      44.902  -0.833  33.692  1.00  0.00     0.205 HD
ENDROOT
BRANCH   5   9
HETATM    9  C3  UNL     1      43.196  -1.939  30.983  1.00  0.00     0.138 C 
BRANCH   9  10
HETATM   10  C4  UNL     1      42.876  -2.059  29.533  1.00  0.00     0.025 C 
BRANCH  10  11
HETATM   11  C5  UNL     1      43.951  -1.339  28.740  1.00  0.00     0.040 C 
BRANCH  11  12
HETATM   12  C6  UNL     1      43.964  -1.955  27.389  1.00  0.00    -0.058 A 
HETATM   13  C7  UNL     1      43.975  -1.147  26.275  1.00  0.00     0.007 A 
HETATM   14  C8  UNL     1      43.987  -1.765  25.047  1.00  0.00     0.001 A 
HETATM   15  C9  UNL     1      43.989  -3.132  24.942  1.00  0.00     0.000 A 
HETATM   16  C10 UNL     1      43.979  -3.930  26.067  1.00  0.00     0.001 A 
HETATM   17  C11 UNL     1      43.966  -3.329  27.306  1.00  0.00     0.007 A 
ENDBRANCH  11  12
ENDBRANCH  10  11
ENDBRANCH   9  10
ENDBRANCH   5   9
BRANCH   7  18
HETATM   18  N4  UNL     1      44.765   1.245  33.607  1.00  0.00    -0.262 N 
ATOM     19  H4  UNL     1      45.055   1.826  32.820  1.00  0.00     0.190 HD
BRANCH  18  20
HETATM   20  C12 UNL     1      44.815   1.744  34.924  1.00  0.00     0.193 C 
HETATM   21  S1  UNL     1      43.581   2.674  35.441  1.00  0.00    -0.039 SA
BRANCH  20  22
HETATM   22  N5  UNL     1      45.889   1.465  35.801  1.00  0.00    -0.302 N 
HETATM   23  C13 UNL     1      46.085   0.213  36.437  1.00  0.00     0.231 C 
HETATM   24  O1  UNL     1      45.260  -0.707  36.211  1.00  0.00    -0.272 OA
ATOM     25  H5  UNL     1      46.563   2.208  35.987  1.00  0.00     0.171 HD
BRANCH  23  26
HETATM   26  C14 UNL     1      47.218  -0.051  37.352  1.00  0.00     0.030 C 
HETATM   27  C15 UNL     1      47.203   0.958  38.481  1.00  0.00     0.025 C 
HETATM   28  C16 UNL     1      48.536   0.096  36.622  1.00  0.00     0.025 C 
HETATM   29  C17 UNL     1      47.112  -1.421  37.984  1.00  0.00     0.025 C 
ENDBRANCH  23  26
ENDBRANCH  20  22
ENDBRANCH  18  20
ENDBRANCH   7  18
TORSDOF 8
ENDMDL
MODEL 3
REMARK VINA RESULT: -6.732476404      5.617      8.425
REMARK  8 active torsions:
REMARK  status: ('A' for Active; 'I' for Inactive)
REMARK       I    between atoms: C2_4  and  N2_5 
REMARK       I    between atoms: C2_4  and  N3_16 
REMARK    1  A    between atoms: N2_5  and  C3_7 
REMARK    2  A    between atoms: C3_7  and  C4_8 
REMARK    3  A    between atoms: C4_8  and  C5_9 
REMARK    4  A    between atoms: C5_9  and  C6_10 
REMARK    5  A    between atoms: N3_16  and  N4_18 
REMARK    6  A    between atoms: N4_18  and  C12_20 
REMARK    7  A    between atoms: C12_20  and  N5_22 
REMARK       I    between atoms: N5_22  and  C13_24 
REMARK    8  A    between atoms: C13_24  and  C14_26 
ROOT
HETATM    1  C1  UNL     1      43.902  -3.582  24.740  1.00  0.00     0.165 C 
HETATM    2  N1  UNL     1      43.734  -4.363  25.947  1.00  0.00    -0.229 N 
ATOM      3  H1  UNL     1      43.912  -5.365  25.893  1.00  0.00     0.177 HD
HETATM    4  C2  UNL     1      43.378  -3.883  27.071  1.00  0.00     0.688 C 
HETATM    5  N2  UNL     1      43.119  -2.503  27.201  1.00  0.00    -0.225 N 
ATOM      6  H2  UNL     1      42.195  -2.114  27.009  1.00  0.00     0.177 HD
HETATM    7  N3  UNL     1      43.245  -4.727  28.186  1.00  0.00    -0.130 N 
ATOM      8  H3  UNL     1      44.028  -4.820  28.833  1.00  0.00     0.205 HD
ENDROOT
BRANCH   5   9
HETATM    9  C3  UNL     1      44.217  -1.664  27.616  1.00  0.00     0.138 C 
BRANCH   9  10
HETATM   10  C4  UNL     1      44.205  -1.523  29.099  1.00  0.00     0.025 C 
BRANCH  10  11
HETATM   11  C5  UNL     1      42.909  -0.849  29.511  1.00  0.00     0.040 C 
BRANCH  11  12
HETATM   12  C6  UNL     1      42.549  -1.401  30.841  1.00  0.00    -0.058 A 
HETATM   13  C7  UNL     1      43.085  -2.603  31.244  1.00  0.00     0.007 A 
HETATM   14  C8  UNL     1      42.721  -3.072  32.484  1.00  0.00     0.001 A 
HETATM   15  C9  UNL     1      41.860  -2.365  33.284  1.00  0.00     0.000 A 
HETATM   16  C10 UNL     1      41.331  -1.162  32.868  1.00  0.00     0.001 A 
HETATM   17  C11 UNL     1      41.683  -0.676  31.628  1.00  0.00     0.007 A 
ENDBRANCH  11  12
ENDBRANCH  10  11
ENDBRANCH   9  10
ENDBRANCH   5   9
BRANCH   7  18
HETATM   18  N4  UNL     1      42.078  -5.439  28.433  1.00  0.00    -0.262 N 
ATOM     19  H4  UNL     1      41.536  -5.829  27.663  1.00  0.00     0.190 HD
BRANCH  18  20
HETATM   20  C12 UNL     1      41.657  -5.613  29.767  1.00  0.00     0.193 C 
HETATM   21  S1  UNL     1      42.594  -6.503  30.759  1.00  0.00    -0.039 SA
BRANCH  20  22
HETATM   22  N5  UNL     1      40.462  -5.043  30.266  1.00  0.00    -0.302 N 
HETATM   23  C13 UNL     1      39.927  -3.810  29.816  1.00  0.00     0.231 C 
HETATM   24  O1  UNL     1      40.545  -3.181  28.921  1.00  0.00    -0.272 OA
ATOM     25  H5  UNL     1      39.955  -5.550  30.991  1.00  0.00     0.171 HD
BRANCH  23  26
HETATM   26  C14 UNL     1      38.674  -3.237  30.358  1.00  0.00     0.030 C 
HETATM   27  C15 UNL     1      38.568  -3.555  31.834  1.00  0.00     0.025 C 
HETATM   28  C16 UNL     1      37.470  -3.843  29.669  1.00  0.00     0.025 C 
HETATM   29  C17 UNL     1      38.654  -1.730  30.229  1.00  0.00     0.025 C 
ENDBRANCH  23  26
ENDBRANCH  20  22
ENDBRANCH  18  20
ENDBRANCH   7  18
TORSDOF 8
ENDMDL
MODEL 4
REMARK VINA RESULT: -6.704347464      5.649      8.473
REMARK  8 active torsions:
REMARK  status: ('A' for Active; 'I' for Inactive)
REMARK       I    between atoms: C2_4  and  N2_5 
REMARK       I    between atoms: C2_4  and  N3_16 
REMARK    1  A    between atoms: N2_5  and  C3_7 
REMARK    2  A    between atoms: C3_7  and  C4_8 
REMARK    3  A    between atoms: C4_8  and  C5_9 
REMARK    4  A    between atoms: C5_9  and  C6_10 
REMARK    5  A    between atoms: N3_16  and  N4_18 
REMARK    6  A    between atoms: N4_18  and  C12_20 
REMARK    7  A    between atoms: C12_20  and  N5_22 
REMARK       I    between atoms: N5_22  and  C13_24 
REMARK    8  A    between atoms: C13_24  and  C14_26 
ROOT
HETATM    1  C1  UNL     1      43.902  -3.588  24.759  1.00  0.00     0.165 C 
HETATM    2  N1  UNL     1      43.736  -4.368  25.966  1.00  0.00    -0.229 N 
ATOM      3  H1  UNL     1      43.915  -5.370  25.912  1.00  0.00     0.177 HD
HETATM    4  C2  UNL     1      43.380  -3.887  27.091  1.00  0.00     0.688 C 
HETATM    5  N2  UNL     1      43.118  -2.508  27.219  1.00  0.00    -0.225 N 
ATOM      6  H2  UNL     1      42.195  -2.121  27.028  1.00  0.00     0.177 HD
HETATM    7  N3  UNL     1      43.248  -4.732  28.206  1.00  0.00    -0.130 N 
ATOM      8  H3  UNL     1      44.032  -4.823  28.852  1.00  0.00     0.205 HD
ENDROOT
BRANCH   5   9
HETATM    9  C3  UNL     1      44.216  -1.668  27.634  1.00  0.00     0.138 C 
BRANCH   9  10
HETATM   10  C4  UNL     1      44.170  -1.478  29.111  1.00  0.00     0.025 C 
BRANCH  10  11
HETATM   11  C5  UNL     1      42.853  -0.816  29.473  1.00  0.00     0.040 C 
BRANCH  11  12
HETATM   12  C6  UNL     1      42.457  -1.357  30.798  1.00  0.00    -0.058 A 
HETATM   13  C7  UNL     1      41.526  -0.683  31.555  1.00  0.00     0.007 A 
HETATM   14  C8  UNL     1      41.193  -1.224  32.774  1.00  0.00     0.001 A 
HETATM   15  C9  UNL     1      41.768  -2.389  33.213  1.00  0.00     0.000 A 
HETATM   16  C10 UNL     1      42.699  -3.054  32.444  1.00  0.00     0.001 A 
HETATM   17  C11 UNL     1      43.046  -2.528  31.219  1.00  0.00     0.007 A 
ENDBRANCH  11  12
ENDBRANCH  10  11
ENDBRANCH   9  10
ENDBRANCH   5   9
BRANCH   7  18
HETATM   18  N4  UNL     1      42.083  -5.445  28.453  1.00  0.00    -0.262 N 
ATOM     19  H4  UNL     1      41.534  -5.825  27.683  1.00  0.00     0.190 HD
BRANCH  18  20
HETATM   20  C12 UNL     1      41.672  -5.635  29.789  1.00  0.00     0.193 C 
HETATM   21  S1  UNL     1      42.644  -6.489  30.778  1.00  0.00    -0.039 SA
BRANCH  20  22
HETATM   22  N5  UNL     1      40.458  -5.110  30.291  1.00  0.00    -0.302 N 
HETATM   23  C13 UNL     1      39.888  -3.887  29.860  1.00  0.00     0.231 C 
HETATM   24  O1  UNL     1      40.490  -3.225  28.979  1.00  0.00    -0.272 OA
ATOM     25  H5  UNL     1      39.964  -5.645  31.006  1.00  0.00     0.171 HD
BRANCH  23  26
HETATM   26  C14 UNL     1      38.615  -3.361  30.405  1.00  0.00     0.030 C 
HETATM   27  C15 UNL     1      37.451  -4.025  29.702  1.00  0.00     0.025 C 
HETATM   28  C16 UNL     1      38.509  -1.870  30.164  1.00  0.00     0.025 C 
HETATM   29  C17 UNL     1      38.476  -3.670  31.879  1.00  0.00     0.025 C 
ENDBRANCH  23  26
ENDBRANCH  20  22
ENDBRANCH  18  20
ENDBRANCH   7  18
TORSDOF 8
ENDMDL
MODEL 5
REMARK VINA RESULT: -6.555457231      1.928      2.541
REMARK  8 active torsions:
REMARK  status: ('A' for Active; 'I' for Inactive)
REMARK       I    between atoms: C2_4  and  N2_5 
REMARK       I    between atoms: C2_4  and  N3_16 
REMARK    1  A    between atoms: N2_5  and  C3_7 
REMARK    2  A    between atoms: C3_7  and  C4_8 
REMARK    3  A    between atoms: C4_8  and  C5_9 
REMARK    4  A    between atoms: C5_9  and  C6_10 
REMARK    5  A    between atoms: N3_16  and  N4_18 
REMARK    6  A    between atoms: N4_18  and  C12_20 
REMARK    7  A    between atoms: C12_20  and  N5_22 
REMARK       I    between atoms: N5_22  and  C13_24 
REMARK    8  A    between atoms: C13_24  and  C14_26 
ROOT
HETATM    1  C1  UNL     1      41.004  -0.247  33.530  1.00  0.00     0.165 C 
HETATM    2  N1  UNL     1      42.397  -0.239  33.919  1.00  0.00    -0.229 N 
ATOM      3  H1  UNL     1      42.612  -0.199  34.915  1.00  0.00     0.177 HD
HETATM    4  C2  UNL     1      43.374  -0.279  33.102  1.00  0.00     0.688 C 
HETATM    5  N2  UNL     1      43.132  -0.334  31.714  1.00  0.00    -0.225 N 
ATOM      6  H2  UNL     1      43.010   0.514  31.160  1.00  0.00     0.177 HD
HETATM    7  N3  UNL     1      44.694  -0.268  33.583  1.00  0.00    -0.130 N 
ATOM      8  H3  UNL     1      45.180  -1.155  33.712  1.00  0.00     0.205 HD
ENDROOT
BRANCH   5   9
HETATM    9  C3  UNL     1      43.066  -1.643  31.111  1.00  0.00     0.138 C 
BRANCH   9  10
HETATM   10  C4  UNL     1      43.371  -1.540  29.657  1.00  0.00     0.025 C 
BRANCH  10  11
HETATM   11  C5  UNL     1      43.491  -2.942  29.087  1.00  0.00     0.040 C 
BRANCH  11  12
HETATM   12  C6  UNL     1      43.686  -2.788  27.623  1.00  0.00    -0.058 A 
HETATM   13  C7  UNL     1      43.738  -3.908  26.825  1.00  0.00     0.007 A 
HETATM   14  C8  UNL     1      43.920  -3.713  25.476  1.00  0.00     0.001 A 
HETATM   15  C9  UNL     1      44.043  -2.452  24.952  1.00  0.00     0.000 A 
HETATM   16  C10 UNL     1      43.989  -1.339  25.764  1.00  0.00     0.001 A 
HETATM   17  C11 UNL     1      43.808  -1.513  27.118  1.00  0.00     0.007 A 
ENDBRANCH  11  12
ENDBRANCH  10  11
ENDBRANCH   9  10
ENDBRANCH   5   9
BRANCH   7  18
HETATM   18  N4  UNL     1      45.355   0.915  33.887  1.00  0.00    -0.262 N 
ATOM     19  H4  UNL     1      45.356   1.693  33.228  1.00  0.00     0.190 HD
BRANCH  18  20
HETATM   20  C12 UNL     1      46.025   1.021  35.123  1.00  0.00     0.193 C 
HETATM   21  S1  UNL     1      47.249  -0.011  35.424  1.00  0.00    -0.039 SA
BRANCH  20  22
HETATM   22  N5  UNL     1      45.673   1.985  36.096  1.00  0.00    -0.302 N 
HETATM   23  C13 UNL     1      44.353   2.181  36.573  1.00  0.00     0.231 C 
HETATM   24  O1  UNL     1      43.437   1.458  36.109  1.00  0.00    -0.272 OA
ATOM     25  H5  UNL     1      46.414   2.574  36.478  1.00  0.00     0.171 HD
BRANCH  23  26
HETATM   26  C14 UNL     1      44.014   3.201  37.592  1.00  0.00     0.030 C 
HETATM   27  C15 UNL     1      42.697   2.842  38.247  1.00  0.00     0.025 C 
HETATM   28  C16 UNL     1      43.853   4.562  36.950  1.00  0.00     0.025 C 
HETATM   29  C17 UNL     1      45.054   3.252  38.689  1.00  0.00     0.025 C 
ENDBRANCH  23  26
ENDBRANCH  20  22
ENDBRANCH  18  20
ENDBRANCH   7  18
TORSDOF 8
ENDMDL
