MODEL 1
REMARK VINA RESULT: -6.138202196      0.000      0.000
REMARK  6 active torsions:
REMARK  status: ('A' for Active; 'I' for Inactive)
REMARK    1  A    between atoms: C3_3  and  N1_4 
REMARK       I    between atoms: N1_4  and  C4_6 
REMARK       I    between atoms: C4_6  and  N2_8 
REMARK    2  A    between atoms: N2_8  and  C5_10 
REMARK    3  A    between atoms: C5_10  and  C6_11 
REMARK    4  A    between atoms: C6_11  and  C7_12 
REMARK    5  A    between atoms: C15_21  and  O2_22 
REMARK    6  A    between atoms: C18_26  and  O3_27 
ROOT
HETATM    1  C1  UNL     1      43.572   5.390  38.032  1.00  0.00     0.012 C 
HETATM    2  C2  UNL     1      43.333   4.006  38.554  1.00  0.00     0.009 C 
HETATM    3  C3  UNL     1      41.934   3.517  38.266  1.00  0.00     0.090 C 
HETATM    4  C8  UNL     1      42.139   2.263  37.418  1.00  0.00     0.031 C 
HETATM    5  C9  UNL     1      43.465   1.723  37.882  1.00  0.00    -0.001 C 
HETATM    6  C10 UNL     1      44.282   2.986  37.975  1.00  0.00    -0.004 C 
HETATM    7  C11 UNL     1      44.727   3.380  36.609  1.00  0.00     0.006 C 
HETATM    8  C12 UNL     1      45.676   2.360  36.092  1.00  0.00     0.012 C 
HETATM    9  C13 UNL     1      45.399   0.947  36.444  1.00  0.00    -0.012 C 
HETATM   10  C14 UNL     1      46.511   0.475  37.395  1.00  0.00     0.018 C 
HETATM   11  C15 UNL     1      45.601   0.111  35.178  1.00  0.00     0.127 C 
HETATM   12  C16 UNL     1      44.631   0.432  34.095  1.00  0.00     0.035 C 
HETATM   13  C17 UNL     1      43.239   0.524  34.627  1.00  0.00     0.034 C 
HETATM   14  C18 UNL     1      43.078   0.065  36.034  1.00  0.00     0.123 C 
HETATM   15  C19 UNL     1      44.052   0.656  37.028  1.00  0.00     0.029 C 
ENDROOT
BRANCH   3  16
HETATM   16  N1  UNL     1      41.164   4.468  37.513  1.00  0.00    -0.338 N 
HETATM   17  C4  UNL     1      40.139   5.189  38.158  1.00  0.00     0.316 C 
HETATM   18  O1  UNL     1      39.881   5.011  39.392  1.00  0.00    -0.247 OA
HETATM   19  N2  UNL     1      39.383   6.121  37.433  1.00  0.00    -0.343 N 
ATOM     20  H2  UNL     1      39.574   6.277  36.444  1.00  0.00     0.164 HD
ATOM     21  H1  UNL     1      41.358   4.621  36.523  1.00  0.00     0.164 HD
BRANCH  19  22
HETATM   22  C5  UNL     1      38.335   6.859  38.093  1.00  0.00     0.125 C 
BRANCH  22  23
HETATM   23  C6  UNL     1      37.834   8.007  37.224  1.00  0.00     0.034 C 
BRANCH  23  24
HETATM   24  C7  UNL     1      37.290   7.339  35.954  1.00  0.00     0.116 C 
HETATM   25 CL1  UNL     1      35.733   6.576  36.237  1.00  0.00    -0.130 Cl
ENDBRANCH  23  24
ENDBRANCH  22  23
ENDBRANCH  19  22
ENDBRANCH   3  16
BRANCH  14  26
HETATM   26  O3  UNL     1      43.148  -1.350  36.004  1.00  0.00    -0.395 OA
ATOM     27  H3  UNL     1      43.116  -1.640  36.908  1.00  0.00     0.210 HD
ENDBRANCH  14  26
BRANCH  11  28
HETATM   28  O2  UNL     1      46.881   0.482  34.702  1.00  0.00    -0.395 OA
ATOM     29  H2  UNL     1      47.426  -0.282  34.854  1.00  0.00     0.210 HD
ENDBRANCH  11  28
TORSDOF 6
ENDMDL
MODEL 2
REMARK VINA RESULT: -6.137481591      6.370      9.663
REMARK  6 active torsions:
REMARK  status: ('A' for Active; 'I' for Inactive)
REMARK    1  A    between atoms: C3_3  and  N1_4 
REMARK       I    between atoms: N1_4  and  C4_6 
REMARK       I    between atoms: C4_6  and  N2_8 
REMARK    2  A    between atoms: N2_8  and  C5_10 
REMARK    3  A    between atoms: C5_10  and  C6_11 
REMARK    4  A    between atoms: C6_11  and  C7_12 
REMARK    5  A    between atoms: C15_21  and  O2_22 
REMARK    6  A    between atoms: C18_26  and  O3_27 
ROOT
HETATM    1  C1  UNL     1      39.960  -1.594  30.653  1.00  0.00     0.012 C 
HETATM    2  C2  UNL     1      40.905  -2.316  31.565  1.00  0.00     0.009 C 
HETATM    3  C3  UNL     1      42.335  -2.245  31.085  1.00  0.00     0.090 C 
HETATM    4  C8  UNL     1      43.082  -1.551  32.222  1.00  0.00     0.031 C 
HETATM    5  C9  UNL     1      42.309  -1.938  33.454  1.00  0.00    -0.001 C 
HETATM    6  C10 UNL     1      40.889  -1.777  32.974  1.00  0.00    -0.004 C 
HETATM    7  C11 UNL     1      40.529  -0.331  32.993  1.00  0.00     0.006 C 
HETATM    8  C12 UNL     1      40.504   0.147  34.400  1.00  0.00     0.012 C 
HETATM    9  C13 UNL     1      41.524  -0.414  35.318  1.00  0.00    -0.012 C 
HETATM   10  C14 UNL     1      40.794  -1.295  36.347  1.00  0.00     0.018 C 
HETATM   11  C15 UNL     1      42.087   0.745  36.143  1.00  0.00     0.127 C 
HETATM   12  C16 UNL     1      42.821   1.751  35.325  1.00  0.00     0.035 C 
HETATM   13  C17 UNL     1      43.755   1.090  34.366  1.00  0.00     0.034 C 
HETATM   14  C18 UNL     1      43.926  -0.374  34.573  1.00  0.00     0.123 C 
HETATM   15  C19 UNL     1      42.648  -1.173  34.684  1.00  0.00     0.029 C 
ENDROOT
BRANCH   3  16
HETATM   16  N1  UNL     1      42.473  -1.461  29.889  1.00  0.00    -0.338 N 
HETATM   17  C4  UNL     1      43.460  -1.812  28.946  1.00  0.00     0.316 C 
HETATM   18  O1  UNL     1      44.231  -2.808  29.134  1.00  0.00    -0.247 OA
HETATM   19  N2  UNL     1      43.602  -1.056  27.774  1.00  0.00    -0.343 N 
ATOM     20  H2  UNL     1      42.995  -0.254  27.606  1.00  0.00     0.164 HD
ATOM     21  H1  UNL     1      41.864  -0.660  29.724  1.00  0.00     0.164 HD
BRANCH  19  22
HETATM   22  C5  UNL     1      44.611  -1.416  26.809  1.00  0.00     0.125 C 
BRANCH  22  23
HETATM   23  C6  UNL     1      43.987  -2.002  25.548  1.00  0.00     0.034 C 
BRANCH  23  24
HETATM   24  C7  UNL     1      44.087  -3.524  25.722  1.00  0.00     0.116 C 
HETATM   25 CL1  UNL     1      43.560  -4.379  24.280  1.00  0.00    -0.130 Cl
ENDBRANCH  23  24
ENDBRANCH  22  23
ENDBRANCH  19  22
ENDBRANCH   3  16
BRANCH  14  26
HETATM   26  O3  UNL     1      44.743  -0.523  35.723  1.00  0.00    -0.395 OA
ATOM     27  H3  UNL     1      44.595   0.248  36.258  1.00  0.00     0.210 HD
ENDBRANCH  14  26
BRANCH  11  28
HETATM   28  O2  UNL     1      40.948   1.400  36.668  1.00  0.00    -0.395 OA
ATOM     29  H2  UNL     1      41.188   1.623  37.560  1.00  0.00     0.210 HD
ENDBRANCH  11  28
TORSDOF 6
ENDMDL
MODEL 3
REMARK VINA RESULT: -6.044522604      5.224      8.331
REMARK  6 active torsions:
REMARK  status: ('A' for Active; 'I' for Inactive)
REMARK    1  A    between atoms: C3_3  and  N1_4 
REMARK       I    between atoms: N1_4  and  C4_6 
REMARK       I    between atoms: C4_6  and  N2_8 
REMARK    2  A    between atoms: N2_8  and  C5_10 
REMARK    3  A    between atoms: C5_10  and  C6_11 
REMARK    4  A    between atoms: C6_11  and  C7_12 
REMARK    5  A    between atoms: C15_21  and  O2_22 
REMARK    6  A    between atoms: C18_26  and  O3_27 
ROOT
HETATM    1  C1  UNL     1      40.737  -0.506  33.073  1.00  0.00     0.012 C 
HETATM    2  C2  UNL     1      41.828  -1.082  33.923  1.00  0.00     0.009 C 
HETATM    3  C3  UNL     1      43.161  -1.099  33.214  1.00  0.00     0.090 C 
HETATM    4  C8  UNL     1      44.068  -0.241  34.094  1.00  0.00     0.031 C 
HETATM    5  C9  UNL     1      43.510  -0.423  35.479  1.00  0.00    -0.001 C 
HETATM    6  C10 UNL     1      42.029  -0.328  35.215  1.00  0.00    -0.004 C 
HETATM    7  C11 UNL     1      41.651   1.105  35.065  1.00  0.00     0.006 C 
HETATM    8  C12 UNL     1      41.843   1.799  36.365  1.00  0.00     0.012 C 
HETATM    9  C13 UNL     1      43.006   1.381  37.184  1.00  0.00    -0.012 C 
HETATM   10  C14 UNL     1      42.466   0.679  38.441  1.00  0.00     0.018 C 
HETATM   11  C15 UNL     1      43.674   2.651  37.715  1.00  0.00     0.127 C 
HETATM   12  C16 UNL     1      44.249   3.510  36.643  1.00  0.00     0.035 C 
HETATM   13  C17 UNL     1      45.029   2.699  35.661  1.00  0.00     0.034 C 
HETATM   14  C18 UNL     1      45.258   1.284  36.065  1.00  0.00     0.123 C 
HETATM   15  C19 UNL     1      44.027   0.524  36.504  1.00  0.00     0.029 C 
ENDROOT
BRANCH   3  16
HETATM   16  N1  UNL     1      43.092  -0.514  31.904  1.00  0.00    -0.338 N 
HETATM   17  C4  UNL     1      43.154  -1.352  30.772  1.00  0.00     0.316 C 
HETATM   18  O1  UNL     1      43.271  -2.614  30.888  1.00  0.00    -0.247 OA
HETATM   19  N2  UNL     1      43.086  -0.791  29.488  1.00  0.00    -0.343 N 
ATOM     20  H2  UNL     1      42.993   0.217  29.374  1.00  0.00     0.164 HD
ATOM     21  H1  UNL     1      42.999   0.496  31.794  1.00  0.00     0.164 HD
BRANCH  19  22
HETATM   22  C5  UNL     1      43.148  -1.648  28.330  1.00  0.00     0.125 C 
BRANCH  22  23
HETATM   23  C6  UNL     1      43.904  -0.982  27.187  1.00  0.00     0.034 C 
BRANCH  23  24
HETATM   24  C7  UNL     1      44.654  -2.121  26.485  1.00  0.00     0.116 C 
HETATM   25 CL1  UNL     1      43.904  -2.546  24.954  1.00  0.00    -0.130 Cl
ENDBRANCH  23  24
ENDBRANCH  22  23
ENDBRANCH  19  22
ENDBRANCH   3  16
BRANCH  14  26
HETATM   26  O3  UNL     1      46.250   1.312  37.077  1.00  0.00    -0.395 OA
ATOM     27  H3  UNL     1      46.324   0.424  37.405  1.00  0.00     0.210 HD
ENDBRANCH  14  26
BRANCH  11  28
HETATM   28  O2  UNL     1      42.622   3.389  38.308  1.00  0.00    -0.395 OA
ATOM     29  H2  UNL     1      42.934   3.594  39.182  1.00  0.00     0.210 HD
ENDBRANCH  11  28
TORSDOF 6
ENDMDL
MODEL 4
REMARK VINA RESULT: -6.016200376     10.283     12.259
REMARK  6 active torsions:
REMARK  status: ('A' for Active; 'I' for Inactive)
REMARK    1  A    between atoms: C3_3  and  N1_4 
REMARK       I    between atoms: N1_4  and  C4_6 
REMARK       I    between atoms: C4_6  and  N2_8 
REMARK    2  A    between atoms: N2_8  and  C5_10 
REMARK    3  A    between atoms: C5_10  and  C6_11 
REMARK    4  A    between atoms: C6_11  and  C7_12 
REMARK    5  A    between atoms: C15_21  and  O2_22 
REMARK    6  A    between atoms: C18_26  and  O3_27 
ROOT
HETATM    1  C1  UNL     1      41.842  -4.353  32.243  1.00  0.00     0.012 C 
HETATM    2  C2  UNL     1      41.622  -5.531  31.344  1.00  0.00     0.009 C 
HETATM    3  C3  UNL     1      42.392  -5.418  30.050  1.00  0.00     0.090 C 
HETATM    4  C8  UNL     1      43.307  -6.642  30.047  1.00  0.00     0.031 C 
HETATM    5  C9  UNL     1      42.540  -7.671  30.833  1.00  0.00    -0.001 C 
HETATM    6  C10 UNL     1      42.021  -6.840  31.979  1.00  0.00    -0.004 C 
HETATM    7  C11 UNL     1      43.113  -6.643  32.972  1.00  0.00     0.006 C 
HETATM    8  C12 UNL     1      43.455  -7.954  33.587  1.00  0.00     0.012 C 
HETATM    9  C13 UNL     1      43.411  -9.142  32.701  1.00  0.00    -0.012 C 
HETATM   10  C14 UNL     1      42.242 -10.027  33.164  1.00  0.00     0.018 C 
HETATM   11  C15 UNL     1      44.659  -9.978  32.992  1.00  0.00     0.127 C 
HETATM   12  C16 UNL     1      45.930  -9.286  32.641  1.00  0.00     0.035 C 
HETATM   13  C17 UNL     1      45.844  -8.650  31.292  1.00  0.00     0.034 C 
HETATM   14  C18 UNL     1      44.635  -9.019  30.506  1.00  0.00     0.123 C 
HETATM   15  C19 UNL     1      43.316  -8.876  31.232  1.00  0.00     0.029 C 
ENDROOT
BRANCH   3  16
HETATM   16  N1  UNL     1      43.201  -4.231  29.995  1.00  0.00    -0.338 N 
HETATM   17  C4  UNL     1      43.077  -3.364  28.891  1.00  0.00     0.316 C 
HETATM   18  O1  UNL     1      42.264  -3.613  27.943  1.00  0.00    -0.247 OA
HETATM   19  N2  UNL     1      43.859  -2.202  28.829  1.00  0.00    -0.343 N 
ATOM     20  H2  UNL     1      44.515  -1.986  29.578  1.00  0.00     0.164 HD
ATOM     21  H1  UNL     1      43.857  -4.019  30.747  1.00  0.00     0.164 HD
BRANCH  19  22
HETATM   22  C5  UNL     1      43.730  -1.314  27.700  1.00  0.00     0.125 C 
BRANCH  22  23
HETATM   23  C6  UNL     1      44.798  -1.595  26.649  1.00  0.00     0.034 C 
BRANCH  23  24
HETATM   24  C7  UNL     1      44.021  -1.961  25.378  1.00  0.00     0.116 C 
HETATM   25 CL1  UNL     1      43.763  -0.561  24.348  1.00  0.00    -0.130 Cl
ENDBRANCH  23  24
ENDBRANCH  22  23
ENDBRANCH  19  22
ENDBRANCH   3  16
BRANCH  14  26
HETATM   26  O3  UNL     1      44.844 -10.344  30.048  1.00  0.00    -0.395 OA
ATOM     27  H3  UNL     1      45.657 -10.333  29.557  1.00  0.00     0.210 HD
ENDBRANCH  14  26
BRANCH  11  28
HETATM   28  O2  UNL     1      44.661 -10.144  34.398  1.00  0.00    -0.395 OA
ATOM     29  H2  UNL     1      43.754 -10.029  34.656  1.00  0.00     0.210 HD
ENDBRANCH  11  28
TORSDOF 6
ENDMDL
MODEL 5
REMARK VINA RESULT: -5.957254408      8.993     11.723
REMARK  6 active torsions:
REMARK  status: ('A' for Active; 'I' for Inactive)
REMARK    1  A    between atoms: C3_3  and  N1_4 
REMARK       I    between atoms: N1_4  and  C4_6 
REMARK       I    between atoms: C4_6  and  N2_8 
REMARK    2  A    between atoms: N2_8  and  C5_10 
REMARK    3  A    between atoms: C5_10  and  C6_11 
REMARK    4  A    between atoms: C6_11  and  C7_12 
REMARK    5  A    between atoms: C15_21  and  O2_22 
REMARK    6  A    between atoms: C18_26  and  O3_27 
ROOT
HETATM    1  C1  UNL     1      41.046  -6.318  30.237  1.00  0.00     0.012 C 
HETATM    2  C2  UNL     1      41.581  -5.205  31.085  1.00  0.00     0.009 C 
HETATM    3  C3  UNL     1      42.254  -4.130  30.266  1.00  0.00     0.090 C 
HETATM    4  C8  UNL     1      41.457  -2.864  30.573  1.00  0.00     0.031 C 
HETATM    5  C9  UNL     1      40.951  -3.084  31.973  1.00  0.00    -0.001 C 
HETATM    6  C10 UNL     1      40.513  -4.525  31.906  1.00  0.00    -0.004 C 
HETATM    7  C11 UNL     1      39.187  -4.600  31.232  1.00  0.00     0.006 C 
HETATM    8  C12 UNL     1      38.166  -3.939  32.087  1.00  0.00     0.012 C 
HETATM    9  C13 UNL     1      38.595  -2.731  32.831  1.00  0.00    -0.012 C 
HETATM   10  C14 UNL     1      38.600  -3.081  34.329  1.00  0.00     0.018 C 
HETATM   11  C15 UNL     1      37.485  -1.687  32.689  1.00  0.00     0.127 C 
HETATM   12  C16 UNL     1      37.285  -1.223  31.288  1.00  0.00     0.035 C 
HETATM   13  C17 UNL     1      38.590  -0.914  30.631  1.00  0.00     0.034 C 
HETATM   14  C18 UNL     1      39.764  -0.911  31.546  1.00  0.00     0.123 C 
HETATM   15  C19 UNL     1      39.905  -2.129  32.430  1.00  0.00     0.029 C 
ENDROOT
BRANCH   3  16
HETATM   16  N1  UNL     1      42.187  -4.393  28.855  1.00  0.00    -0.338 N 
HETATM   17  C4  UNL     1      43.286  -4.058  28.038  1.00  0.00     0.316 C 
HETATM   18  O1  UNL     1      44.335  -3.527  28.526  1.00  0.00    -0.247 OA
HETATM   19  N2  UNL     1      43.231  -4.313  26.661  1.00  0.00    -0.343 N 
ATOM     20  H2  UNL     1      42.400  -4.738  26.251  1.00  0.00     0.164 HD
ATOM     21  H1  UNL     1      41.353  -4.818  28.448  1.00  0.00     0.164 HD
BRANCH  19  22
HETATM   22  C5  UNL     1      44.356  -3.972  25.826  1.00  0.00     0.125 C 
BRANCH  22  23
HETATM   23  C6  UNL     1      43.949  -3.015  24.712  1.00  0.00     0.034 C 
BRANCH  23  24
HETATM   24  C7  UNL     1      43.979  -1.620  25.351  1.00  0.00     0.116 C 
HETATM   25 CL1  UNL     1      43.759  -0.352  24.155  1.00  0.00    -0.130 Cl
ENDBRANCH  23  24
ENDBRANCH  22  23
ENDBRANCH  19  22
ENDBRANCH   3  16
BRANCH  14  26
HETATM   26  O3  UNL     1      39.677   0.284  32.304  1.00  0.00    -0.395 OA
ATOM     27  H3  UNL     1      39.478   0.978  31.688  1.00  0.00     0.210 HD
ENDBRANCH  14  26
BRANCH  11  28
HETATM   28  O2  UNL     1      36.302  -2.366  33.066  1.00  0.00    -0.395 OA
ATOM     29  H2  UNL     1      35.928  -1.832  33.757  1.00  0.00     0.210 HD
ENDBRANCH  11  28
TORSDOF 6
ENDMDL
