MODEL 1
REMARK VINA RESULT: -7.412238824      0.000      0.000
REMARK  12 active torsions:
REMARK  status: ('A' for Active; 'I' for Inactive)
REMARK    1  A    between atoms: O1_1  and  C1_3 
REMARK    2  A    between atoms: C1_3  and  N1_4 
REMARK    3  A    between atoms: C1_3  and  N4_21 
REMARK    4  A    between atoms: N1_4  and  N2_6 
REMARK    5  A    between atoms: N2_6  and  C2_8 
REMARK    6  A    between atoms: C2_8  and  N3_10 
REMARK    7  A    between atoms: N3_10  and  C3_12 
REMARK    8  A    between atoms: C3_12  and  C4_13 
REMARK    9  A    between atoms: C4_13  and  C5_14 
REMARK   10  A    between atoms: N4_21  and  C11_23 
REMARK   11  A    between atoms: C11_23  and  O2_24 
REMARK   12  A    between atoms: C11_23  and  C12_26 
ROOT
HETATM    1  N1  UNL     1      43.026  -1.470  31.185  1.00  0.00    -0.263 N 
ATOM      2  H1  UNL     1      42.742  -2.447  31.259  1.00  0.00     0.190 HD
ENDROOT
BRANCH   1   3
HETATM    3  C1  UNL     1      42.543  -0.680  30.141  1.00  0.00     0.238 C 
BRANCH   3   4
HETATM    4  O1  UNL     1      41.295  -0.317  30.285  1.00  0.00    -0.331 OA
ATOM      5  H1  UNL     1      41.103   0.070  31.130  1.00  0.00     0.221 HD
ENDBRANCH   3   4
BRANCH   3   6
HETATM    6  N4  UNL     1      43.224  -0.250  28.993  1.00  0.00    -0.301 N 
ATOM      7  H4  UNL     1      42.910   0.660  28.657  1.00  0.00     0.171 HD
BRANCH   6   8
HETATM    8  C11 UNL     1      44.224  -0.794  28.224  1.00  0.00     0.153 C 
BRANCH   8   9
HETATM    9  O2  UNL     1      45.455  -0.404  28.399  1.00  0.00    -0.345 OA
ATOM     10  H2  UNL     1      45.652   0.525  28.433  1.00  0.00     0.219 HD
ENDBRANCH   8   9
BRANCH   8  11
HETATM   11  C12 UNL     1      44.065  -1.800  27.201  1.00  0.00     0.015 A 
HETATM   12  C13 UNL     1      43.851  -3.125  27.588  1.00  0.00     0.016 A 
HETATM   13  C14 UNL     1      43.714  -4.114  26.661  1.00  0.00     0.001 A 
HETATM   14  C15 UNL     1      43.781  -3.845  25.316  1.00  0.00     0.000 A 
HETATM   15  C16 UNL     1      43.996  -2.532  24.898  1.00  0.00     0.001 A 
HETATM   16  C17 UNL     1      44.130  -1.555  25.853  1.00  0.00     0.016 A 
ENDBRANCH   8  11
ENDBRANCH   6   8
ENDBRANCH   3   6
ENDBRANCH   1   3
BRANCH   1  17
HETATM   17  N2  UNL     1      43.897  -0.924  32.130  1.00  0.00    -0.273 N 
ATOM     18  H2  UNL     1      44.887  -1.165  32.091  1.00  0.00     0.189 HD
BRANCH  17  19
HETATM   19  C2  UNL     1      43.446  -0.053  33.127  1.00  0.00     0.186 C 
HETATM   20  S1  UNL     1      41.992  -0.332  33.877  1.00  0.00    -0.040 SA
BRANCH  19  21
HETATM   21  N3  UNL     1      44.179   1.078  33.548  1.00  0.00    -0.366 N 
ATOM     22  H3  UNL     1      43.789   2.013  33.432  1.00  0.00     0.161 HD
BRANCH  21  23
HETATM   23  C3  UNL     1      45.482   0.905  34.140  1.00  0.00     0.126 C 
BRANCH  23  24
HETATM   24  C4  UNL     1      45.389   0.720  35.621  1.00  0.00     0.060 C 
BRANCH  24  25
HETATM   25  C5  UNL     1      46.716   0.399  36.211  1.00  0.00    -0.035 A 
HETATM   26  C6  UNL     1      47.699  -0.255  35.512  1.00  0.00     0.009 A 
HETATM   27  C7  UNL     1      48.925  -0.562  36.080  1.00  0.00     0.001 A 
HETATM   28  C8  UNL     1      49.176  -0.202  37.396  1.00  0.00     0.002 A 
HETATM   29  C9  UNL     1      48.168   0.454  38.075  1.00  0.00     0.024 A 
HETATM   30  C10 UNL     1      46.943   0.765  37.516  1.00  0.00     0.040 A 
HETATM   31 CL1  UNL     1      45.713   1.616  38.469  1.00  0.00    -0.084 Cl
ENDBRANCH  24  25
ENDBRANCH  23  24
ENDBRANCH  21  23
ENDBRANCH  19  21
ENDBRANCH  17  19
ENDBRANCH   1  17
TORSDOF 12
ENDMDL
MODEL 2
REMARK VINA RESULT: -7.360007583      5.645      7.554
REMARK  12 active torsions:
REMARK  status: ('A' for Active; 'I' for Inactive)
REMARK    1  A    between atoms: O1_1  and  C1_3 
REMARK    2  A    between atoms: C1_3  and  N1_4 
REMARK    3  A    between atoms: C1_3  and  N4_21 
REMARK    4  A    between atoms: N1_4  and  N2_6 
REMARK    5  A    between atoms: N2_6  and  C2_8 
REMARK    6  A    between atoms: C2_8  and  N3_10 
REMARK    7  A    between atoms: N3_10  and  C3_12 
REMARK    8  A    between atoms: C3_12  and  C4_13 
REMARK    9  A    between atoms: C4_13  and  C5_14 
REMARK   10  A    between atoms: N4_21  and  C11_23 
REMARK   11  A    between atoms: C11_23  and  O2_24 
REMARK   12  A    between atoms: C11_23  and  C12_26 
ROOT
HETATM    1  N1  UNL     1      43.901  -1.306  26.916  1.00  0.00    -0.263 N 
ATOM      2  H1  UNL     1      43.312  -0.893  26.193  1.00  0.00     0.190 HD
ENDROOT
BRANCH   1   3
HETATM    3  C1  UNL     1      44.116  -0.624  28.115  1.00  0.00     0.238 C 
BRANCH   3   4
HETATM    4  O1  UNL     1      45.369  -0.316  28.330  1.00  0.00    -0.331 OA
ATOM      5  H1  UNL     1      45.716  -0.661  29.144  1.00  0.00     0.221 HD
ENDBRANCH   3   4
BRANCH   3   6
HETATM    6  N4  UNL     1      43.172  -0.248  29.081  1.00  0.00    -0.301 N 
ATOM      7  H4  UNL     1      42.737   0.654  28.888  1.00  0.00     0.171 HD
BRANCH   6   8
HETATM    8  C11 UNL     1      42.709  -0.836  30.232  1.00  0.00     0.153 C 
BRANCH   8   9
HETATM    9  O2  UNL     1      43.514  -0.993  31.244  1.00  0.00    -0.345 OA
ATOM     10  H2  UNL     1      43.372  -0.493  32.039  1.00  0.00     0.219 HD
ENDBRANCH   8   9
BRANCH   8  11
HETATM   11  C12 UNL     1      41.368  -1.318  30.467  1.00  0.00     0.015 A 
HETATM   12  C13 UNL     1      40.725  -0.963  31.655  1.00  0.00     0.016 A 
HETATM   13  C14 UNL     1      39.467  -1.407  31.933  1.00  0.00     0.001 A 
HETATM   14  C15 UNL     1      38.788  -2.218  31.056  1.00  0.00     0.000 A 
HETATM   15  C16 UNL     1      39.404  -2.591  29.863  1.00  0.00     0.001 A 
HETATM   16  C17 UNL     1      40.672  -2.129  29.608  1.00  0.00     0.016 A 
ENDBRANCH   8  11
ENDBRANCH   6   8
ENDBRANCH   3   6
ENDBRANCH   1   3
BRANCH   1  17
HETATM   17  N2  UNL     1      44.491  -2.554  26.706  1.00  0.00    -0.273 N 
ATOM     18  H2  UNL     1      45.501  -2.649  26.809  1.00  0.00     0.189 HD
BRANCH  17  19
HETATM   19  C2  UNL     1      43.733  -3.676  26.359  1.00  0.00     0.186 C 
HETATM   20  S1  UNL     1      43.756  -4.244  24.800  1.00  0.00    -0.040 SA
BRANCH  19  21
HETATM   21  N3  UNL     1      42.929  -4.376  27.286  1.00  0.00    -0.366 N 
ATOM     22  H3  UNL     1      42.096  -4.873  26.968  1.00  0.00     0.161 HD
BRANCH  21  23
HETATM   23  C3  UNL     1      43.289  -4.384  28.681  1.00  0.00     0.126 C 
BRANCH  23  24
HETATM   24  C4  UNL     1      42.691  -5.555  29.394  1.00  0.00     0.060 C 
BRANCH  24  25
HETATM   25  C5  UNL     1      42.183  -5.168  30.737  1.00  0.00    -0.035 A 
HETATM   26  C6  UNL     1      42.912  -4.407  31.615  1.00  0.00     0.009 A 
HETATM   27  C7  UNL     1      42.434  -4.069  32.870  1.00  0.00     0.001 A 
HETATM   28  C8  UNL     1      41.178  -4.510  33.262  1.00  0.00     0.002 A 
HETATM   29  C9  UNL     1      40.466  -5.274  32.358  1.00  0.00     0.024 A 
HETATM   30  C10 UNL     1      40.936  -5.616  31.104  1.00  0.00     0.040 A 
HETATM   31 CL1  UNL     1      39.944  -6.598  30.012  1.00  0.00    -0.084 Cl
ENDBRANCH  24  25
ENDBRANCH  23  24
ENDBRANCH  21  23
ENDBRANCH  19  21
ENDBRANCH  17  19
ENDBRANCH   1  17
TORSDOF 12
ENDMDL
MODEL 3
REMARK VINA RESULT: -7.157488513      1.486      1.964
REMARK  12 active torsions:
REMARK  status: ('A' for Active; 'I' for Inactive)
REMARK    1  A    between atoms: O1_1  and  C1_3 
REMARK    2  A    between atoms: C1_3  and  N1_4 
REMARK    3  A    between atoms: C1_3  and  N4_21 
REMARK    4  A    between atoms: N1_4  and  N2_6 
REMARK    5  A    between atoms: N2_6  and  C2_8 
REMARK    6  A    between atoms: C2_8  and  N3_10 
REMARK    7  A    between atoms: N3_10  and  C3_12 
REMARK    8  A    between atoms: C3_12  and  C4_13 
REMARK    9  A    between atoms: C4_13  and  C5_14 
REMARK   10  A    between atoms: N4_21  and  C11_23 
REMARK   11  A    between atoms: C11_23  and  O2_24 
REMARK   12  A    between atoms: C11_23  and  C12_26 
ROOT
HETATM    1  N1  UNL     1      42.996  -1.458  31.086  1.00  0.00    -0.263 N 
ATOM      2  H1  UNL     1      42.684  -2.426  31.166  1.00  0.00     0.190 HD
ENDROOT
BRANCH   1   3
HETATM    3  C1  UNL     1      42.522  -0.657  30.046  1.00  0.00     0.238 C 
BRANCH   3   4
HETATM    4  O1  UNL     1      41.285  -0.261  30.204  1.00  0.00    -0.331 OA
ATOM      5  H1  UNL     1      40.699  -0.944  30.505  1.00  0.00     0.221 HD
ENDBRANCH   3   4
BRANCH   3   6
HETATM    6  N4  UNL     1      43.200  -0.246  28.889  1.00  0.00    -0.301 N 
ATOM      7  H4  UNL     1      42.858   0.639  28.516  1.00  0.00     0.171 HD
BRANCH   6   8
HETATM    8  C11 UNL     1      44.228  -0.782  28.153  1.00  0.00     0.153 C 
BRANCH   8   9
HETATM    9  O2  UNL     1      45.454  -0.416  28.397  1.00  0.00    -0.345 OA
ATOM     10  H2  UNL     1      45.849  -0.628  29.235  1.00  0.00     0.219 HD
ENDBRANCH   8   9
BRANCH   8  11
HETATM   11  C12 UNL     1      44.104  -1.755  27.093  1.00  0.00     0.015 A 
HETATM   12  C13 UNL     1      43.992  -3.106  27.430  1.00  0.00     0.016 A 
HETATM   13  C14 UNL     1      43.891  -4.064  26.467  1.00  0.00     0.001 A 
HETATM   14  C15 UNL     1      43.898  -3.737  25.132  1.00  0.00     0.000 A 
HETATM   15  C16 UNL     1      44.010  -2.397  24.765  1.00  0.00     0.001 A 
HETATM   16  C17 UNL     1      44.110  -1.451  25.755  1.00  0.00     0.016 A 
ENDBRANCH   8  11
ENDBRANCH   6   8
ENDBRANCH   3   6
ENDBRANCH   1   3
BRANCH   1  17
HETATM   17  N2  UNL     1      43.896  -0.935  32.016  1.00  0.00    -0.273 N 
ATOM     18  H2  UNL     1      44.891  -1.131  31.909  1.00  0.00     0.189 HD
BRANCH  17  19
HETATM   19  C2  UNL     1      43.468  -0.150  33.091  1.00  0.00     0.186 C 
HETATM   20  S1  UNL     1      42.017  -0.473  33.830  1.00  0.00    -0.040 SA
BRANCH  19  21
HETATM   21  N3  UNL     1      44.221   0.930  33.601  1.00  0.00    -0.366 N 
ATOM     22  H3  UNL     1      44.403   1.748  33.019  1.00  0.00     0.161 HD
BRANCH  21  23
HETATM   23  C3  UNL     1      44.732   0.871  34.947  1.00  0.00     0.126 C 
BRANCH  23  24
HETATM   24  C4  UNL     1      45.081   2.231  35.461  1.00  0.00     0.060 C 
BRANCH  24  25
HETATM   25  C5  UNL     1      45.407   2.195  36.912  1.00  0.00    -0.035 A 
HETATM   26  C6  UNL     1      46.191   1.219  37.471  1.00  0.00     0.009 A 
HETATM   27  C7  UNL     1      46.473   1.188  38.827  1.00  0.00     0.001 A 
HETATM   28  C8  UNL     1      45.949   2.170  39.654  1.00  0.00     0.002 A 
HETATM   29  C9  UNL     1      45.163   3.140  39.064  1.00  0.00     0.024 A 
HETATM   30  C10 UNL     1      44.878   3.179  37.713  1.00  0.00     0.040 A 
HETATM   31 CL1  UNL     1      43.861   4.471  37.048  1.00  0.00    -0.084 Cl
ENDBRANCH  24  25
ENDBRANCH  23  24
ENDBRANCH  21  23
ENDBRANCH  19  21
ENDBRANCH  17  19
ENDBRANCH   1  17
TORSDOF 12
ENDMDL
MODEL 4
REMARK VINA RESULT: -7.149340776      1.324      1.994
REMARK  12 active torsions:
REMARK  status: ('A' for Active; 'I' for Inactive)
REMARK    1  A    between atoms: O1_1  and  C1_3 
REMARK    2  A    between atoms: C1_3  and  N1_4 
REMARK    3  A    between atoms: C1_3  and  N4_21 
REMARK    4  A    between atoms: N1_4  and  N2_6 
REMARK    5  A    between atoms: N2_6  and  C2_8 
REMARK    6  A    between atoms: C2_8  and  N3_10 
REMARK    7  A    between atoms: N3_10  and  C3_12 
REMARK    8  A    between atoms: C3_12  and  C4_13 
REMARK    9  A    between atoms: C4_13  and  C5_14 
REMARK   10  A    between atoms: N4_21  and  C11_23 
REMARK   11  A    between atoms: C11_23  and  O2_24 
REMARK   12  A    between atoms: C11_23  and  C12_26 
ROOT
HETATM    1  N1  UNL     1      43.468  -1.330  31.232  1.00  0.00    -0.263 N 
ATOM      2  H1  UNL     1      44.269  -1.911  30.983  1.00  0.00     0.190 HD
ENDROOT
BRANCH   1   3
HETATM    3  C1  UNL     1      42.772  -0.639  30.240  1.00  0.00     0.238 C 
BRANCH   3   4
HETATM    4  O1  UNL     1      41.570  -0.268  30.598  1.00  0.00    -0.331 OA
ATOM      5  H1  UNL     1      40.929  -0.315  29.899  1.00  0.00     0.221 HD
ENDBRANCH   3   4
BRANCH   3   6
HETATM    6  N4  UNL     1      43.203  -0.311  28.946  1.00  0.00    -0.301 N 
ATOM      7  H4  UNL     1      42.645   0.423  28.511  1.00  0.00     0.171 HD
BRANCH   6   8
HETATM    8  C11 UNL     1      44.216  -0.769  28.141  1.00  0.00     0.153 C 
BRANCH   8   9
HETATM    9  O2  UNL     1      45.429  -0.329  28.319  1.00  0.00    -0.345 OA
ATOM     10  H2  UNL     1      46.091  -0.908  28.678  1.00  0.00     0.219 HD
ENDBRANCH   8   9
BRANCH   8  11
HETATM   11  C12 UNL     1      44.091  -1.732  27.072  1.00  0.00     0.015 A 
HETATM   12  C13 UNL     1      43.964  -3.085  27.397  1.00  0.00     0.016 A 
HETATM   13  C14 UNL     1      43.862  -4.034  26.426  1.00  0.00     0.001 A 
HETATM   14  C15 UNL     1      43.880  -3.696  25.094  1.00  0.00     0.000 A 
HETATM   15  C16 UNL     1      44.006  -2.355  24.738  1.00  0.00     0.001 A 
HETATM   16  C17 UNL     1      44.107  -1.418  25.737  1.00  0.00     0.016 A 
ENDBRANCH   8  11
ENDBRANCH   6   8
ENDBRANCH   3   6
ENDBRANCH   1   3
BRANCH   1  17
HETATM   17  N2  UNL     1      43.070  -1.227  32.567  1.00  0.00    -0.273 N 
ATOM     18  H2  UNL     1      42.426  -1.920  32.948  1.00  0.00     0.189 HD
BRANCH  17  19
HETATM   19  C2  UNL     1      43.532  -0.199  33.393  1.00  0.00     0.186 C 
HETATM   20  S1  UNL     1      42.489   0.558  34.440  1.00  0.00    -0.040 SA
BRANCH  19  21
HETATM   21  N3  UNL     1      44.874   0.243  33.394  1.00  0.00    -0.366 N 
ATOM     22  H3  UNL     1      45.543  -0.153  32.733  1.00  0.00     0.161 HD
BRANCH  21  23
HETATM   23  C3  UNL     1      45.292   1.254  34.331  1.00  0.00     0.126 C 
BRANCH  23  24
HETATM   24  C4  UNL     1      46.038   0.658  35.483  1.00  0.00     0.060 C 
BRANCH  24  25
HETATM   25  C5  UNL     1      45.801   1.425  36.735  1.00  0.00    -0.035 A 
HETATM   26  C6  UNL     1      45.072   2.586  36.768  1.00  0.00     0.009 A 
HETATM   27  C7  UNL     1      44.873   3.298  37.939  1.00  0.00     0.001 A 
HETATM   28  C8  UNL     1      45.426   2.831  39.122  1.00  0.00     0.002 A 
HETATM   29  C9  UNL     1      46.155   1.660  39.060  1.00  0.00     0.024 A 
HETATM   30  C10 UNL     1      46.357   0.943  37.896  1.00  0.00     0.040 A 
HETATM   31 CL1  UNL     1      47.305  -0.555  37.919  1.00  0.00    -0.084 Cl
ENDBRANCH  24  25
ENDBRANCH  23  24
ENDBRANCH  21  23
ENDBRANCH  19  21
ENDBRANCH  17  19
ENDBRANCH   1  17
TORSDOF 12
ENDMDL
MODEL 5
REMARK VINA RESULT: -7.111582842      1.591      2.259
REMARK  12 active torsions:
REMARK  status: ('A' for Active; 'I' for Inactive)
REMARK    1  A    between atoms: O1_1  and  C1_3 
REMARK    2  A    between atoms: C1_3  and  N1_4 
REMARK    3  A    between atoms: C1_3  and  N4_21 
REMARK    4  A    between atoms: N1_4  and  N2_6 
REMARK    5  A    between atoms: N2_6  and  C2_8 
REMARK    6  A    between atoms: C2_8  and  N3_10 
REMARK    7  A    between atoms: N3_10  and  C3_12 
REMARK    8  A    between atoms: C3_12  and  C4_13 
REMARK    9  A    between atoms: C4_13  and  C5_14 
REMARK   10  A    between atoms: N4_21  and  C11_23 
REMARK   11  A    between atoms: C11_23  and  O2_24 
REMARK   12  A    between atoms: C11_23  and  C12_26 
ROOT
HETATM    1  N1  UNL     1      43.496  -1.071  31.310  1.00  0.00    -0.263 N 
ATOM      2  H1  UNL     1      44.000  -1.955  31.253  1.00  0.00     0.190 HD
ENDROOT
BRANCH   1   3
HETATM    3  C1  UNL     1      42.652  -0.680  30.269  1.00  0.00     0.238 C 
BRANCH   3   4
HETATM    4  O1  UNL     1      41.471  -0.283  30.667  1.00  0.00    -0.331 OA
ATOM      5  H1  UNL     1      41.053   0.331  30.075  1.00  0.00     0.221 HD
ENDBRANCH   3   4
BRANCH   3   6
HETATM    6  N4  UNL     1      42.920  -0.668  28.893  1.00  0.00    -0.301 N 
ATOM      7  H4  UNL     1      42.134  -0.340  28.333  1.00  0.00     0.171 HD
BRANCH   6   8
HETATM    8  C11 UNL     1      44.017  -1.005  28.139  1.00  0.00     0.153 C 
BRANCH   8   9
HETATM    9  O2  UNL     1      45.185  -0.514  28.445  1.00  0.00    -0.345 OA
ATOM     10  H2  UNL     1      45.528   0.222  27.953  1.00  0.00     0.219 HD
ENDBRANCH   8   9
BRANCH   8  11
HETATM   11  C12 UNL     1      44.031  -1.886  26.995  1.00  0.00     0.015 A 
HETATM   12  C13 UNL     1      43.995  -1.327  25.715  1.00  0.00     0.016 A 
HETATM   13  C14 UNL     1      43.987  -2.116  24.604  1.00  0.00     0.001 A 
HETATM   14  C15 UNL     1      44.016  -3.486  24.702  1.00  0.00     0.000 A 
HETATM   15  C16 UNL     1      44.051  -4.073  25.966  1.00  0.00     0.001 A 
HETATM   16  C17 UNL     1      44.058  -3.255  27.069  1.00  0.00     0.016 A 
ENDBRANCH   8  11
ENDBRANCH   6   8
ENDBRANCH   3   6
ENDBRANCH   1   3
BRANCH   1  17
HETATM   17  N2  UNL     1      43.650  -0.251  32.430  1.00  0.00    -0.273 N 
ATOM     18  H2  UNL     1      44.009   0.696  32.307  1.00  0.00     0.189 HD
BRANCH  17  19
HETATM   19  C2  UNL     1      43.325  -0.695  33.715  1.00  0.00     0.186 C 
HETATM   20  S1  UNL     1      42.407  -2.064  33.913  1.00  0.00    -0.040 SA
BRANCH  19  21
HETATM   21  N3  UNL     1      43.748  -0.030  34.888  1.00  0.00    -0.366 N 
ATOM     22  H3  UNL     1      43.085   0.149  35.641  1.00  0.00     0.161 HD
BRANCH  21  23
HETATM   23  C3  UNL     1      45.120   0.393  35.013  1.00  0.00     0.126 C 
BRANCH  23  24
HETATM   24  C4  UNL     1      45.215   1.836  35.392  1.00  0.00     0.060 C 
BRANCH  24  25
HETATM   25  C5  UNL     1      45.477   1.998  36.847  1.00  0.00    -0.035 A 
HETATM   26  C6  UNL     1      46.255   1.123  37.562  1.00  0.00     0.009 A 
HETATM   27  C7  UNL     1      46.477   1.276  38.921  1.00  0.00     0.001 A 
HETATM   28  C8  UNL     1      45.898   2.346  39.589  1.00  0.00     0.002 A 
HETATM   29  C9  UNL     1      45.120   3.210  38.844  1.00  0.00     0.024 A 
HETATM   30  C10 UNL     1      44.895   3.065  37.489  1.00  0.00     0.040 A 
HETATM   31 CL1  UNL     1      43.884   4.233  36.618  1.00  0.00    -0.084 Cl
ENDBRANCH  24  25
ENDBRANCH  23  24
ENDBRANCH  21  23
ENDBRANCH  19  21
ENDBRANCH  17  19
ENDBRANCH   1  17
TORSDOF 12
ENDMDL
