MODEL 1
REMARK VINA RESULT: -7.022063453      0.000      0.000
REMARK  5 active torsions:
REMARK  status: ('A' for Active; 'I' for Inactive)
REMARK       I    between atoms: C1_4  and  N2_5 
REMARK       I    between atoms: C1_4  and  N6_23 
REMARK       I    between atoms: C2_7  and  N3_8 
REMARK       I    between atoms: C2_7  and  N5_14 
REMARK    1  A    between atoms: N3_8  and  N4_10 
REMARK    2  A    between atoms: N4_10  and  C3_12 
REMARK    3  A    between atoms: N5_14  and  C4_16 
REMARK    4  A    between atoms: N6_23  and  C10_25 
REMARK    5  A    between atoms: C10_25  and  C11_26 
ROOT
HETATM    1  N1  UNL     1      42.754  -0.250  30.094  1.00  0.00    -0.234 N 
ATOM      2  H11 UNL     1      43.765  -0.387  30.071  1.00  0.00     0.174 HD
ATOM      3  H12 UNL     1      42.335   0.657  30.300  1.00  0.00     0.174 HD
HETATM    4  C1  UNL     1      42.030  -1.285  29.850  1.00  0.00     0.686 C 
HETATM    5  N2  UNL     1      40.617  -1.093  29.882  1.00  0.00    -0.021 N 
ATOM      6  H2  UNL     1      40.206  -0.462  29.195  1.00  0.00     0.203 HD
HETATM    7  C2  UNL     1      39.838  -1.657  30.710  1.00  0.00     0.712 C 
HETATM    8  N3  UNL     1      40.346  -2.546  31.691  1.00  0.00    -0.129 N 
ATOM      9  H3  UNL     1      39.886  -3.451  31.795  1.00  0.00     0.205 HD
HETATM   10  N5  UNL     1      38.450  -1.387  30.644  1.00  0.00    -0.189 N 
ATOM     11  H5  UNL     1      37.894  -1.905  29.964  1.00  0.00     0.184 HD
HETATM   12  N6  UNL     1      42.612  -2.545  29.566  1.00  0.00    -0.222 N 
ATOM     13  H6  UNL     1      42.099  -3.397  29.792  1.00  0.00     0.178 HD
ENDROOT
BRANCH   8  14
HETATM   14  N4  UNL     1      41.432  -2.266  32.523  1.00  0.00    -0.263 N 
ATOM     15  H4  UNL     1      42.323  -2.750  32.409  1.00  0.00     0.190 HD
BRANCH  14  16
HETATM   16  C3  UNL     1      41.271  -1.393  33.422  1.00  0.00     0.369 C 
HETATM   17  O1  UNL     1      41.192  -0.351  34.082  1.00  0.00    -0.282 OA
ENDBRANCH  14  16
ENDBRANCH   8  14
BRANCH  10  18
HETATM   18  C4  UNL     1      37.789  -0.451  31.455  1.00  0.00     0.066 A 
HETATM   19  C5  UNL     1      38.460   0.596  32.049  1.00  0.00     0.031 A 
HETATM   20  C6  UNL     1      37.789   1.506  32.845  1.00  0.00     0.002 A 
HETATM   21  C7  UNL     1      36.422   1.400  33.073  1.00  0.00     0.002 A 
HETATM   22  C8  UNL     1      35.761   0.360  32.482  1.00  0.00     0.021 A 
HETATM   23  C9  UNL     1      36.435  -0.557  31.682  1.00  0.00     0.038 A 
HETATM   24 BR1  UNL     1      35.400  -1.968  30.910  1.00  0.00    -0.049 Br
ENDBRANCH  10  18
BRANCH  12  25
HETATM   25  C10 UNL     1      43.913  -2.641  28.966  1.00  0.00     0.176 C 
BRANCH  25  26
HETATM   26  C11 UNL     1      43.927  -2.579  27.497  1.00  0.00    -0.040 A 
HETATM   27  C12 UNL     1      43.966  -1.445  26.744  1.00  0.00     0.009 A 
HETATM   28  C13 UNL     1      43.979  -1.533  25.365  1.00  0.00     0.001 A 
HETATM   29  C14 UNL     1      43.954  -2.729  24.680  1.00  0.00     0.000 A 
HETATM   30  C15 UNL     1      43.915  -3.874  25.448  1.00  0.00     0.001 A 
HETATM   31  C16 UNL     1      43.901  -3.800  26.825  1.00  0.00     0.009 A 
ENDBRANCH  25  26
ENDBRANCH  12  25
TORSDOF 5
ENDMDL
MODEL 2
REMARK VINA RESULT: -6.981916825      1.007      1.007
REMARK  5 active torsions:
REMARK  status: ('A' for Active; 'I' for Inactive)
REMARK       I    between atoms: C1_4  and  N2_5 
REMARK       I    between atoms: C1_4  and  N6_23 
REMARK       I    between atoms: C2_7  and  N3_8 
REMARK       I    between atoms: C2_7  and  N5_14 
REMARK    1  A    between atoms: N3_8  and  N4_10 
REMARK    2  A    between atoms: N4_10  and  C3_12 
REMARK    3  A    between atoms: N5_14  and  C4_16 
REMARK    4  A    between atoms: N6_23  and  C10_25 
REMARK    5  A    between atoms: C10_25  and  C11_26 
ROOT
HETATM    1  N1  UNL     1      42.768  -0.249  30.105  1.00  0.00    -0.234 N 
ATOM      2  H11 UNL     1      43.776  -0.402  30.083  1.00  0.00     0.174 HD
ATOM      3  H12 UNL     1      42.363   0.659  30.335  1.00  0.00     0.174 HD
HETATM    4  C1  UNL     1      42.027  -1.264  29.828  1.00  0.00     0.686 C 
HETATM    5  N2  UNL     1      40.618  -1.050  29.860  1.00  0.00    -0.021 N 
ATOM      6  H2  UNL     1      40.221  -0.391  29.189  1.00  0.00     0.203 HD
HETATM    7  C2  UNL     1      39.826  -1.624  30.667  1.00  0.00     0.712 C 
HETATM    8  N3  UNL     1      40.313  -2.550  31.624  1.00  0.00    -0.129 N 
ATOM      9  H3  UNL     1      39.838  -3.449  31.700  1.00  0.00     0.205 HD
HETATM   10  N5  UNL     1      38.442  -1.328  30.603  1.00  0.00    -0.189 N 
ATOM     11  H5  UNL     1      37.881  -1.817  29.906  1.00  0.00     0.184 HD
HETATM   12  N6  UNL     1      42.590  -2.525  29.510  1.00  0.00    -0.222 N 
ATOM     13  H6  UNL     1      42.061  -3.375  29.709  1.00  0.00     0.178 HD
ENDROOT
BRANCH   8  14
HETATM   14  N4  UNL     1      41.400  -2.313  32.468  1.00  0.00    -0.263 N 
ATOM     15  H4  UNL     1      41.656  -1.365  32.747  1.00  0.00     0.190 HD
BRANCH  14  16
HETATM   16  C3  UNL     1      42.055  -3.314  32.875  1.00  0.00     0.369 C 
HETATM   17  O1  UNL     1      42.687  -4.371  32.983  1.00  0.00    -0.282 OA
ENDBRANCH  14  16
ENDBRANCH   8  14
BRANCH  10  18
HETATM   18  C4  UNL     1      37.793  -0.405  31.438  1.00  0.00     0.066 A 
HETATM   19  C5  UNL     1      38.486   0.583  32.103  1.00  0.00     0.031 A 
HETATM   20  C6  UNL     1      37.827   1.482  32.921  1.00  0.00     0.002 A 
HETATM   21  C7  UNL     1      36.450   1.422  33.102  1.00  0.00     0.002 A 
HETATM   22  C8  UNL     1      35.768   0.439  32.441  1.00  0.00     0.021 A 
HETATM   23  C9  UNL     1      36.429  -0.465  31.618  1.00  0.00     0.038 A 
HETATM   24 BR1  UNL     1      35.365  -1.795  30.747  1.00  0.00    -0.049 Br
ENDBRANCH  10  18
BRANCH  12  25
HETATM   25  C10 UNL     1      43.892  -2.626  28.913  1.00  0.00     0.176 C 
BRANCH  25  26
HETATM   26  C11 UNL     1      43.908  -2.581  27.443  1.00  0.00    -0.040 A 
HETATM   27  C12 UNL     1      43.948  -1.456  26.678  1.00  0.00     0.009 A 
HETATM   28  C13 UNL     1      43.963  -1.559  25.299  1.00  0.00     0.001 A 
HETATM   29  C14 UNL     1      43.938  -2.764  24.628  1.00  0.00     0.000 A 
HETATM   30  C15 UNL     1      43.897  -3.899  25.409  1.00  0.00     0.001 A 
HETATM   31  C16 UNL     1      43.882  -3.810  26.786  1.00  0.00     0.009 A 
ENDBRANCH  25  26
ENDBRANCH  12  25
TORSDOF 5
ENDMDL
MODEL 3
REMARK VINA RESULT: -6.549749916      1.293      1.394
REMARK  5 active torsions:
REMARK  status: ('A' for Active; 'I' for Inactive)
REMARK       I    between atoms: C1_4  and  N2_5 
REMARK       I    between atoms: C1_4  and  N6_23 
REMARK       I    between atoms: C2_7  and  N3_8 
REMARK       I    between atoms: C2_7  and  N5_14 
REMARK    1  A    between atoms: N3_8  and  N4_10 
REMARK    2  A    between atoms: N4_10  and  C3_12 
REMARK    3  A    between atoms: N5_14  and  C4_16 
REMARK    4  A    between atoms: N6_23  and  C10_25 
REMARK    5  A    between atoms: C10_25  and  C11_26 
ROOT
HETATM    1  N1  UNL     1      42.092  -0.640  29.901  1.00  0.00    -0.234 N 
ATOM      2  H11 UNL     1      43.110  -0.625  29.965  1.00  0.00     0.174 HD
ATOM      3  H12 UNL     1      41.532   0.209  29.983  1.00  0.00     0.174 HD
HETATM    4  C1  UNL     1      41.545  -1.789  29.711  1.00  0.00     0.686 C 
HETATM    5  N2  UNL     1      40.122  -1.809  29.622  1.00  0.00    -0.021 N 
ATOM      6  H2  UNL     1      39.686  -1.310  28.847  1.00  0.00     0.203 HD
HETATM    7  C2  UNL     1      39.363  -2.406  30.444  1.00  0.00     0.712 C 
HETATM    8  N3  UNL     1      39.905  -3.119  31.543  1.00  0.00    -0.129 N 
ATOM      9  H3  UNL     1      39.572  -4.069  31.705  1.00  0.00     0.205 HD
HETATM   10  N5  UNL     1      37.961  -2.354  30.251  1.00  0.00    -0.189 N 
ATOM     11  H5  UNL     1      37.545  -3.008  29.589  1.00  0.00     0.184 HD
HETATM   12  N6  UNL     1      42.323  -2.968  29.598  1.00  0.00    -0.222 N 
ATOM     13  H6  UNL     1      41.918  -3.864  29.871  1.00  0.00     0.178 HD
ENDROOT
BRANCH   8  14
HETATM   14  N4  UNL     1      40.865  -2.607  32.419  1.00  0.00    -0.263 N 
ATOM     15  H4  UNL     1      40.995  -1.601  32.531  1.00  0.00     0.190 HD
BRANCH  14  16
HETATM   16  C3  UNL     1      41.567  -3.434  33.068  1.00  0.00     0.369 C 
HETATM   17  O1  UNL     1      42.435  -4.219  33.465  1.00  0.00    -0.282 OA
ENDBRANCH  14  16
ENDBRANCH   8  14
BRANCH  10  18
HETATM   18  C4  UNL     1      37.106  -1.459  30.914  1.00  0.00     0.066 A 
HETATM   19  C5  UNL     1      37.540  -0.693  31.974  1.00  0.00     0.031 A 
HETATM   20  C6  UNL     1      36.681   0.182  32.614  1.00  0.00     0.002 A 
HETATM   21  C7  UNL     1      35.358   0.321  32.213  1.00  0.00     0.002 A 
HETATM   22  C8  UNL     1      34.932  -0.442  31.161  1.00  0.00     0.021 A 
HETATM   23  C9  UNL     1      35.795  -1.322  30.518  1.00  0.00     0.038 A 
HETATM   24 BR1  UNL     1      35.082  -2.334  29.059  1.00  0.00    -0.049 Br
ENDBRANCH  10  18
BRANCH  12  25
HETATM   25  C10 UNL     1      43.671  -2.922  29.106  1.00  0.00     0.176 C 
BRANCH  25  26
HETATM   26  C11 UNL     1      43.797  -2.757  27.650  1.00  0.00    -0.040 A 
HETATM   27  C12 UNL     1      44.019  -1.585  26.994  1.00  0.00     0.009 A 
HETATM   28  C13 UNL     1      44.120  -1.575  25.615  1.00  0.00     0.001 A 
HETATM   29  C14 UNL     1      44.008  -2.708  24.837  1.00  0.00     0.000 A 
HETATM   30  C15 UNL     1      43.783  -3.891  25.508  1.00  0.00     0.001 A 
HETATM   31  C16 UNL     1      43.679  -3.915  26.884  1.00  0.00     0.009 A 
ENDBRANCH  25  26
ENDBRANCH  12  25
TORSDOF 5
ENDMDL
MODEL 4
REMARK VINA RESULT: -6.450547273      3.240      4.367
REMARK  5 active torsions:
REMARK  status: ('A' for Active; 'I' for Inactive)
REMARK       I    between atoms: C1_4  and  N2_5 
REMARK       I    between atoms: C1_4  and  N6_23 
REMARK       I    between atoms: C2_7  and  N3_8 
REMARK       I    between atoms: C2_7  and  N5_14 
REMARK    1  A    between atoms: N3_8  and  N4_10 
REMARK    2  A    between atoms: N4_10  and  C3_12 
REMARK    3  A    between atoms: N5_14  and  C4_16 
REMARK    4  A    between atoms: N6_23  and  C10_25 
REMARK    5  A    between atoms: C10_25  and  C11_26 
ROOT
HETATM    1  N1  UNL     1      42.028  -3.837  30.708  1.00  0.00    -0.234 N 
ATOM      2  H11 UNL     1      41.779  -4.412  29.903  1.00  0.00     0.174 HD
ATOM      3  H12 UNL     1      41.593  -3.966  31.622  1.00  0.00     0.174 HD
HETATM    4  C1  UNL     1      42.923  -2.934  30.513  1.00  0.00     0.686 C 
HETATM    5  N2  UNL     1      43.271  -2.130  31.638  1.00  0.00    -0.021 N 
ATOM      6  H2  UNL     1      43.702  -2.592  32.439  1.00  0.00     0.203 HD
HETATM    7  C2  UNL     1      43.080  -0.878  31.708  1.00  0.00     0.712 C 
HETATM    8  N3  UNL     1      42.486  -0.175  30.629  1.00  0.00    -0.129 N 
ATOM      9  H3  UNL     1      42.946   0.675  30.304  1.00  0.00     0.205 HD
HETATM   10  N5  UNL     1      43.467  -0.185  32.881  1.00  0.00    -0.189 N 
ATOM     11  H5  UNL     1      44.445   0.089  32.973  1.00  0.00     0.184 HD
HETATM   12  N6  UNL     1      43.527  -2.754  29.244  1.00  0.00    -0.222 N 
ATOM     13  H6  UNL     1      43.881  -1.833  28.982  1.00  0.00     0.178 HD
ENDROOT
BRANCH   8  14
HETATM   14  N4  UNL     1      41.313  -0.570  29.981  1.00  0.00    -0.263 N 
ATOM     15  H4  UNL     1      41.344  -1.110  29.115  1.00  0.00     0.190 HD
BRANCH  14  16
HETATM   16  C3  UNL     1      40.213  -0.235  30.505  1.00  0.00     0.369 C 
HETATM   17  O1  UNL     1      39.303   0.311  31.139  1.00  0.00    -0.282 OA
ENDBRANCH  14  16
ENDBRANCH   8  14
BRANCH  10  18
HETATM   18  C4  UNL     1      42.590   0.148  33.926  1.00  0.00     0.066 A 
HETATM   19  C5  UNL     1      41.288  -0.302  33.951  1.00  0.00     0.031 A 
HETATM   20  C6  UNL     1      40.441   0.040  34.989  1.00  0.00     0.002 A 
HETATM   21  C7  UNL     1      40.870   0.843  36.039  1.00  0.00     0.002 A 
HETATM   22  C8  UNL     1      42.162   1.288  36.009  1.00  0.00     0.021 A 
HETATM   23  C9  UNL     1      43.014   0.945  34.965  1.00  0.00     0.038 A 
HETATM   24 BR1  UNL     1      44.800   1.628  35.036  1.00  0.00    -0.049 Br
ENDBRANCH  10  18
BRANCH  12  25
HETATM   25  C10 UNL     1      43.649  -3.846  28.319  1.00  0.00     0.176 C 
BRANCH  25  26
HETATM   26  C11 UNL     1      43.808  -3.455  26.911  1.00  0.00    -0.040 A 
HETATM   27  C12 UNL     1      43.863  -4.302  25.846  1.00  0.00     0.009 A 
HETATM   28  C13 UNL     1      44.012  -3.795  24.569  1.00  0.00     0.001 A 
HETATM   29  C14 UNL     1      44.111  -2.447  24.293  1.00  0.00     0.000 A 
HETATM   30  C15 UNL     1      44.055  -1.595  25.375  1.00  0.00     0.001 A 
HETATM   31  C16 UNL     1      43.907  -2.088  26.656  1.00  0.00     0.009 A 
ENDBRANCH  25  26
ENDBRANCH  12  25
TORSDOF 5
ENDMDL
MODEL 5
REMARK VINA RESULT: -6.278224152      5.705      7.743
REMARK  5 active torsions:
REMARK  status: ('A' for Active; 'I' for Inactive)
REMARK       I    between atoms: C1_4  and  N2_5 
REMARK       I    between atoms: C1_4  and  N6_23 
REMARK       I    between atoms: C2_7  and  N3_8 
REMARK       I    between atoms: C2_7  and  N5_14 
REMARK    1  A    between atoms: N3_8  and  N4_10 
REMARK    2  A    between atoms: N4_10  and  C3_12 
REMARK    3  A    between atoms: N5_14  and  C4_16 
REMARK    4  A    between atoms: N6_23  and  C10_25 
REMARK    5  A    between atoms: C10_25  and  C11_26 
ROOT
HETATM    1  N1  UNL     1      42.561  -1.058  34.026  1.00  0.00    -0.234 N 
ATOM      2  H11 UNL     1      41.667  -1.090  33.536  1.00  0.00     0.174 HD
ATOM      3  H12 UNL     1      42.661  -1.372  34.991  1.00  0.00     0.174 HD
HETATM    4  C1  UNL     1      43.564  -0.601  33.361  1.00  0.00     0.686 C 
HETATM    5  N2  UNL     1      44.814  -0.558  34.046  1.00  0.00    -0.021 N 
ATOM      6  H2  UNL     1      45.226  -1.443  34.342  1.00  0.00     0.203 HD
HETATM    7  C2  UNL     1      45.446   0.509  34.311  1.00  0.00     0.712 C 
HETATM    8  N3  UNL     1      44.928   1.772  33.927  1.00  0.00    -0.129 N 
ATOM      9  H3  UNL     1      45.554   2.416  33.443  1.00  0.00     0.205 HD
HETATM   10  N5  UNL     1      46.681   0.426  34.999  1.00  0.00    -0.189 N 
ATOM     11  H5  UNL     1      47.518   0.217  34.454  1.00  0.00     0.184 HD
HETATM   12  N6  UNL     1      43.425  -0.165  32.020  1.00  0.00    -0.222 N 
ATOM     13  H6  UNL     1      44.054   0.552  31.658  1.00  0.00     0.178 HD
ENDROOT
BRANCH   8  14
HETATM   14  N4  UNL     1      43.619   2.193  34.167  1.00  0.00    -0.263 N 
ATOM     15  H4  UNL     1      42.849   1.895  33.567  1.00  0.00     0.190 HD
BRANCH  14  16
HETATM   16  C3  UNL     1      43.421   2.957  35.155  1.00  0.00     0.369 C 
HETATM   17  O1  UNL     1      43.527   3.705  36.133  1.00  0.00    -0.282 OA
ENDBRANCH  14  16
ENDBRANCH   8  14
BRANCH  10  18
HETATM   18  C4  UNL     1      46.828   0.612  36.382  1.00  0.00     0.066 A 
HETATM   19  C5  UNL     1      45.833   1.182  37.147  1.00  0.00     0.031 A 
HETATM   20  C6  UNL     1      45.999   1.357  38.508  1.00  0.00     0.002 A 
HETATM   21  C7  UNL     1      47.167   0.966  39.152  1.00  0.00     0.002 A 
HETATM   22  C8  UNL     1      48.151   0.402  38.389  1.00  0.00     0.021 A 
HETATM   23  C9  UNL     1      47.986   0.226  37.020  1.00  0.00     0.038 A 
HETATM   24 BR1  UNL     1      49.434  -0.576  36.061  1.00  0.00    -0.049 Br
ENDBRANCH  10  18
BRANCH  12  25
HETATM   25  C10 UNL     1      42.413  -0.717  31.163  1.00  0.00     0.176 C 
BRANCH  25  26
HETATM   26  C11 UNL     1      42.905  -1.654  30.142  1.00  0.00    -0.040 A 
HETATM   27  C12 UNL     1      43.278  -1.331  28.873  1.00  0.00     0.009 A 
HETATM   28  C13 UNL     1      43.727  -2.317  28.014  1.00  0.00     0.001 A 
HETATM   29  C14 UNL     1      43.827  -3.646  28.369  1.00  0.00     0.000 A 
HETATM   30  C15 UNL     1      43.447  -3.965  29.656  1.00  0.00     0.001 A 
HETATM   31  C16 UNL     1      42.996  -2.992  30.522  1.00  0.00     0.009 A 
ENDBRANCH  25  26
ENDBRANCH  12  25
TORSDOF 5
ENDMDL
