MODEL 1
REMARK VINA RESULT: -6.694508576      0.000      0.000
REMARK  8 active torsions:
REMARK  status: ('A' for Active; 'I' for Inactive)
REMARK    1  A    between atoms: C2_2  and  C3_3 
REMARK    2  A    between atoms: C3_3  and  C4_4 
REMARK    3  A    between atoms: N1_11  and  C10_13 
REMARK    4  A    between atoms: N2_15  and  N3_17 
REMARK       I    between atoms: N3_17  and  C12_19 
REMARK       I    between atoms: C12_19  and  N4_21 
REMARK    5  A    between atoms: N4_21  and  N5_23 
REMARK    6  A    between atoms: N5_23  and  C13_25 
REMARK    7  A    between atoms: C13_25  and  N6_27 
REMARK    8  A    between atoms: N6_27  and  C14_29 
ROOT
HETATM    1  C10 UNL     1      43.613  -0.161  33.668  1.00  0.00     0.091 C 
HETATM    2  C11 UNL     1      43.042  -1.283  34.439  1.00  0.00     0.090 C 
HETATM    3  N2  UNL     1      43.325  -0.045  32.427  1.00  0.00    -0.285 N 
ATOM      4  H2  UNL     1      43.721   0.733  31.898  1.00  0.00     0.188 HD
ENDROOT
BRANCH   3   5
HETATM    5  N3  UNL     1      42.479  -0.954  31.769  1.00  0.00    -0.249 N 
HETATM    6  C12 UNL     1      42.731  -1.407  30.449  1.00  0.00     0.353 C 
HETATM    7  O1  UNL     1      43.740  -0.989  29.836  1.00  0.00    -0.244 OA
HETATM    8  N4  UNL     1      41.851  -2.325  29.824  1.00  0.00    -0.248 N 
ATOM      9  H4  UNL     1      41.028  -2.670  30.317  1.00  0.00     0.192 HD
ATOM     10  H3  UNL     1      41.655  -1.302  32.259  1.00  0.00     0.192 HD
BRANCH   8  11
HETATM   11  N5  UNL     1      42.127  -2.747  28.531  1.00  0.00    -0.272 N 
ATOM     12  H5  UNL     1      41.826  -2.175  27.741  1.00  0.00     0.189 HD
BRANCH  11  13
HETATM   13  C13 UNL     1      42.812  -3.944  28.292  1.00  0.00     0.186 C 
HETATM   14  S1  UNL     1      42.669  -5.176  29.349  1.00  0.00    -0.040 SA
BRANCH  13  15
HETATM   15  N6  UNL     1      43.634  -4.126  27.156  1.00  0.00    -0.362 N 
ATOM     16  H6  UNL     1      44.227  -4.954  27.088  1.00  0.00     0.162 HD
BRANCH  15  17
HETATM   17  C14 UNL     1      43.641  -3.137  26.079  1.00  0.00     0.076 C 
HETATM   18  C15 UNL     1      43.917  -3.846  24.787  1.00  0.00     0.032 C 
HETATM   19  C16 UNL     1      44.759  -2.151  26.378  1.00  0.00     0.032 C 
ENDBRANCH  15  17
ENDBRANCH  13  15
ENDBRANCH  11  13
ENDBRANCH   8  11
ENDBRANCH   3   5
BRANCH   1  20
HETATM   20  N1  UNL     1      44.460   0.760  34.301  1.00  0.00    -0.352 N 
HETATM   21  C2  UNL     1      44.062   1.701  35.081  1.00  0.00    -0.012 C 
HETATM   22  C1  UNL     1      42.625   1.859  35.356  1.00  0.00     0.063 C 
ATOM     23  H1  UNL     1      45.462   0.678  34.130  1.00  0.00     0.166 HD
BRANCH  21  24
HETATM   24  C3  UNL     1      45.062   2.610  35.682  1.00  0.00     0.092 C 
BRANCH  24  25
HETATM   25  C4  UNL     1      45.394   2.286  37.080  1.00  0.00    -0.031 A 
HETATM   26  C5  UNL     1      46.159   1.185  37.395  1.00  0.00     0.009 A 
HETATM   27  C6  UNL     1      46.487   0.861  38.690  1.00  0.00     0.001 A 
HETATM   28  C7  UNL     1      46.057   1.635  39.758  1.00  0.00     0.002 A 
HETATM   29  C8  UNL     1      45.291   2.737  39.452  1.00  0.00     0.024 A 
HETATM   30  C9  UNL     1      44.969   3.053  38.150  1.00  0.00     0.040 A 
HETATM   31 CL1  UNL     1      43.986   4.468  37.780  1.00  0.00    -0.084 Cl
ENDBRANCH  24  25
ENDBRANCH  21  24
ENDBRANCH   1  20
TORSDOF 8
ENDMDL
MODEL 2
REMARK VINA RESULT: -6.637904616      4.369      9.758
REMARK  8 active torsions:
REMARK  status: ('A' for Active; 'I' for Inactive)
REMARK    1  A    between atoms: C2_2  and  C3_3 
REMARK    2  A    between atoms: C3_3  and  C4_4 
REMARK    3  A    between atoms: N1_11  and  C10_13 
REMARK    4  A    between atoms: N2_15  and  N3_17 
REMARK       I    between atoms: N3_17  and  C12_19 
REMARK       I    between atoms: C12_19  and  N4_21 
REMARK    5  A    between atoms: N4_21  and  N5_23 
REMARK    6  A    between atoms: N5_23  and  C13_25 
REMARK    7  A    between atoms: C13_25  and  N6_27 
REMARK    8  A    between atoms: N6_27  and  C14_29 
ROOT
HETATM    1  C10 UNL     1      42.511  -0.636  32.846  1.00  0.00     0.091 C 
HETATM    2  C11 UNL     1      41.838  -1.296  33.982  1.00  0.00     0.090 C 
HETATM    3  N2  UNL     1      43.528   0.108  33.069  1.00  0.00    -0.285 N 
ATOM      4  H2  UNL     1      43.991   0.561  32.281  1.00  0.00     0.188 HD
ENDROOT
BRANCH   3   5
HETATM    5  N3  UNL     1      44.027   0.319  34.366  1.00  0.00    -0.249 N 
HETATM    6  C12 UNL     1      45.408   0.504  34.626  1.00  0.00     0.353 C 
HETATM    7  O1  UNL     1      46.223   0.482  33.676  1.00  0.00    -0.244 OA
HETATM    8  N4  UNL     1      45.868   0.714  35.950  1.00  0.00    -0.248 N 
ATOM      9  H4  UNL     1      45.211   0.734  36.729  1.00  0.00     0.192 HD
ATOM     10  H3  UNL     1      43.373   0.340  35.148  1.00  0.00     0.192 HD
BRANCH   8  11
HETATM   11  N5  UNL     1      47.227   0.892  36.170  1.00  0.00    -0.272 N 
ATOM     12  H5  UNL     1      47.801   1.322  35.444  1.00  0.00     0.189 HD
BRANCH  11  13
HETATM   13  C13 UNL     1      47.824   0.492  37.371  1.00  0.00     0.186 C 
HETATM   14  S1  UNL     1      46.898   0.279  38.696  1.00  0.00    -0.040 SA
BRANCH  13  15
HETATM   15  N6  UNL     1      49.215   0.265  37.481  1.00  0.00    -0.362 N 
ATOM     16  H6  UNL     1      49.773   0.838  38.114  1.00  0.00     0.162 HD
BRANCH  15  17
HETATM   17  C14 UNL     1      49.860  -0.785  36.694  1.00  0.00     0.076 C 
HETATM   18  C15 UNL     1      50.813  -1.525  37.583  1.00  0.00     0.032 C 
HETATM   19  C16 UNL     1      50.623  -0.103  35.569  1.00  0.00     0.032 C 
ENDBRANCH  15  17
ENDBRANCH  13  15
ENDBRANCH  11  13
ENDBRANCH   8  11
ENDBRANCH   3   5
BRANCH   1  20
HETATM   20  N1  UNL     1      42.032  -0.830  31.542  1.00  0.00    -0.352 N 
HETATM   21  C2  UNL     1      42.286  -1.861  30.818  1.00  0.00    -0.012 C 
HETATM   22  C1  UNL     1      43.135  -2.935  31.354  1.00  0.00     0.063 C 
ATOM     23  H1  UNL     1      41.441  -0.102  31.141  1.00  0.00     0.166 HD
BRANCH  21  24
HETATM   24  C3  UNL     1      41.719  -1.939  29.453  1.00  0.00     0.092 C 
BRANCH  24  25
HETATM   25  C4  UNL     1      42.723  -2.201  28.408  1.00  0.00    -0.031 A 
HETATM   26  C5  UNL     1      43.448  -1.175  27.843  1.00  0.00     0.009 A 
HETATM   27  C6  UNL     1      44.394  -1.391  26.868  1.00  0.00     0.001 A 
HETATM   28  C7  UNL     1      44.669  -2.667  26.401  1.00  0.00     0.002 A 
HETATM   29  C8  UNL     1      43.949  -3.697  26.960  1.00  0.00     0.024 A 
HETATM   30  C9  UNL     1      43.003  -3.470  27.936  1.00  0.00     0.040 A 
HETATM   31 CL1  UNL     1      42.091  -4.805  28.639  1.00  0.00    -0.084 Cl
ENDBRANCH  24  25
ENDBRANCH  21  24
ENDBRANCH   1  20
TORSDOF 8
ENDMDL
MODEL 3
REMARK VINA RESULT: -6.615873437      1.831      2.346
REMARK  8 active torsions:
REMARK  status: ('A' for Active; 'I' for Inactive)
REMARK    1  A    between atoms: C2_2  and  C3_3 
REMARK    2  A    between atoms: C3_3  and  C4_4 
REMARK    3  A    between atoms: N1_11  and  C10_13 
REMARK    4  A    between atoms: N2_15  and  N3_17 
REMARK       I    between atoms: N3_17  and  C12_19 
REMARK       I    between atoms: C12_19  and  N4_21 
REMARK    5  A    between atoms: N4_21  and  N5_23 
REMARK    6  A    between atoms: N5_23  and  C13_25 
REMARK    7  A    between atoms: C13_25  and  N6_27 
REMARK    8  A    between atoms: N6_27  and  C14_29 
ROOT
HETATM    1  C10 UNL     1      43.610   0.130  33.613  1.00  0.00     0.091 C 
HETATM    2  C11 UNL     1      42.199   0.231  34.034  1.00  0.00     0.090 C 
HETATM    3  N2  UNL     1      43.904  -0.545  32.567  1.00  0.00    -0.285 N 
ATOM      4  H2  UNL     1      44.881  -0.611  32.280  1.00  0.00     0.188 HD
ENDROOT
BRANCH   3   5
HETATM    5  N3  UNL     1      42.924  -1.199  31.802  1.00  0.00    -0.249 N 
HETATM    6  C12 UNL     1      43.149  -1.600  30.461  1.00  0.00     0.353 C 
HETATM    7  O1  UNL     1      44.258  -1.369  29.927  1.00  0.00    -0.244 OA
HETATM    8  N4  UNL     1      42.132  -2.257  29.726  1.00  0.00    -0.248 N 
ATOM      9  H4  UNL     1      41.227  -2.449  30.154  1.00  0.00     0.192 HD
ATOM     10  H3  UNL     1      42.017  -1.393  32.227  1.00  0.00     0.192 HD
BRANCH   8  11
HETATM   11  N5  UNL     1      42.386  -2.635  28.415  1.00  0.00    -0.272 N 
ATOM     12  H5  UNL     1      42.212  -1.973  27.659  1.00  0.00     0.189 HD
BRANCH  11  13
HETATM   13  C13 UNL     1      42.878  -3.911  28.113  1.00  0.00     0.186 C 
HETATM   14  S1  UNL     1      42.545  -5.157  29.109  1.00  0.00    -0.040 SA
BRANCH  13  15
HETATM   15  N6  UNL     1      43.664  -4.160  26.965  1.00  0.00    -0.362 N 
ATOM     16  H6  UNL     1      44.239  -5.002  26.918  1.00  0.00     0.162 HD
BRANCH  15  17
HETATM   17  C14 UNL     1      43.661  -3.221  25.844  1.00  0.00     0.076 C 
HETATM   18  C15 UNL     1      43.976  -3.980  24.590  1.00  0.00     0.032 C 
HETATM   19  C16 UNL     1      44.745  -2.190  26.113  1.00  0.00     0.032 C 
ENDBRANCH  15  17
ENDBRANCH  13  15
ENDBRANCH  11  13
ENDBRANCH   8  11
ENDBRANCH   3   5
BRANCH   1  20
HETATM   20  N1  UNL     1      44.608   0.774  34.360  1.00  0.00    -0.352 N 
HETATM   21  C2  UNL     1      44.914   0.481  35.573  1.00  0.00    -0.012 C 
HETATM   22  C1  UNL     1      44.192  -0.598  36.266  1.00  0.00     0.063 C 
ATOM     23  H1  UNL     1      45.126   1.527  33.908  1.00  0.00     0.166 HD
BRANCH  21  24
HETATM   24  C3  UNL     1      45.988   1.243  36.249  1.00  0.00     0.092 C 
BRANCH  24  25
HETATM   25  C4  UNL     1      47.171   0.432  36.584  1.00  0.00    -0.031 A 
HETATM   26  C5  UNL     1      47.847  -0.276  35.615  1.00  0.00     0.009 A 
HETATM   27  C6  UNL     1      48.956  -1.038  35.899  1.00  0.00     0.001 A 
HETATM   28  C7  UNL     1      49.454  -1.134  37.189  1.00  0.00     0.002 A 
HETATM   29  C8  UNL     1      48.784  -0.430  38.163  1.00  0.00     0.024 A 
HETATM   30  C9  UNL     1      47.674   0.331  37.868  1.00  0.00     0.040 A 
HETATM   31 CL1  UNL     1      46.829   1.224  39.131  1.00  0.00    -0.084 Cl
ENDBRANCH  24  25
ENDBRANCH  21  24
ENDBRANCH   1  20
TORSDOF 8
ENDMDL
MODEL 4
REMARK VINA RESULT: -6.606567549      4.107      9.747
REMARK  8 active torsions:
REMARK  status: ('A' for Active; 'I' for Inactive)
REMARK    1  A    between atoms: C2_2  and  C3_3 
REMARK    2  A    between atoms: C3_3  and  C4_4 
REMARK    3  A    between atoms: N1_11  and  C10_13 
REMARK    4  A    between atoms: N2_15  and  N3_17 
REMARK       I    between atoms: N3_17  and  C12_19 
REMARK       I    between atoms: C12_19  and  N4_21 
REMARK    5  A    between atoms: N4_21  and  N5_23 
REMARK    6  A    between atoms: N5_23  and  C13_25 
REMARK    7  A    between atoms: C13_25  and  N6_27 
REMARK    8  A    between atoms: N6_27  and  C14_29 
ROOT
HETATM    1  C10 UNL     1      42.692  -0.823  32.655  1.00  0.00     0.091 C 
HETATM    2  C11 UNL     1      41.965  -1.567  33.702  1.00  0.00     0.090 C 
HETATM    3  N2  UNL     1      43.732  -0.150  32.974  1.00  0.00    -0.285 N 
ATOM      4  H2  UNL     1      44.232   0.362  32.247  1.00  0.00     0.188 HD
ENDROOT
BRANCH   3   5
HETATM    5  N3  UNL     1      44.207  -0.094  34.296  1.00  0.00    -0.249 N 
HETATM    6  C12 UNL     1      45.517   0.344  34.614  1.00  0.00     0.353 C 
HETATM    7  O1  UNL     1      46.289   0.698  33.693  1.00  0.00    -0.244 OA
HETATM    8  N4  UNL     1      45.955   0.385  35.961  1.00  0.00    -0.248 N 
ATOM      9  H4  UNL     1      45.332   0.099  36.716  1.00  0.00     0.192 HD
ATOM     10  H3  UNL     1      43.587  -0.380  35.054  1.00  0.00     0.192 HD
BRANCH   8  11
HETATM   11  N5  UNL     1      47.244   0.820  36.237  1.00  0.00    -0.272 N 
ATOM     12  H5  UNL     1      47.714   1.444  35.582  1.00  0.00     0.189 HD
BRANCH  11  13
HETATM   13  C13 UNL     1      47.910   0.415  37.400  1.00  0.00     0.186 C 
HETATM   14  S1  UNL     1      47.052   0.115  38.753  1.00  0.00    -0.040 SA
BRANCH  13  15
HETATM   15  N6  UNL     1      49.314   0.259  37.447  1.00  0.00    -0.362 N 
ATOM     16  H6  UNL     1      49.875   0.894  38.015  1.00  0.00     0.162 HD
BRANCH  15  17
HETATM   17  C14 UNL     1      49.968  -0.805  36.686  1.00  0.00     0.076 C 
HETATM   18  C15 UNL     1      50.966  -1.479  37.578  1.00  0.00     0.032 C 
HETATM   19  C16 UNL     1      50.679  -0.151  35.512  1.00  0.00     0.032 C 
ENDBRANCH  15  17
ENDBRANCH  13  15
ENDBRANCH  11  13
ENDBRANCH   8  11
ENDBRANCH   3   5
BRANCH   1  20
HETATM   20  N1  UNL     1      42.238  -0.863  31.328  1.00  0.00    -0.352 N 
HETATM   21  C2  UNL     1      42.417  -1.850  30.525  1.00  0.00    -0.012 C 
HETATM   22  C1  UNL     1      43.145  -3.041  30.988  1.00  0.00     0.063 C 
ATOM     23  H1  UNL     1      41.731  -0.051  30.977  1.00  0.00     0.166 HD
BRANCH  21  24
HETATM   24  C3  UNL     1      41.889  -1.761  29.145  1.00  0.00     0.092 C 
BRANCH  24  25
HETATM   25  C4  UNL     1      42.813  -2.277  28.122  1.00  0.00    -0.031 A 
HETATM   26  C5  UNL     1      42.729  -3.578  27.677  1.00  0.00     0.009 A 
HETATM   27  C6  UNL     1      43.576  -4.086  26.720  1.00  0.00     0.001 A 
HETATM   28  C7  UNL     1      44.570  -3.305  26.149  1.00  0.00     0.002 A 
HETATM   29  C8  UNL     1      44.661  -2.004  26.589  1.00  0.00     0.024 A 
HETATM   30  C9  UNL     1      43.807  -1.505  27.548  1.00  0.00     0.040 A 
HETATM   31 CL1  UNL     1      43.942   0.164  28.099  1.00  0.00    -0.084 Cl
ENDBRANCH  24  25
ENDBRANCH  21  24
ENDBRANCH   1  20
TORSDOF 8
ENDMDL
MODEL 5
REMARK VINA RESULT: -6.504841220      4.519      9.461
REMARK  8 active torsions:
REMARK  status: ('A' for Active; 'I' for Inactive)
REMARK    1  A    between atoms: C2_2  and  C3_3 
REMARK    2  A    between atoms: C3_3  and  C4_4 
REMARK    3  A    between atoms: N1_11  and  C10_13 
REMARK    4  A    between atoms: N2_15  and  N3_17 
REMARK       I    between atoms: N3_17  and  C12_19 
REMARK       I    between atoms: C12_19  and  N4_21 
REMARK    5  A    between atoms: N4_21  and  N5_23 
REMARK    6  A    between atoms: N5_23  and  C13_25 
REMARK    7  A    between atoms: C13_25  and  N6_27 
REMARK    8  A    between atoms: N6_27  and  C14_29 
ROOT
HETATM    1  C10 UNL     1      44.044   0.709  33.476  1.00  0.00     0.091 C 
HETATM    2  C11 UNL     1      43.536   1.771  34.365  1.00  0.00     0.090 C 
HETATM    3  N2  UNL     1      45.261   0.328  33.588  1.00  0.00    -0.285 N 
ATOM      4  H2  UNL     1      45.608  -0.407  32.973  1.00  0.00     0.188 HD
ENDROOT
BRANCH   3   5
HETATM    5  N3  UNL     1      46.134   0.893  34.534  1.00  0.00    -0.249 N 
HETATM    6  C12 UNL     1      46.243   0.397  35.857  1.00  0.00     0.353 C 
HETATM    7  O1  UNL     1      45.542  -0.579  36.210  1.00  0.00    -0.244 OA
HETATM    8  N4  UNL     1      47.137   0.997  36.778  1.00  0.00    -0.248 N 
ATOM      9  H4  UNL     1      47.711   1.792  36.499  1.00  0.00     0.192 HD
ATOM     10  H3  UNL     1      46.711   1.688  34.258  1.00  0.00     0.192 HD
BRANCH   8  11
HETATM   11  N5  UNL     1      47.219   0.487  38.067  1.00  0.00    -0.272 N 
ATOM     12  H5  UNL     1      46.391   0.494  38.663  1.00  0.00     0.189 HD
BRANCH  11  13
HETATM   13  C13 UNL     1      48.418  -0.038  38.562  1.00  0.00     0.186 C 
HETATM   14  S1  UNL     1      48.411  -0.878  39.959  1.00  0.00    -0.040 SA
BRANCH  13  15
HETATM   15  N6  UNL     1      49.649   0.136  37.890  1.00  0.00    -0.362 N 
ATOM     16  H6  UNL     1      50.184   0.994  38.026  1.00  0.00     0.162 HD
BRANCH  15  17
HETATM   17  C14 UNL     1      50.162  -0.905  37.000  1.00  0.00     0.076 C 
HETATM   18  C15 UNL     1      51.403  -1.482  37.612  1.00  0.00     0.032 C 
HETATM   19  C16 UNL     1      50.499  -0.241  35.674  1.00  0.00     0.032 C 
ENDBRANCH  15  17
ENDBRANCH  13  15
ENDBRANCH  11  13
ENDBRANCH   8  11
ENDBRANCH   3   5
BRANCH   1  20
HETATM   20  N1  UNL     1      43.193   0.129  32.524  1.00  0.00    -0.352 N 
HETATM   21  C2  UNL     1      42.582  -0.991  32.677  1.00  0.00    -0.012 C 
HETATM   22  C1  UNL     1      42.760  -1.752  33.923  1.00  0.00     0.063 C 
ATOM     23  H1  UNL     1      43.049   0.632  31.648  1.00  0.00     0.166 HD
BRANCH  21  24
HETATM   24  C3  UNL     1      41.713  -1.493  31.589  1.00  0.00     0.092 C 
BRANCH  24  25
HETATM   25  C4  UNL     1      42.457  -2.008  30.427  1.00  0.00    -0.031 A 
HETATM   26  C5  UNL     1      42.819  -1.180  29.388  1.00  0.00     0.009 A 
HETATM   27  C6  UNL     1      43.516  -1.633  28.293  1.00  0.00     0.001 A 
HETATM   28  C7  UNL     1      43.894  -2.963  28.178  1.00  0.00     0.002 A 
HETATM   29  C8  UNL     1      43.535  -3.797  29.212  1.00  0.00     0.024 A 
HETATM   30  C9  UNL     1      42.837  -3.332  30.305  1.00  0.00     0.040 A 
HETATM   31 CL1  UNL     1      42.386  -4.418  31.618  1.00  0.00    -0.084 Cl
ENDBRANCH  24  25
ENDBRANCH  21  24
ENDBRANCH   1  20
TORSDOF 8
ENDMDL
