MODEL 1
REMARK VINA RESULT: -7.484102968      0.000      0.000
REMARK  8 active torsions:
REMARK  status: ('A' for Active; 'I' for Inactive)
REMARK    1  A    between atoms: O1_2  and  N1_3 
REMARK       I    between atoms: N1_3  and  C2_5 
REMARK       I    between atoms: C2_5  and  N3_9 
REMARK    2  A    between atoms: N3_9  and  C3_11 
REMARK    3  A    between atoms: C3_11  and  C4_12 
REMARK    4  A    between atoms: C4_12  and  C5_13 
REMARK    5  A    between atoms: C5_13  and  N4_14 
REMARK    6  A    between atoms: N4_14  and  C6_16 
REMARK    7  A    between atoms: C7_19  and  N6_20 
REMARK    8  A    between atoms: N6_20  and  C8_22 
ROOT
HETATM    1  C6  UNL     1      42.358  -0.671  31.020  1.00  0.00     0.135 A 
HETATM    2  N5  UNL     1      43.267  -0.354  31.948  1.00  0.00    -0.176 N 
ATOM      3  H5  UNL     1      44.218  -0.147  31.641  1.00  0.00     0.186 HD
HETATM    4  C7  UNL     1      42.992  -0.291  33.288  1.00  0.00     0.680 A 
HETATM    5  N7  UNL     1      41.730  -0.570  33.643  1.00  0.00    -0.201 N 
ATOM      6  H7  UNL     1      41.483  -0.535  34.632  1.00  0.00     0.183 HD
HETATM    7  C18 UNL     1      40.763  -0.900  32.743  1.00  0.00     0.129 A 
HETATM    8  C19 UNL     1      41.047  -0.961  31.401  1.00  0.00     0.071 A 
HETATM    9 BR1  UNL     1      39.725  -1.417  30.107  1.00  0.00    -0.046 Br
ENDROOT
BRANCH   1  10
HETATM   10  N4  UNL     1      42.593  -0.740  29.765  1.00  0.00    -0.375 N 
ATOM     11  H4  UNL     1      42.082  -0.110  29.148  1.00  0.00     0.161 HD
BRANCH  10  12
HETATM   12  C5  UNL     1      43.525  -1.642  29.175  1.00  0.00     0.123 C 
BRANCH  12  13
HETATM   13  C4  UNL     1      43.168  -3.108  29.454  1.00  0.00     0.040 C 
BRANCH  13  14
HETATM   14  C3  UNL     1      43.843  -3.907  28.364  1.00  0.00     0.139 C 
BRANCH  14  15
HETATM   15  N3  UNL     1      43.334  -3.649  27.058  1.00  0.00    -0.225 N 
HETATM   16  C2  UNL     1      44.080  -3.690  25.868  1.00  0.00     0.691 C 
HETATM   17  N1  UNL     1      44.748  -2.523  25.409  1.00  0.00    -0.097 N 
HETATM   18  N2  UNL     1      44.190  -4.756  25.155  1.00  0.00    -0.233 N 
ATOM     19  H1  UNL     1      45.579  -2.189  25.898  1.00  0.00     0.213 HD
ATOM     20  H22 UNL     1      44.732  -4.785  24.291  1.00  0.00     0.174 HD
ATOM     21  H21 UNL     1      43.710  -5.594  25.484  1.00  0.00     0.174 HD
ATOM     22  H3  UNL     1      42.343  -3.416  26.981  1.00  0.00     0.177 HD
BRANCH  17  23
HETATM   23  O1  UNL     1      44.289  -1.854  24.329  1.00  0.00    -0.272 OA
HETATM   24  C1  UNL     1      44.020  -0.512  24.621  1.00  0.00     0.238 C 
ENDBRANCH  17  23
ENDBRANCH  14  15
ENDBRANCH  13  14
ENDBRANCH  12  13
ENDBRANCH  10  12
ENDBRANCH   1  10
BRANCH   4  25
HETATM   25  N6  UNL     1      43.935   0.018  34.050  1.00  0.00    -0.217 N 
ATOM     26  H6  UNL     1      44.835  -0.324  33.712  1.00  0.00     0.178 HD
BRANCH  25  27
HETATM   27  C8  UNL     1      44.053   0.723  35.259  1.00  0.00     0.048 C 
HETATM   28  C9  UNL     1      43.448   2.093  35.299  1.00  0.00     0.036 C 
HETATM   29  C10 UNL     1      43.756   2.725  36.638  1.00  0.00    -0.012 C 
HETATM   30  C11 UNL     1      43.228   1.880  37.745  1.00  0.00     0.009 C 
HETATM   31  C15 UNL     1      45.237   2.944  36.823  1.00  0.00     0.009 C 
HETATM   32  C12 UNL     1      43.975   0.566  37.750  1.00  0.00    -0.012 C 
HETATM   33  C13 UNL     1      45.448   0.779  37.909  1.00  0.00     0.009 C 
HETATM   34  C17 UNL     1      43.653  -0.131  36.447  1.00  0.00     0.036 C 
HETATM   35  C14 UNL     1      45.910   1.603  36.731  1.00  0.00    -0.012 C 
HETATM   36  C16 UNL     1      45.574   0.955  35.433  1.00  0.00     0.036 C 
ENDBRANCH  25  27
ENDBRANCH   4  25
TORSDOF 8
ENDMDL
MODEL 2
REMARK VINA RESULT: -7.443770126      4.548      8.134
REMARK  8 active torsions:
REMARK  status: ('A' for Active; 'I' for Inactive)
REMARK    1  A    between atoms: O1_2  and  N1_3 
REMARK       I    between atoms: N1_3  and  C2_5 
REMARK       I    between atoms: C2_5  and  N3_9 
REMARK    2  A    between atoms: N3_9  and  C3_11 
REMARK    3  A    between atoms: C3_11  and  C4_12 
REMARK    4  A    between atoms: C4_12  and  C5_13 
REMARK    5  A    between atoms: C5_13  and  N4_14 
REMARK    6  A    between atoms: N4_14  and  C6_16 
REMARK    7  A    between atoms: C7_19  and  N6_20 
REMARK    8  A    between atoms: N6_20  and  C8_22 
ROOT
HETATM    1  C6  UNL     1      41.024  -1.799  30.176  1.00  0.00     0.135 A 
HETATM    2  N5  UNL     1      39.955  -2.335  29.579  1.00  0.00    -0.176 N 
ATOM      3  H5  UNL     1      39.880  -2.260  28.565  1.00  0.00     0.186 HD
HETATM    4  C7  UNL     1      38.953  -2.981  30.255  1.00  0.00     0.680 A 
HETATM    5  N7  UNL     1      39.096  -3.055  31.587  1.00  0.00    -0.201 N 
ATOM      6  H7  UNL     1      38.372  -3.528  32.128  1.00  0.00     0.183 HD
HETATM    7  C18 UNL     1      40.162  -2.527  32.248  1.00  0.00     0.129 A 
HETATM    8  C19 UNL     1      41.162  -1.882  31.562  1.00  0.00     0.071 A 
HETATM    9 BR1  UNL     1      42.672  -1.130  32.447  1.00  0.00    -0.046 Br
ENDROOT
BRANCH   1  10
HETATM   10  N4  UNL     1      41.968  -1.189  29.566  1.00  0.00    -0.375 N 
ATOM     11  H4  UNL     1      42.139  -0.213  29.807  1.00  0.00     0.161 HD
BRANCH  10  12
HETATM   12  C5  UNL     1      42.795  -1.787  28.572  1.00  0.00     0.123 C 
BRANCH  12  13
HETATM   13  C4  UNL     1      43.742  -2.840  29.164  1.00  0.00     0.040 C 
BRANCH  13  14
HETATM   14  C3  UNL     1      43.530  -4.088  28.338  1.00  0.00     0.139 C 
BRANCH  14  15
HETATM   15  N3  UNL     1      43.168  -3.830  26.984  1.00  0.00    -0.225 N 
HETATM   16  C2  UNL     1      44.053  -3.813  25.891  1.00  0.00     0.691 C 
HETATM   17  N1  UNL     1      44.713  -2.608  25.532  1.00  0.00    -0.097 N 
HETATM   18  N2  UNL     1      44.299  -4.859  25.183  1.00  0.00    -0.233 N 
ATOM     19  H1  UNL     1      45.462  -2.244  26.121  1.00  0.00     0.213 HD
ATOM     20  H22 UNL     1      44.941  -4.847  24.390  1.00  0.00     0.174 HD
ATOM     21  H21 UNL     1      43.825  -5.725  25.442  1.00  0.00     0.174 HD
ATOM     22  H3  UNL     1      42.184  -3.642  26.791  1.00  0.00     0.177 HD
BRANCH  17  23
HETATM   23  O1  UNL     1      44.354  -1.941  24.412  1.00  0.00    -0.272 OA
HETATM   24  C1  UNL     1      44.008  -0.612  24.685  1.00  0.00     0.238 C 
ENDBRANCH  17  23
ENDBRANCH  14  15
ENDBRANCH  13  14
ENDBRANCH  12  13
ENDBRANCH  10  12
ENDBRANCH   1  10
BRANCH   4  25
HETATM   25  N6  UNL     1      38.007  -3.437  29.575  1.00  0.00    -0.217 N 
ATOM     26  H6  UNL     1      38.301  -4.201  28.966  1.00  0.00     0.178 HD
BRANCH  25  27
HETATM   27  C8  UNL     1      36.638  -3.149  29.449  1.00  0.00     0.048 C 
HETATM   28  C9  UNL     1      35.756  -3.572  30.583  1.00  0.00     0.036 C 
HETATM   29  C10 UNL     1      34.319  -3.266  30.227  1.00  0.00    -0.012 C 
HETATM   30  C11 UNL     1      34.153  -1.813  29.939  1.00  0.00     0.009 C 
HETATM   31  C15 UNL     1      33.854  -4.079  29.044  1.00  0.00     0.009 C 
HETATM   32  C12 UNL     1      34.947  -1.472  28.698  1.00  0.00    -0.012 C 
HETATM   33  C13 UNL     1      34.506  -2.294  27.527  1.00  0.00     0.009 C 
HETATM   34  C17 UNL     1      36.404  -1.712  29.026  1.00  0.00     0.036 C 
HETATM   35  C14 UNL     1      34.746  -3.741  27.882  1.00  0.00    -0.012 C 
HETATM   36  C16 UNL     1      36.168  -3.998  28.243  1.00  0.00     0.036 C 
ENDBRANCH  25  27
ENDBRANCH   4  25
TORSDOF 8
ENDMDL
MODEL 3
REMARK VINA RESULT: -7.406576435      4.187      7.688
REMARK  8 active torsions:
REMARK  status: ('A' for Active; 'I' for Inactive)
REMARK    1  A    between atoms: O1_2  and  N1_3 
REMARK       I    between atoms: N1_3  and  C2_5 
REMARK       I    between atoms: C2_5  and  N3_9 
REMARK    2  A    between atoms: N3_9  and  C3_11 
REMARK    3  A    between atoms: C3_11  and  C4_12 
REMARK    4  A    between atoms: C4_12  and  C5_13 
REMARK    5  A    between atoms: C5_13  and  N4_14 
REMARK    6  A    between atoms: N4_14  and  C6_16 
REMARK    7  A    between atoms: C7_19  and  N6_20 
REMARK    8  A    between atoms: N6_20  and  C8_22 
ROOT
HETATM    1  C6  UNL     1      41.269  -1.605  30.454  1.00  0.00     0.135 A 
HETATM    2  N5  UNL     1      40.151  -2.220  30.056  1.00  0.00    -0.176 N 
ATOM      3  H5  UNL     1      39.962  -2.278  29.055  1.00  0.00     0.186 HD
HETATM    4  C7  UNL     1      39.244  -2.778  30.918  1.00  0.00     0.680 A 
HETATM    5  N7  UNL     1      39.536  -2.677  32.224  1.00  0.00    -0.201 N 
ATOM      6  H7  UNL     1      38.887  -3.079  32.900  1.00  0.00     0.183 HD
HETATM    7  C18 UNL     1      40.658  -2.062  32.687  1.00  0.00     0.129 A 
HETATM    8  C19 UNL     1      41.562  -1.505  31.815  1.00  0.00     0.071 A 
HETATM    9 BR1  UNL     1      43.147  -0.636  32.419  1.00  0.00    -0.046 Br
ENDROOT
BRANCH   1  10
HETATM   10  N4  UNL     1      42.127  -1.074  29.668  1.00  0.00    -0.375 N 
ATOM     11  H4  UNL     1      42.343  -0.086  29.794  1.00  0.00     0.161 HD
BRANCH  10  12
HETATM   12  C5  UNL     1      42.798  -1.777  28.626  1.00  0.00     0.123 C 
BRANCH  12  13
HETATM   13  C4  UNL     1      43.769  -2.833  29.172  1.00  0.00     0.040 C 
BRANCH  13  14
HETATM   14  C3  UNL     1      43.519  -4.078  28.353  1.00  0.00     0.139 C 
BRANCH  14  15
HETATM   15  N3  UNL     1      43.161  -3.816  26.999  1.00  0.00    -0.225 N 
HETATM   16  C2  UNL     1      44.047  -3.802  25.908  1.00  0.00     0.691 C 
HETATM   17  N1  UNL     1      44.714  -2.600  25.551  1.00  0.00    -0.097 N 
HETATM   18  N2  UNL     1      44.289  -4.849  25.198  1.00  0.00    -0.233 N 
ATOM     19  H1  UNL     1      45.464  -2.241  26.142  1.00  0.00     0.213 HD
ATOM     20  H22 UNL     1      44.933  -4.838  24.407  1.00  0.00     0.174 HD
ATOM     21  H21 UNL     1      43.810  -5.712  25.455  1.00  0.00     0.174 HD
ATOM     22  H3  UNL     1      42.178  -3.623  26.805  1.00  0.00     0.177 HD
BRANCH  17  23
HETATM   23  O1  UNL     1      44.360  -1.930  24.432  1.00  0.00    -0.272 OA
HETATM   24  C1  UNL     1      44.027  -0.598  24.704  1.00  0.00     0.238 C 
ENDBRANCH  17  23
ENDBRANCH  14  15
ENDBRANCH  13  14
ENDBRANCH  12  13
ENDBRANCH  10  12
ENDBRANCH   1  10
BRANCH   4  25
HETATM   25  N6  UNL     1      38.238  -3.323  30.414  1.00  0.00    -0.217 N 
ATOM     26  H6  UNL     1      38.359  -4.329  30.299  1.00  0.00     0.178 HD
BRANCH  25  27
HETATM   27  C8  UNL     1      36.980  -2.883  29.969  1.00  0.00     0.048 C 
HETATM   28  C9  UNL     1      36.623  -1.459  30.267  1.00  0.00     0.036 C 
HETATM   29  C10 UNL     1      35.209  -1.201  29.799  1.00  0.00    -0.012 C 
HETATM   30  C11 UNL     1      35.084  -1.485  28.341  1.00  0.00     0.009 C 
HETATM   31  C15 UNL     1      34.208  -2.026  30.569  1.00  0.00     0.009 C 
HETATM   32  C12 UNL     1      35.309  -2.963  28.115  1.00  0.00    -0.012 C 
HETATM   33  C13 UNL     1      34.334  -3.787  28.897  1.00  0.00     0.009 C 
HETATM   34  C17 UNL     1      36.735  -3.260  28.520  1.00  0.00     0.036 C 
HETATM   35  C14 UNL     1      34.554  -3.474  30.357  1.00  0.00    -0.012 C 
HETATM   36  C16 UNL     1      35.961  -3.725  30.775  1.00  0.00     0.036 C 
ENDBRANCH  25  27
ENDBRANCH   4  25
TORSDOF 8
ENDMDL
MODEL 4
REMARK VINA RESULT: -7.081510105      5.083      8.942
REMARK  8 active torsions:
REMARK  status: ('A' for Active; 'I' for Inactive)
REMARK    1  A    between atoms: O1_2  and  N1_3 
REMARK       I    between atoms: N1_3  and  C2_5 
REMARK       I    between atoms: C2_5  and  N3_9 
REMARK    2  A    between atoms: N3_9  and  C3_11 
REMARK    3  A    between atoms: C3_11  and  C4_12 
REMARK    4  A    between atoms: C4_12  and  C5_13 
REMARK    5  A    between atoms: C5_13  and  N4_14 
REMARK    6  A    between atoms: N4_14  and  C6_16 
REMARK    7  A    between atoms: C7_19  and  N6_20 
REMARK    8  A    between atoms: N6_20  and  C8_22 
ROOT
HETATM    1  C6  UNL     1      40.685  -4.556  30.517  1.00  0.00     0.135 A 
HETATM    2  N5  UNL     1      39.663  -4.376  29.673  1.00  0.00    -0.176 N 
ATOM      3  H5  UNL     1      39.546  -5.043  28.910  1.00  0.00     0.186 HD
HETATM    4  C7  UNL     1      38.766  -3.346  29.777  1.00  0.00     0.680 A 
HETATM    5  N7  UNL     1      38.962  -2.496  30.795  1.00  0.00    -0.201 N 
ATOM      6  H7  UNL     1      38.316  -1.715  30.908  1.00  0.00     0.183 HD
HETATM    7  C18 UNL     1      39.984  -2.628  31.685  1.00  0.00     0.129 A 
HETATM    8  C19 UNL     1      40.879  -3.664  31.574  1.00  0.00     0.071 A 
HETATM    9 BR1  UNL     1      42.323  -3.889  32.797  1.00  0.00    -0.046 Br
ENDROOT
BRANCH   1  10
HETATM   10  N4  UNL     1      41.536  -5.506  30.438  1.00  0.00    -0.375 N 
ATOM     11  H4  UNL     1      41.581  -6.173  31.208  1.00  0.00     0.161 HD
BRANCH  10  12
HETATM   12  C5  UNL     1      42.424  -5.694  29.340  1.00  0.00     0.123 C 
BRANCH  12  13
HETATM   13  C4  UNL     1      43.561  -4.663  29.332  1.00  0.00     0.040 C 
BRANCH  13  14
HETATM   14  C3  UNL     1      43.321  -3.800  28.115  1.00  0.00     0.139 C 
BRANCH  14  15
HETATM   15  N3  UNL     1      42.725  -2.539  28.409  1.00  0.00    -0.225 N 
HETATM   16  C2  UNL     1      43.398  -1.419  28.927  1.00  0.00     0.691 C 
HETATM   17  N1  UNL     1      43.515  -1.248  30.332  1.00  0.00    -0.097 N 
HETATM   18  N2  UNL     1      43.927  -0.519  28.173  1.00  0.00    -0.233 N 
ATOM     19  H1  UNL     1      44.142  -1.850  30.866  1.00  0.00     0.213 HD
ATOM     20  H22 UNL     1      44.415   0.294  28.550  1.00  0.00     0.174 HD
ATOM     21  H21 UNL     1      43.843  -0.641  27.164  1.00  0.00     0.174 HD
ATOM     22  H3  UNL     1      41.726  -2.441  28.227  1.00  0.00     0.177 HD
BRANCH  17  23
HETATM   23  O1  UNL     1      42.799  -0.292  30.964  1.00  0.00    -0.272 OA
HETATM   24  C1  UNL     1      43.022  -0.302  32.346  1.00  0.00     0.238 C 
ENDBRANCH  17  23
ENDBRANCH  14  15
ENDBRANCH  13  14
ENDBRANCH  12  13
ENDBRANCH  10  12
ENDBRANCH   1  10
BRANCH   4  25
HETATM   25  N6  UNL     1      37.857  -3.293  28.920  1.00  0.00    -0.217 N 
ATOM     26  H6  UNL     1      38.214  -3.392  27.969  1.00  0.00     0.178 HD
BRANCH  25  27
HETATM   27  C8  UNL     1      36.462  -3.131  28.951  1.00  0.00     0.048 C 
HETATM   28  C9  UNL     1      35.758  -3.611  30.183  1.00  0.00     0.036 C 
HETATM   29  C10 UNL     1      34.268  -3.440  29.994  1.00  0.00    -0.012 C 
HETATM   30  C11 UNL     1      33.939  -2.013  29.717  1.00  0.00     0.009 C 
HETATM   31  C15 UNL     1      33.745  -4.312  28.878  1.00  0.00     0.009 C 
HETATM   32  C12 UNL     1      34.551  -1.624  28.390  1.00  0.00    -0.012 C 
HETATM   33  C13 UNL     1      34.055  -2.502  27.284  1.00  0.00     0.009 C 
HETATM   34  C17 UNL     1      36.051  -1.728  28.549  1.00  0.00     0.036 C 
HETATM   35  C14 UNL     1      34.463  -3.916  27.618  1.00  0.00    -0.012 C 
HETATM   36  C16 UNL     1      35.934  -4.039  27.814  1.00  0.00     0.036 C 
ENDBRANCH  25  27
ENDBRANCH   4  25
TORSDOF 8
ENDMDL
MODEL 5
REMARK VINA RESULT: -7.071388497      4.331      7.816
REMARK  8 active torsions:
REMARK  status: ('A' for Active; 'I' for Inactive)
REMARK    1  A    between atoms: O1_2  and  N1_3 
REMARK       I    between atoms: N1_3  and  C2_5 
REMARK       I    between atoms: C2_5  and  N3_9 
REMARK    2  A    between atoms: N3_9  and  C3_11 
REMARK    3  A    between atoms: C3_11  and  C4_12 
REMARK    4  A    between atoms: C4_12  and  C5_13 
REMARK    5  A    between atoms: C5_13  and  N4_14 
REMARK    6  A    between atoms: N4_14  and  C6_16 
REMARK    7  A    between atoms: C7_19  and  N6_20 
REMARK    8  A    between atoms: N6_20  and  C8_22 
ROOT
HETATM    1  C6  UNL     1      40.755  -2.648  31.186  1.00  0.00     0.135 A 
HETATM    2  N5  UNL     1      39.432  -2.844  31.180  1.00  0.00    -0.176 N 
ATOM      3  H5  UNL     1      39.079  -3.739  30.843  1.00  0.00     0.186 HD
HETATM    4  C7  UNL     1      38.525  -1.908  31.601  1.00  0.00     0.680 A 
HETATM    5  N7  UNL     1      39.038  -0.746  32.035  1.00  0.00    -0.201 N 
ATOM      6  H7  UNL     1      38.397  -0.022  32.358  1.00  0.00     0.183 HD
HETATM    7  C18 UNL     1      40.375  -0.491  32.064  1.00  0.00     0.129 A 
HETATM    8  C19 UNL     1      41.277  -1.436  31.639  1.00  0.00     0.071 A 
HETATM    9 BR1  UNL     1      43.156  -1.122  31.663  1.00  0.00    -0.046 Br
ENDROOT
BRANCH   1  10
HETATM   10  N4  UNL     1      41.619  -3.505  30.794  1.00  0.00    -0.375 N 
ATOM     11  H4  UNL     1      42.299  -3.844  31.474  1.00  0.00     0.161 HD
BRANCH  10  12
HETATM   12  C5  UNL     1      41.691  -4.018  29.467  1.00  0.00     0.123 C 
BRANCH  12  13
HETATM   13  C4  UNL     1      43.059  -4.643  29.161  1.00  0.00     0.040 C 
BRANCH  13  14
HETATM   14  C3  UNL     1      43.799  -3.619  28.332  1.00  0.00     0.139 C 
BRANCH  14  15
HETATM   15  N3  UNL     1      43.322  -3.505  26.994  1.00  0.00    -0.225 N 
HETATM   16  C2  UNL     1      44.112  -3.601  25.835  1.00  0.00     0.691 C 
HETATM   17  N1  UNL     1      44.728  -2.440  25.297  1.00  0.00    -0.097 N 
HETATM   18  N2  UNL     1      44.310  -4.716  25.222  1.00  0.00    -0.233 N 
ATOM     19  H1  UNL     1      45.520  -2.016  25.780  1.00  0.00     0.213 HD
ATOM     20  H22 UNL     1      44.883  -4.786  24.381  1.00  0.00     0.174 HD
ATOM     21  H21 UNL     1      43.867  -5.550  25.608  1.00  0.00     0.174 HD
ATOM     22  H3  UNL     1      42.323  -3.340  26.866  1.00  0.00     0.177 HD
BRANCH  17  23
HETATM   23  O1  UNL     1      44.270  -1.895  24.149  1.00  0.00    -0.272 OA
HETATM   24  C1  UNL     1      44.039  -0.520  24.279  1.00  0.00     0.238 C 
ENDBRANCH  17  23
ENDBRANCH  14  15
ENDBRANCH  13  14
ENDBRANCH  12  13
ENDBRANCH  10  12
ENDBRANCH   1  10
BRANCH   4  25
HETATM   25  N6  UNL     1      37.315  -2.218  31.542  1.00  0.00    -0.217 N 
ATOM     26  H6  UNL     1      36.935  -2.470  32.454  1.00  0.00     0.178 HD
BRANCH  25  27
HETATM   27  C8  UNL     1      36.354  -2.303  30.521  1.00  0.00     0.048 C 
HETATM   28  C9  UNL     1      36.867  -2.304  29.114  1.00  0.00     0.036 C 
HETATM   29  C10 UNL     1      35.691  -2.306  28.164  1.00  0.00    -0.012 C 
HETATM   30  C11 UNL     1      34.823  -3.491  28.413  1.00  0.00     0.009 C 
HETATM   31  C15 UNL     1      34.877  -1.040  28.284  1.00  0.00     0.009 C 
HETATM   32  C12 UNL     1      34.214  -3.364  29.792  1.00  0.00    -0.012 C 
HETATM   33  C13 UNL     1      33.426  -2.098  29.924  1.00  0.00     0.009 C 
HETATM   34  C17 UNL     1      35.354  -3.413  30.783  1.00  0.00     0.036 C 
HETATM   35  C14 UNL     1      34.382  -0.951  29.701  1.00  0.00    -0.012 C 
HETATM   36  C16 UNL     1      35.534  -0.995  30.644  1.00  0.00     0.036 C 
ENDBRANCH  25  27
ENDBRANCH   4  25
TORSDOF 8
ENDMDL
