MODEL 1
REMARK VINA RESULT: -6.886588020      0.000      0.000
REMARK  7 active torsions:
REMARK  status: ('A' for Active; 'I' for Inactive)
REMARK    1  A    between atoms: C2_2  and  C3_3 
REMARK    2  A    between atoms: C3_3  and  C4_4 
REMARK    3  A    between atoms: C4_4  and  C5_5 
REMARK    4  A    between atoms: C5_5  and  S1_6 
REMARK    5  A    between atoms: S1_6  and  N1_9 
REMARK       I    between atoms: N1_9  and  C6_11 
REMARK       I    between atoms: C6_11  and  N3_15 
REMARK    6  A    between atoms: N3_15  and  C7_17 
REMARK    7  A    between atoms: C7_17  and  C8_18 
ROOT
HETATM    1  C8  UNL     1      37.142  -2.484  30.364  1.00  0.00     0.030 C 
HETATM    2  C9  UNL     1      36.123  -1.837  29.545  1.00  0.00     0.062 A 
HETATM    3  N4  UNL     1      35.794  -1.571  28.264  1.00  0.00    -0.193 N 
ATOM      4  H4  UNL     1      36.331  -1.840  27.439  1.00  0.00     0.184 HD
HETATM    5  C10 UNL     1      34.653  -0.901  28.265  1.00  0.00     0.676 A 
HETATM    6  N5  UNL     1      33.995  -0.458  27.222  1.00  0.00    -0.234 N 
ATOM      7  H51 UNL     1      33.116   0.059  27.222  1.00  0.00     0.174 HD
ATOM      8  H52 UNL     1      34.339  -0.604  26.272  1.00  0.00     0.174 HD
HETATM    9  N6  UNL     1      34.201  -0.708  29.514  1.00  0.00    -0.193 N 
ATOM     10  H6  UNL     1      33.349  -0.224  29.794  1.00  0.00     0.184 HD
HETATM   11  C11 UNL     1      35.111  -1.289  30.319  1.00  0.00     0.065 A 
HETATM   12  C12 UNL     1      35.400  -1.546  31.770  1.00  0.00     0.115 C 
HETATM   13 BR1  UNL     1      35.315   0.134  32.755  1.00  0.00    -0.084 Br
HETATM   14  C13 UNL     1      36.816  -2.067  31.782  1.00  0.00     0.023 C 
HETATM   15  C14 UNL     1      36.903  -3.501  32.202  1.00  0.00     0.012 C 
HETATM   16  C15 UNL     1      36.885  -3.895  30.744  1.00  0.00    -0.002 C 
HETATM   17  C16 UNL     1      35.612  -4.538  30.272  1.00  0.00     0.011 C 
ENDROOT
BRANCH   1  18
HETATM   18  C7  UNL     1      38.586  -2.245  29.978  1.00  0.00     0.155 C 
BRANCH  18  19
HETATM   19  N3  UNL     1      39.048  -0.953  30.412  1.00  0.00    -0.225 N 
HETATM   20  C6  UNL     1      40.462  -0.813  30.668  1.00  0.00     0.681 C 
HETATM   21  N1  UNL     1      41.454  -0.860  29.687  1.00  0.00    -0.117 N 
HETATM   22  N2  UNL     1      40.748  -0.637  31.910  1.00  0.00    -0.234 N 
ATOM     23  H1  UNL     1      41.572  -0.027  29.109  1.00  0.00     0.197 HD
ATOM     24  H22 UNL     1      41.747  -0.538  32.091  1.00  0.00     0.174 HD
ATOM     25  H21 UNL     1      40.024  -0.603  32.628  1.00  0.00     0.174 HD
ATOM     26  H3  UNL     1      38.405  -0.171  30.533  1.00  0.00     0.177 HD
BRANCH  21  27
HETATM   27  S1  UNL     1      42.489  -2.180  29.362  1.00  0.00     0.244 S 
HETATM   28  O1  UNL     1      41.809  -3.165  28.453  1.00  0.00    -0.205 OA
HETATM   29  O2  UNL     1      42.788  -2.947  30.654  1.00  0.00    -0.205 OA
BRANCH  27  30
HETATM   30  C5  UNL     1      44.046  -1.740  28.685  1.00  0.00     0.164 C 
BRANCH  30  31
HETATM   31  C4  UNL     1      43.994  -1.053  27.366  1.00  0.00     0.017 C 
BRANCH  31  32
HETATM   32  C3  UNL     1      44.704  -1.761  26.249  1.00  0.00     0.001 C 
BRANCH  32  33
HETATM   33  C2  UNL     1      44.217  -3.186  26.068  1.00  0.00    -0.005 C 
HETATM   34  C1  UNL     1      44.035  -3.429  24.567  1.00  0.00     0.005 C 
ENDBRANCH  32  33
ENDBRANCH  31  32
ENDBRANCH  30  31
ENDBRANCH  27  30
ENDBRANCH  21  27
ENDBRANCH  18  19
ENDBRANCH   1  18
TORSDOF 7
ENDMDL
MODEL 2
REMARK VINA RESULT: -6.866629561      2.451      3.009
REMARK  7 active torsions:
REMARK  status: ('A' for Active; 'I' for Inactive)
REMARK    1  A    between atoms: C2_2  and  C3_3 
REMARK    2  A    between atoms: C3_3  and  C4_4 
REMARK    3  A    between atoms: C4_4  and  C5_5 
REMARK    4  A    between atoms: C5_5  and  S1_6 
REMARK    5  A    between atoms: S1_6  and  N1_9 
REMARK       I    between atoms: N1_9  and  C6_11 
REMARK       I    between atoms: C6_11  and  N3_15 
REMARK    6  A    between atoms: N3_15  and  C7_17 
REMARK    7  A    between atoms: C7_17  and  C8_18 
ROOT
HETATM    1  C8  UNL     1      37.427  -3.086  29.580  1.00  0.00     0.030 C 
HETATM    2  C9  UNL     1      36.713  -3.994  28.687  1.00  0.00     0.062 A 
HETATM    3  N4  UNL     1      36.824  -5.184  28.063  1.00  0.00    -0.193 N 
ATOM      4  H4  UNL     1      37.623  -5.817  28.117  1.00  0.00     0.184 HD
HETATM    5  C10 UNL     1      35.716  -5.388  27.370  1.00  0.00     0.676 A 
HETATM    6  N5  UNL     1      35.428  -6.429  26.627  1.00  0.00    -0.234 N 
ATOM      7  H51 UNL     1      34.574  -6.587  26.093  1.00  0.00     0.174 HD
ATOM      8  H52 UNL     1      36.081  -7.206  26.520  1.00  0.00     0.174 HD
HETATM    9  N6  UNL     1      34.857  -4.367  27.510  1.00  0.00    -0.193 N 
ATOM     10  H6  UNL     1      33.934  -4.273  27.086  1.00  0.00     0.184 HD
HETATM   11  C11 UNL     1      35.469  -3.492  28.330  1.00  0.00     0.065 A 
HETATM   12  C12 UNL     1      35.262  -2.159  28.991  1.00  0.00     0.115 C 
HETATM   13 BR1  UNL     1      34.756  -0.842  27.647  1.00  0.00    -0.084 Br
HETATM   14  C13 UNL     1      36.616  -1.808  29.557  1.00  0.00     0.023 C 
HETATM   15  C14 UNL     1      36.634  -1.795  31.053  1.00  0.00     0.012 C 
HETATM   16  C15 UNL     1      37.134  -3.220  31.027  1.00  0.00    -0.002 C 
HETATM   17  C16 UNL     1      36.133  -4.255  31.459  1.00  0.00     0.011 C 
ENDROOT
BRANCH   1  18
HETATM   18  C7  UNL     1      38.900  -2.876  29.307  1.00  0.00     0.155 C 
BRANCH  18  19
HETATM   19  N3  UNL     1      39.690  -3.998  29.742  1.00  0.00    -0.225 N 
HETATM   20  C6  UNL     1      41.123  -3.826  29.759  1.00  0.00     0.681 C 
HETATM   21  N1  UNL     1      41.809  -2.979  30.632  1.00  0.00    -0.117 N 
HETATM   22  N2  UNL     1      41.740  -4.534  28.879  1.00  0.00    -0.234 N 
ATOM     23  H1  UNL     1      41.931  -3.306  31.591  1.00  0.00     0.197 HD
ATOM     24  H22 UNL     1      42.753  -4.412  28.892  1.00  0.00     0.174 HD
ATOM     25  H21 UNL     1      41.239  -5.152  28.241  1.00  0.00     0.174 HD
ATOM     26  H3  UNL     1      39.256  -4.876  30.025  1.00  0.00     0.177 HD
BRANCH  21  27
HETATM   27  S1  UNL     1      42.464  -1.449  30.246  1.00  0.00     0.244 S 
HETATM   28  O1  UNL     1      43.637  -1.144  31.133  1.00  0.00    -0.205 OA
HETATM   29  O2  UNL     1      41.435  -0.348  30.526  1.00  0.00    -0.205 OA
BRANCH  27  30
HETATM   30  C5  UNL     1      42.936  -1.258  28.567  1.00  0.00     0.164 C 
BRANCH  30  31
HETATM   31  C4  UNL     1      44.195  -1.951  28.178  1.00  0.00     0.017 C 
BRANCH  31  32
HETATM   32  C3  UNL     1      44.419  -2.086  26.701  1.00  0.00     0.001 C 
BRANCH  32  33
HETATM   33  C2  UNL     1      44.024  -3.454  26.180  1.00  0.00    -0.005 C 
HETATM   34  C1  UNL     1      44.049  -3.396  24.651  1.00  0.00     0.005 C 
ENDBRANCH  32  33
ENDBRANCH  31  32
ENDBRANCH  30  31
ENDBRANCH  27  30
ENDBRANCH  21  27
ENDBRANCH  18  19
ENDBRANCH   1  18
TORSDOF 7
ENDMDL
MODEL 3
REMARK VINA RESULT: -6.812652178      1.922      2.399
REMARK  7 active torsions:
REMARK  status: ('A' for Active; 'I' for Inactive)
REMARK    1  A    between atoms: C2_2  and  C3_3 
REMARK    2  A    between atoms: C3_3  and  C4_4 
REMARK    3  A    between atoms: C4_4  and  C5_5 
REMARK    4  A    between atoms: C5_5  and  S1_6 
REMARK    5  A    between atoms: S1_6  and  N1_9 
REMARK       I    between atoms: N1_9  and  C6_11 
REMARK       I    between atoms: C6_11  and  N3_15 
REMARK    6  A    between atoms: N3_15  and  C7_17 
REMARK    7  A    between atoms: C7_17  and  C8_18 
ROOT
HETATM    1  C8  UNL     1      37.104  -2.714  29.773  1.00  0.00     0.030 C 
HETATM    2  C9  UNL     1      36.549  -3.680  28.831  1.00  0.00     0.062 A 
HETATM    3  N4  UNL     1      36.802  -4.869  28.248  1.00  0.00    -0.193 N 
ATOM      4  H4  UNL     1      37.629  -5.446  28.398  1.00  0.00     0.184 HD
HETATM    5  C10 UNL     1      35.789  -5.157  27.447  1.00  0.00     0.676 A 
HETATM    6  N5  UNL     1      35.648  -6.226  26.701  1.00  0.00    -0.234 N 
ATOM      7  H51 UNL     1      34.868  -6.448  26.083  1.00  0.00     0.174 HD
ATOM      8  H52 UNL     1      36.358  -6.959  26.679  1.00  0.00     0.174 HD
HETATM    9  N6  UNL     1      34.855  -4.193  27.475  1.00  0.00    -0.193 N 
ATOM     10  H6  UNL     1      33.979  -4.167  26.954  1.00  0.00     0.184 HD
HETATM   11  C11 UNL     1      35.320  -3.267  28.335  1.00  0.00     0.065 A 
HETATM   12  C12 UNL     1      34.959  -1.942  28.941  1.00  0.00     0.115 C 
HETATM   13 BR1  UNL     1      34.513  -0.681  27.523  1.00  0.00    -0.084 Br
HETATM   14  C13 UNL     1      36.220  -1.493  29.638  1.00  0.00     0.023 C 
HETATM   15  C14 UNL     1      36.078  -1.456  31.127  1.00  0.00     0.012 C 
HETATM   16  C15 UNL     1      36.669  -2.845  31.185  1.00  0.00    -0.002 C 
HETATM   17  C16 UNL     1      35.698  -3.938  31.532  1.00  0.00     0.011 C 
ENDROOT
BRANCH   1  18
HETATM   18  C7  UNL     1      38.581  -2.410  29.651  1.00  0.00     0.155 C 
BRANCH  18  19
HETATM   19  N3  UNL     1      38.916  -1.141  30.242  1.00  0.00    -0.225 N 
HETATM   20  C6  UNL     1      40.292  -0.940  30.632  1.00  0.00     0.681 C 
HETATM   21  N1  UNL     1      41.360  -0.829  29.739  1.00  0.00    -0.117 N 
HETATM   22  N2  UNL     1      40.464  -0.870  31.905  1.00  0.00    -0.234 N 
ATOM     23  H1  UNL     1      41.467   0.062  29.254  1.00  0.00     0.197 HD
ATOM     24  H22 UNL     1      41.436  -0.728  32.180  1.00  0.00     0.174 HD
ATOM     25  H21 UNL     1      39.684  -0.951  32.556  1.00  0.00     0.174 HD
ATOM     26  H3  UNL     1      38.213  -0.415  30.379  1.00  0.00     0.177 HD
BRANCH  21  27
HETATM   27  S1  UNL     1      42.507  -2.046  29.385  1.00  0.00     0.244 S 
HETATM   28  O1  UNL     1      41.911  -3.073  28.466  1.00  0.00    -0.205 OA
HETATM   29  O2  UNL     1      42.888  -2.802  30.661  1.00  0.00    -0.205 OA
BRANCH  27  30
HETATM   30  C5  UNL     1      44.012  -1.455  28.702  1.00  0.00     0.164 C 
BRANCH  30  31
HETATM   31  C4  UNL     1      43.958  -1.097  27.259  1.00  0.00     0.017 C 
BRANCH  31  32
HETATM   32  C3  UNL     1      44.779  -1.967  26.353  1.00  0.00     0.001 C 
BRANCH  32  33
HETATM   33  C2  UNL     1      44.057  -3.244  25.971  1.00  0.00    -0.005 C 
HETATM   34  C1  UNL     1      44.090  -3.361  24.445  1.00  0.00     0.005 C 
ENDBRANCH  32  33
ENDBRANCH  31  32
ENDBRANCH  30  31
ENDBRANCH  27  30
ENDBRANCH  21  27
ENDBRANCH  18  19
ENDBRANCH   1  18
TORSDOF 7
ENDMDL
MODEL 4
REMARK VINA RESULT: -6.697950959      2.518      3.401
REMARK  7 active torsions:
REMARK  status: ('A' for Active; 'I' for Inactive)
REMARK    1  A    between atoms: C2_2  and  C3_3 
REMARK    2  A    between atoms: C3_3  and  C4_4 
REMARK    3  A    between atoms: C4_4  and  C5_5 
REMARK    4  A    between atoms: C5_5  and  S1_6 
REMARK    5  A    between atoms: S1_6  and  N1_9 
REMARK       I    between atoms: N1_9  and  C6_11 
REMARK       I    between atoms: C6_11  and  N3_15 
REMARK    6  A    between atoms: N3_15  and  C7_17 
REMARK    7  A    between atoms: C7_17  and  C8_18 
ROOT
HETATM    1  C8  UNL     1      38.757  -1.587  31.200  1.00  0.00     0.030 C 
HETATM    2  C9  UNL     1      39.039  -2.921  30.680  1.00  0.00     0.062 A 
HETATM    3  N4  UNL     1      40.036  -3.816  30.522  1.00  0.00    -0.193 N 
ATOM      4  H4  UNL     1      41.007  -3.688  30.807  1.00  0.00     0.184 HD
HETATM    5  C10 UNL     1      39.533  -4.889  29.932  1.00  0.00     0.676 A 
HETATM    6  N5  UNL     1      40.173  -5.985  29.605  1.00  0.00    -0.234 N 
ATOM      7  H51 UNL     1      39.786  -6.812  29.151  1.00  0.00     0.174 HD
ATOM      8  H52 UNL     1      41.171  -6.096  29.789  1.00  0.00     0.174 HD
HETATM    9  N6  UNL     1      38.221  -4.743  29.689  1.00  0.00    -0.193 N 
ATOM     10  H6  UNL     1      37.596  -5.417  29.248  1.00  0.00     0.184 HD
HETATM   11  C11 UNL     1      37.903  -3.518  30.152  1.00  0.00     0.065 A 
HETATM   12  C12 UNL     1      36.738  -2.583  30.293  1.00  0.00     0.115 C 
HETATM   13 BR1  UNL     1      35.869  -2.366  28.562  1.00  0.00    -0.084 Br
HETATM   14  C13 UNL     1      37.359  -1.273  30.714  1.00  0.00     0.023 C 
HETATM   15  C14 UNL     1      36.985  -0.876  32.107  1.00  0.00     0.012 C 
HETATM   16  C15 UNL     1      38.264  -1.515  32.597  1.00  0.00    -0.002 C 
HETATM   17  C16 UNL     1      38.085  -2.800  33.356  1.00  0.00     0.011 C 
ENDROOT
BRANCH   1  18
HETATM   18  C7  UNL     1      39.766  -0.503  30.889  1.00  0.00     0.155 C 
BRANCH  18  19
HETATM   19  N3  UNL     1      40.714  -0.332  31.958  1.00  0.00    -0.225 N 
HETATM   20  C6  UNL     1      41.945  -1.081  31.870  1.00  0.00     0.681 C 
HETATM   21  N1  UNL     1      42.944  -0.855  30.922  1.00  0.00    -0.117 N 
HETATM   22  N2  UNL     1      42.054  -2.003  32.761  1.00  0.00    -0.234 N 
ATOM     23  H1  UNL     1      43.554  -0.051  31.076  1.00  0.00     0.197 HD
ATOM     24  H22 UNL     1      42.924  -2.532  32.699  1.00  0.00     0.174 HD
ATOM     25  H21 UNL     1      41.325  -2.169  33.454  1.00  0.00     0.174 HD
ATOM     26  H3  UNL     1      40.524   0.290  32.743  1.00  0.00     0.177 HD
BRANCH  21  27
HETATM   27  S1  UNL     1      43.243  -1.797  29.528  1.00  0.00     0.244 S 
HETATM   28  O1  UNL     1      41.954  -2.101  28.817  1.00  0.00    -0.205 OA
HETATM   29  O2  UNL     1      43.828  -3.156  29.924  1.00  0.00    -0.205 OA
BRANCH  27  30
HETATM   30  C5  UNL     1      44.380  -1.089  28.395  1.00  0.00     0.164 C 
BRANCH  30  31
HETATM   31  C4  UNL     1      43.973  -1.148  26.965  1.00  0.00     0.017 C 
BRANCH  31  32
HETATM   32  C3  UNL     1      44.692  -2.174  26.139  1.00  0.00     0.001 C 
BRANCH  32  33
HETATM   33  C2  UNL     1      43.926  -3.479  26.047  1.00  0.00    -0.005 C 
HETATM   34  C1  UNL     1      43.849  -3.871  24.569  1.00  0.00     0.005 C 
ENDBRANCH  32  33
ENDBRANCH  31  32
ENDBRANCH  30  31
ENDBRANCH  27  30
ENDBRANCH  21  27
ENDBRANCH  18  19
ENDBRANCH   1  18
TORSDOF 7
ENDMDL
MODEL 5
REMARK VINA RESULT: -6.655152036      1.821      2.478
REMARK  7 active torsions:
REMARK  status: ('A' for Active; 'I' for Inactive)
REMARK    1  A    between atoms: C2_2  and  C3_3 
REMARK    2  A    between atoms: C3_3  and  C4_4 
REMARK    3  A    between atoms: C4_4  and  C5_5 
REMARK    4  A    between atoms: C5_5  and  S1_6 
REMARK    5  A    between atoms: S1_6  and  N1_9 
REMARK       I    between atoms: N1_9  and  C6_11 
REMARK       I    between atoms: C6_11  and  N3_15 
REMARK    6  A    between atoms: N3_15  and  C7_17 
REMARK    7  A    between atoms: C7_17  and  C8_18 
ROOT
HETATM    1  C8  UNL     1      36.964  -2.203  29.993  1.00  0.00     0.030 C 
HETATM    2  C9  UNL     1      36.272  -1.449  31.034  1.00  0.00     0.062 A 
HETATM    3  N4  UNL     1      36.284  -0.266  31.680  1.00  0.00    -0.193 N 
ATOM      4  H4  UNL     1      36.938   0.500  31.518  1.00  0.00     0.184 HD
HETATM    5  C10 UNL     1      35.297  -0.271  32.562  1.00  0.00     0.676 A 
HETATM    6  N5  UNL     1      34.969   0.692  33.388  1.00  0.00    -0.234 N 
ATOM      7  H51 UNL     1      34.209   0.689  34.068  1.00  0.00     0.174 HD
ATOM      8  H52 UNL     1      35.486   1.572  33.415  1.00  0.00     0.174 HD
HETATM    9  N6  UNL     1      34.618  -1.428  32.527  1.00  0.00    -0.193 N 
ATOM     10  H6  UNL     1      33.816  -1.690  33.100  1.00  0.00     0.184 HD
HETATM   11  C11 UNL     1      35.218  -2.170  31.577  1.00  0.00     0.065 A 
HETATM   12  C12 UNL     1      35.132  -3.509  30.905  1.00  0.00     0.115 C 
HETATM   13 BR1  UNL     1      35.108  -4.913  32.257  1.00  0.00    -0.084 Br
HETATM   14  C13 UNL     1      36.405  -3.606  30.100  1.00  0.00     0.023 C 
HETATM   15  C14 UNL     1      36.159  -3.598  28.623  1.00  0.00     0.012 C 
HETATM   16  C15 UNL     1      36.401  -2.106  28.625  1.00  0.00    -0.002 C 
HETATM   17  C16 UNL     1      35.176  -1.262  28.417  1.00  0.00     0.011 C 
ENDROOT
BRANCH   1  18
HETATM   18  C7  UNL     1      38.476  -2.151  29.999  1.00  0.00     0.155 C 
BRANCH  18  19
HETATM   19  N3  UNL     1      38.964  -0.855  30.395  1.00  0.00    -0.225 N 
HETATM   20  C6  UNL     1      40.380  -0.736  30.651  1.00  0.00     0.681 C 
HETATM   21  N1  UNL     1      41.372  -0.833  29.673  1.00  0.00    -0.117 N 
HETATM   22  N2  UNL     1      40.667  -0.529  31.888  1.00  0.00    -0.234 N 
ATOM     23  H1  UNL     1      41.508  -0.021  29.071  1.00  0.00     0.197 HD
ATOM     24  H22 UNL     1      41.668  -0.445  32.068  1.00  0.00     0.174 HD
ATOM     25  H21 UNL     1      39.943  -0.458  32.602  1.00  0.00     0.174 HD
ATOM     26  H3  UNL     1      38.337  -0.057  30.491  1.00  0.00     0.177 HD
BRANCH  21  27
HETATM   27  S1  UNL     1      42.381  -2.183  29.391  1.00  0.00     0.244 S 
HETATM   28  O1  UNL     1      41.716  -3.143  28.445  1.00  0.00    -0.205 OA
HETATM   29  O2  UNL     1      42.594  -2.965  30.691  1.00  0.00    -0.205 OA
BRANCH  27  30
HETATM   30  C5  UNL     1      43.982  -1.788  28.792  1.00  0.00     0.164 C 
BRANCH  30  31
HETATM   31  C4  UNL     1      44.013  -1.059  27.495  1.00  0.00     0.017 C 
BRANCH  31  32
HETATM   32  C3  UNL     1      44.740  -1.762  26.385  1.00  0.00     0.001 C 
BRANCH  32  33
HETATM   33  C2  UNL     1      44.256  -3.185  26.190  1.00  0.00    -0.005 C 
HETATM   34  C1  UNL     1      44.021  -3.397  24.692  1.00  0.00     0.005 C 
ENDBRANCH  32  33
ENDBRANCH  31  32
ENDBRANCH  30  31
ENDBRANCH  27  30
ENDBRANCH  21  27
ENDBRANCH  18  19
ENDBRANCH   1  18
TORSDOF 7
ENDMDL
