MODEL 1
REMARK VINA RESULT: -8.865129345      0.000      0.000
REMARK  8 active torsions:
REMARK  status: ('A' for Active; 'I' for Inactive)
REMARK    1  A    between atoms: N1_2  and  C2_4 
REMARK    2  A    between atoms: C2_4  and  C3_8 
REMARK    3  A    between atoms: C3_8  and  C4_9 
REMARK    4  A    between atoms: C4_9  and  C5_10 
REMARK       I    between atoms: C5_10  and  N3_12 
REMARK    5  A    between atoms: N3_12  and  N4_14 
REMARK       I    between atoms: N4_14  and  C6_16 
REMARK       I    between atoms: C6_16  and  N9_33 
REMARK       I    between atoms: N5_17  and  C7_19 
REMARK       I    between atoms: C7_19  and  N7_23 
REMARK    6  A    between atoms: N8_26  and  C10_27 
REMARK    7  A    between atoms: C10_27  and  C11_28 
REMARK    8  A    between atoms: N9_33  and  C16_35 
ROOT
HETATM    1  N4  UNL     1      42.466  -2.372  31.510  1.00  0.00    -0.129 N 
ATOM      2  H4  UNL     1      42.169  -3.334  31.350  1.00  0.00     0.205 HD
HETATM    3  C6  UNL     1      42.454  -1.494  30.386  1.00  0.00     0.712 C 
HETATM    4  N5  UNL     1      41.491  -0.857  29.930  1.00  0.00    -0.021 N 
ATOM      5  H5  UNL     1      41.794  -0.316  29.119  1.00  0.00     0.203 HD
HETATM    6  C7  UNL     1      40.170  -0.642  30.153  1.00  0.00     0.688 C 
HETATM    7  N6  UNL     1      39.681   0.559  29.839  1.00  0.00    -0.234 N 
ATOM      8  H61 UNL     1      38.688   0.722  30.007  1.00  0.00     0.174 HD
ATOM      9  H62 UNL     1      40.385   1.191  29.457  1.00  0.00     0.174 HD
HETATM   10  N7  UNL     1      39.204  -1.509  30.676  1.00  0.00    -0.214 N 
HETATM   11  C8  UNL     1      38.101  -1.012  31.523  1.00  0.00     0.161 C 
HETATM   12  C9  UNL     1      36.780  -1.253  30.781  1.00  0.00     0.142 C 
HETATM   13  N8  UNL     1      36.959  -2.334  29.904  1.00  0.00    -0.390 N 
HETATM   14  C14 UNL     1      37.746  -3.430  30.306  1.00  0.00     0.142 C 
HETATM   15  C15 UNL     1      39.208  -2.925  30.417  1.00  0.00     0.161 C 
HETATM   16  N9  UNL     1      43.755  -1.366  29.755  1.00  0.00    -0.187 N 
ATOM     17  H9  UNL     1      44.542  -0.996  30.289  1.00  0.00     0.184 HD
ENDROOT
BRANCH   1  18
HETATM   18  N3  UNL     1      42.842  -2.039  32.787  1.00  0.00    -0.256 N 
HETATM   19  C5  UNL     1      43.192  -0.756  33.239  1.00  0.00     0.236 C 
HETATM   20  O1  UNL     1      43.155   0.197  32.384  1.00  0.00    -0.272 OA
ATOM     21  H3  UNL     1      42.871  -2.794  33.472  1.00  0.00     0.190 HD
BRANCH  19  22
HETATM   22  C4  UNL     1      43.596  -0.440  34.637  1.00  0.00     0.112 C 
BRANCH  22  23
HETATM   23  C3  UNL     1      43.729   1.055  34.834  1.00  0.00     0.085 C 
BRANCH  23  24
HETATM   24  C2  UNL     1      45.152   1.460  34.899  1.00  0.00     0.070 C 
HETATM   25  N2  UNL     1      45.881   1.298  33.855  1.00  0.00    -0.389 N 
ATOM     26  H22 UNL     1      46.861   1.577  33.899  1.00  0.00     0.157 HD
ATOM     27  H21 UNL     1      45.445   0.896  33.025  1.00  0.00     0.157 HD
BRANCH  24  28
HETATM   28  N1  UNL     1      45.759   2.019  36.053  1.00  0.00    -0.384 N 
HETATM   29  C1  UNL     1      45.101   3.051  36.813  1.00  0.00     0.147 C 
ATOM     30  H1  UNL     1      46.676   1.685  36.350  1.00  0.00     0.160 HD
ENDBRANCH  24  28
ENDBRANCH  23  24
ENDBRANCH  22  23
ENDBRANCH  19  22
ENDBRANCH   1  18
BRANCH  16  31
HETATM   31  C16 UNL     1      43.942  -1.748  28.410  1.00  0.00     0.087 A 
HETATM   32  C17 UNL     1      44.119  -0.877  27.351  1.00  0.00     0.033 A 
HETATM   33  C18 UNL     1      44.301  -1.341  26.060  1.00  0.00     0.002 A 
HETATM   34  C19 UNL     1      44.320  -2.698  25.738  1.00  0.00     0.003 A 
HETATM   35  C20 UNL     1      44.144  -3.548  26.805  1.00  0.00     0.044 A 
HETATM   36  C21 UNL     1      43.961  -3.097  28.091  1.00  0.00     0.143 A 
HETATM   37  F1  UNL     1      43.787  -3.977  29.127  1.00  0.00    -0.204 F 
ENDBRANCH  16  31
BRANCH  13  38
HETATM   38  C10 UNL     1      36.272  -2.388  28.689  1.00  0.00     0.063 C 
BRANCH  38  39
HETATM   39  C11 UNL     1      34.970  -1.664  28.630  1.00  0.00     0.024 A 
HETATM   40  C12 UNL     1      34.670  -0.707  27.535  1.00  0.00     0.010 A 
HETATM   41  C13 UNL     1      34.058  -2.074  27.483  1.00  0.00     0.010 A 
ENDBRANCH  38  39
ENDBRANCH  13  38
TORSDOF 8
ENDMDL
MODEL 2
REMARK VINA RESULT: -8.793881232      0.798      1.147
REMARK  8 active torsions:
REMARK  status: ('A' for Active; 'I' for Inactive)
REMARK    1  A    between atoms: N1_2  and  C2_4 
REMARK    2  A    between atoms: C2_4  and  C3_8 
REMARK    3  A    between atoms: C3_8  and  C4_9 
REMARK    4  A    between atoms: C4_9  and  C5_10 
REMARK       I    between atoms: C5_10  and  N3_12 
REMARK    5  A    between atoms: N3_12  and  N4_14 
REMARK       I    between atoms: N4_14  and  C6_16 
REMARK       I    between atoms: C6_16  and  N9_33 
REMARK       I    between atoms: N5_17  and  C7_19 
REMARK       I    between atoms: C7_19  and  N7_23 
REMARK    6  A    between atoms: N8_26  and  C10_27 
REMARK    7  A    between atoms: C10_27  and  C11_28 
REMARK    8  A    between atoms: N9_33  and  C16_35 
ROOT
HETATM    1  N4  UNL     1      42.456  -2.442  31.531  1.00  0.00    -0.129 N 
ATOM      2  H4  UNL     1      42.135  -3.402  31.411  1.00  0.00     0.205 HD
HETATM    3  C6  UNL     1      42.460  -1.610  30.372  1.00  0.00     0.712 C 
HETATM    4  N5  UNL     1      41.510  -0.969  29.894  1.00  0.00    -0.021 N 
ATOM      5  H5  UNL     1      41.822  -0.468  29.062  1.00  0.00     0.203 HD
HETATM    6  C7  UNL     1      40.195  -0.714  30.113  1.00  0.00     0.688 C 
HETATM    7  N6  UNL     1      39.733   0.484  29.752  1.00  0.00    -0.234 N 
ATOM      8  H61 UNL     1      38.745   0.676  29.916  1.00  0.00     0.174 HD
ATOM      9  H62 UNL     1      40.450   1.084  29.343  1.00  0.00     0.174 HD
HETATM   10  N7  UNL     1      39.211  -1.537  30.673  1.00  0.00    -0.214 N 
HETATM   11  C8  UNL     1      38.123  -0.980  31.503  1.00  0.00     0.161 C 
HETATM   12  C9  UNL     1      36.795  -1.220  30.776  1.00  0.00     0.142 C 
HETATM   13  N8  UNL     1      36.944  -2.339  29.942  1.00  0.00    -0.390 N 
HETATM   14  C14 UNL     1      37.708  -3.437  30.386  1.00  0.00     0.142 C 
HETATM   15  C15 UNL     1      39.182  -2.962  30.472  1.00  0.00     0.161 C 
HETATM   16  N9  UNL     1      43.761  -1.538  29.733  1.00  0.00    -0.187 N 
ATOM     17  H9  UNL     1      44.558  -1.165  30.249  1.00  0.00     0.184 HD
ENDROOT
BRANCH   1  18
HETATM   18  N3  UNL     1      42.845  -2.067  32.792  1.00  0.00    -0.256 N 
HETATM   19  C5  UNL     1      43.181  -0.767  33.202  1.00  0.00     0.236 C 
HETATM   20  O1  UNL     1      43.117   0.161  32.322  1.00  0.00    -0.272 OA
ATOM     21  H3  UNL     1      42.895  -2.802  33.498  1.00  0.00     0.190 HD
BRANCH  19  22
HETATM   22  C4  UNL     1      43.600  -0.404  34.585  1.00  0.00     0.112 C 
BRANCH  22  23
HETATM   23  C3  UNL     1      43.727   1.097  34.732  1.00  0.00     0.085 C 
BRANCH  23  24
HETATM   24  C2  UNL     1      45.149   1.508  34.799  1.00  0.00     0.070 C 
HETATM   25  N2  UNL     1      45.879   1.350  33.756  1.00  0.00    -0.389 N 
ATOM     26  H22 UNL     1      46.858   1.633  33.802  1.00  0.00     0.157 HD
ATOM     27  H21 UNL     1      45.445   0.948  32.926  1.00  0.00     0.157 HD
BRANCH  24  28
HETATM   28  N1  UNL     1      45.752   2.068  35.955  1.00  0.00    -0.384 N 
HETATM   29  C1  UNL     1      45.069   3.062  36.743  1.00  0.00     0.147 C 
ATOM     30  H1  UNL     1      46.685   1.761  36.233  1.00  0.00     0.160 HD
ENDBRANCH  24  28
ENDBRANCH  23  24
ENDBRANCH  22  23
ENDBRANCH  19  22
ENDBRANCH   1  18
BRANCH  16  31
HETATM   31  C16 UNL     1      43.933  -1.978  28.404  1.00  0.00     0.087 A 
HETATM   32  C17 UNL     1      43.845  -3.292  27.981  1.00  0.00     0.033 A 
HETATM   33  C18 UNL     1      44.023  -3.634  26.652  1.00  0.00     0.002 A 
HETATM   34  C19 UNL     1      44.300  -2.695  25.658  1.00  0.00     0.003 A 
HETATM   35  C20 UNL     1      44.383  -1.394  26.098  1.00  0.00     0.044 A 
HETATM   36  C21 UNL     1      44.208  -1.045  27.416  1.00  0.00     0.143 A 
HETATM   37  F1  UNL     1      44.300   0.263  27.814  1.00  0.00    -0.204 F 
ENDBRANCH  16  31
BRANCH  13  38
HETATM   38  C10 UNL     1      36.252  -2.426  28.733  1.00  0.00     0.063 C 
BRANCH  38  39
HETATM   39  C11 UNL     1      34.966  -1.675  28.650  1.00  0.00     0.024 A 
HETATM   40  C12 UNL     1      34.700  -0.723  27.542  1.00  0.00     0.010 A 
HETATM   41  C13 UNL     1      34.061  -2.078  27.494  1.00  0.00     0.010 A 
ENDBRANCH  38  39
ENDBRANCH  13  38
TORSDOF 8
ENDMDL
MODEL 3
REMARK VINA RESULT: -8.430524861      1.055      1.304
REMARK  8 active torsions:
REMARK  status: ('A' for Active; 'I' for Inactive)
REMARK    1  A    between atoms: N1_2  and  C2_4 
REMARK    2  A    between atoms: C2_4  and  C3_8 
REMARK    3  A    between atoms: C3_8  and  C4_9 
REMARK    4  A    between atoms: C4_9  and  C5_10 
REMARK       I    between atoms: C5_10  and  N3_12 
REMARK    5  A    between atoms: N3_12  and  N4_14 
REMARK       I    between atoms: N4_14  and  C6_16 
REMARK       I    between atoms: C6_16  and  N9_33 
REMARK       I    between atoms: N5_17  and  C7_19 
REMARK       I    between atoms: C7_19  and  N7_23 
REMARK    6  A    between atoms: N8_26  and  C10_27 
REMARK    7  A    between atoms: C10_27  and  C11_28 
REMARK    8  A    between atoms: N9_33  and  C16_35 
ROOT
HETATM    1  N4  UNL     1      42.489  -2.269  31.586  1.00  0.00    -0.129 N 
ATOM      2  H4  UNL     1      42.206  -3.240  31.453  1.00  0.00     0.205 HD
HETATM    3  C6  UNL     1      42.461  -1.423  30.439  1.00  0.00     0.712 C 
HETATM    4  N5  UNL     1      41.487  -0.813  29.968  1.00  0.00    -0.021 N 
ATOM      5  H5  UNL     1      41.780  -0.290  29.142  1.00  0.00     0.203 HD
HETATM    6  C7  UNL     1      40.163  -0.612  30.189  1.00  0.00     0.688 C 
HETATM    7  N6  UNL     1      39.656   0.572  29.843  1.00  0.00    -0.234 N 
ATOM      8  H61 UNL     1      38.661   0.724  30.009  1.00  0.00     0.174 HD
ATOM      9  H62 UNL     1      40.349   1.204  29.443  1.00  0.00     0.174 HD
HETATM   10  N7  UNL     1      39.212  -1.479  30.738  1.00  0.00    -0.214 N 
HETATM   11  C8  UNL     1      38.103  -0.976  31.573  1.00  0.00     0.161 C 
HETATM   12  C9  UNL     1      36.785  -1.258  30.842  1.00  0.00     0.142 C 
HETATM   13  N8  UNL     1      36.978  -2.359  29.994  1.00  0.00    -0.390 N 
HETATM   14  C14 UNL     1      37.783  -3.432  30.425  1.00  0.00     0.142 C 
HETATM   15  C15 UNL     1      39.237  -2.902  30.518  1.00  0.00     0.161 C 
HETATM   16  N9  UNL     1      43.758  -1.292  29.801  1.00  0.00    -0.187 N 
ATOM     17  H9  UNL     1      44.540  -0.895  30.323  1.00  0.00     0.184 HD
ENDROOT
BRANCH   1  18
HETATM   18  N3  UNL     1      42.863  -1.896  32.853  1.00  0.00    -0.256 N 
HETATM   19  C5  UNL     1      43.213  -0.600  33.264  1.00  0.00     0.236 C 
HETATM   20  O1  UNL     1      43.180   0.326  32.379  1.00  0.00    -0.272 OA
ATOM     21  H3  UNL     1      42.888  -2.628  33.562  1.00  0.00     0.190 HD
BRANCH  19  22
HETATM   22  C4  UNL     1      43.614  -0.239  34.652  1.00  0.00     0.112 C 
BRANCH  22  23
HETATM   23  C3  UNL     1      44.105   1.191  34.716  1.00  0.00     0.085 C 
BRANCH  23  24
HETATM   24  C2  UNL     1      43.129   2.060  35.415  1.00  0.00     0.070 C 
HETATM   25  N2  UNL     1      43.286   3.332  35.346  1.00  0.00    -0.389 N 
ATOM     26  H22 UNL     1      42.614   3.930  35.828  1.00  0.00     0.157 HD
ATOM     27  H21 UNL     1      44.077   3.687  34.811  1.00  0.00     0.157 HD
BRANCH  24  28
HETATM   28  N1  UNL     1      42.028   1.564  36.161  1.00  0.00    -0.384 N 
HETATM   29  C1  UNL     1      40.674   1.890  35.792  1.00  0.00     0.147 C 
ATOM     30  H1  UNL     1      42.198   0.968  36.972  1.00  0.00     0.160 HD
ENDBRANCH  24  28
ENDBRANCH  23  24
ENDBRANCH  22  23
ENDBRANCH  19  22
ENDBRANCH   1  18
BRANCH  16  31
HETATM   31  C16 UNL     1      43.948  -1.708  28.467  1.00  0.00     0.087 A 
HETATM   32  C17 UNL     1      44.135  -0.864  27.387  1.00  0.00     0.033 A 
HETATM   33  C18 UNL     1      44.320  -1.361  26.109  1.00  0.00     0.002 A 
HETATM   34  C19 UNL     1      44.330  -2.725  25.820  1.00  0.00     0.003 A 
HETATM   35  C20 UNL     1      44.144  -3.548  26.907  1.00  0.00     0.044 A 
HETATM   36  C21 UNL     1      43.959  -3.064  28.180  1.00  0.00     0.143 A 
HETATM   37  F1  UNL     1      43.775  -3.917  29.237  1.00  0.00    -0.204 F 
ENDBRANCH  16  31
BRANCH  13  38
HETATM   38  C10 UNL     1      36.290  -2.457  28.783  1.00  0.00     0.063 C 
BRANCH  38  39
HETATM   39  C11 UNL     1      35.003  -1.709  28.690  1.00  0.00     0.024 A 
HETATM   40  C12 UNL     1      34.751  -0.746  27.588  1.00  0.00     0.010 A 
HETATM   41  C13 UNL     1      34.116  -2.102  27.517  1.00  0.00     0.010 A 
ENDBRANCH  38  39
ENDBRANCH  13  38
TORSDOF 8
ENDMDL
MODEL 4
REMARK VINA RESULT: -8.266508761      1.514      1.996
REMARK  8 active torsions:
REMARK  status: ('A' for Active; 'I' for Inactive)
REMARK    1  A    between atoms: N1_2  and  C2_4 
REMARK    2  A    between atoms: C2_4  and  C3_8 
REMARK    3  A    between atoms: C3_8  and  C4_9 
REMARK    4  A    between atoms: C4_9  and  C5_10 
REMARK       I    between atoms: C5_10  and  N3_12 
REMARK    5  A    between atoms: N3_12  and  N4_14 
REMARK       I    between atoms: N4_14  and  C6_16 
REMARK       I    between atoms: C6_16  and  N9_33 
REMARK       I    between atoms: N5_17  and  C7_19 
REMARK       I    between atoms: C7_19  and  N7_23 
REMARK    6  A    between atoms: N8_26  and  C10_27 
REMARK    7  A    between atoms: C10_27  and  C11_28 
REMARK    8  A    between atoms: N9_33  and  C16_35 
ROOT
HETATM    1  N4  UNL     1      42.708  -1.150  32.297  1.00  0.00    -0.129 N 
ATOM      2  H4  UNL     1      42.500  -2.094  32.620  1.00  0.00     0.205 HD
HETATM    3  C6  UNL     1      42.481  -0.872  30.917  1.00  0.00     0.712 C 
HETATM    4  N5  UNL     1      41.412  -0.555  30.371  1.00  0.00    -0.021 N 
ATOM      5  H5  UNL     1      41.566  -0.422  29.371  1.00  0.00     0.203 HD
HETATM    6  C7  UNL     1      40.106  -0.327  30.664  1.00  0.00     0.688 C 
HETATM    7  N6  UNL     1      39.460   0.579  29.929  1.00  0.00    -0.234 N 
ATOM      8  H61 UNL     1      38.479   0.751  30.150  1.00  0.00     0.174 HD
ATOM      9  H62 UNL     1      40.047   1.006  29.212  1.00  0.00     0.174 HD
HETATM   10  N7  UNL     1      39.301  -0.913  31.648  1.00  0.00    -0.214 N 
HETATM   11  C8  UNL     1      38.247  -0.143  32.339  1.00  0.00     0.161 C 
HETATM   12  C9  UNL     1      36.889  -0.756  31.977  1.00  0.00     0.142 C 
HETATM   13  N8  UNL     1      37.088  -2.105  31.648  1.00  0.00    -0.390 N 
HETATM   14  C14 UNL     1      38.028  -2.864  32.373  1.00  0.00     0.142 C 
HETATM   15  C15 UNL     1      39.430  -2.292  32.039  1.00  0.00     0.161 C 
HETATM   16  N9  UNL     1      43.686  -0.977  30.114  1.00  0.00    -0.187 N 
ATOM     17  H9  UNL     1      44.480  -0.369  30.312  1.00  0.00     0.184 HD
ENDROOT
BRANCH   1  18
HETATM   18  N3  UNL     1      43.180  -0.260  33.230  1.00  0.00    -0.256 N 
HETATM   19  C5  UNL     1      44.433   0.372  33.210  1.00  0.00     0.236 C 
HETATM   20  O1  UNL     1      45.213   0.100  32.230  1.00  0.00    -0.272 OA
ATOM     21  H3  UNL     1      42.562  -0.037  34.010  1.00  0.00     0.190 HD
BRANCH  19  22
HETATM   22  C4  UNL     1      44.906   1.332  34.246  1.00  0.00     0.112 C 
BRANCH  22  23
HETATM   23  C3  UNL     1      43.737   2.043  34.894  1.00  0.00     0.085 C 
BRANCH  23  24
HETATM   24  C2  UNL     1      44.201   3.020  35.906  1.00  0.00     0.070 C 
HETATM   25  N2  UNL     1      45.403   2.918  36.346  1.00  0.00    -0.389 N 
ATOM     26  H22 UNL     1      45.722   3.590  37.044  1.00  0.00     0.157 HD
ATOM     27  H21 UNL     1      45.985   2.166  35.977  1.00  0.00     0.157 HD
BRANCH  24  28
HETATM   28  N1  UNL     1      43.391   4.065  36.420  1.00  0.00    -0.384 N 
HETATM   29  C1  UNL     1      43.816   4.845  37.555  1.00  0.00     0.147 C 
ATOM     30  H1  UNL     1      42.494   4.268  35.979  1.00  0.00     0.160 HD
ENDBRANCH  24  28
ENDBRANCH  23  24
ENDBRANCH  22  23
ENDBRANCH  19  22
ENDBRANCH   1  18
BRANCH  16  31
HETATM   31  C16 UNL     1      43.768  -1.913  29.062  1.00  0.00     0.087 A 
HETATM   32  C17 UNL     1      43.525  -3.270  29.181  1.00  0.00     0.033 A 
HETATM   33  C18 UNL     1      43.624  -4.116  28.090  1.00  0.00     0.002 A 
HETATM   34  C19 UNL     1      43.969  -3.672  26.814  1.00  0.00     0.003 A 
HETATM   35  C20 UNL     1      44.206  -2.321  26.716  1.00  0.00     0.044 A 
HETATM   36  C21 UNL     1      44.111  -1.472  27.793  1.00  0.00     0.143 A 
HETATM   37  F1  UNL     1      44.356  -0.130  27.655  1.00  0.00    -0.204 F 
ENDBRANCH  16  31
BRANCH  13  38
HETATM   38  C10 UNL     1      36.286  -2.733  30.692  1.00  0.00     0.063 C 
BRANCH  38  39
HETATM   39  C11 UNL     1      36.503  -2.326  29.274  1.00  0.00     0.024 A 
HETATM   40  C12 UNL     1      35.707  -2.924  28.172  1.00  0.00     0.010 A 
HETATM   41  C13 UNL     1      35.356  -1.546  28.647  1.00  0.00     0.010 A 
ENDBRANCH  38  39
ENDBRANCH  13  38
TORSDOF 8
ENDMDL
MODEL 5
REMARK VINA RESULT: -8.133467114      1.878      2.377
REMARK  8 active torsions:
REMARK  status: ('A' for Active; 'I' for Inactive)
REMARK    1  A    between atoms: N1_2  and  C2_4 
REMARK    2  A    between atoms: C2_4  and  C3_8 
REMARK    3  A    between atoms: C3_8  and  C4_9 
REMARK    4  A    between atoms: C4_9  and  C5_10 
REMARK       I    between atoms: C5_10  and  N3_12 
REMARK    5  A    between atoms: N3_12  and  N4_14 
REMARK       I    between atoms: N4_14  and  C6_16 
REMARK       I    between atoms: C6_16  and  N9_33 
REMARK       I    between atoms: N5_17  and  C7_19 
REMARK       I    between atoms: C7_19  and  N7_23 
REMARK    6  A    between atoms: N8_26  and  C10_27 
REMARK    7  A    between atoms: C10_27  and  C11_28 
REMARK    8  A    between atoms: N9_33  and  C16_35 
ROOT
HETATM    1  N4  UNL     1      43.694  -1.141  31.487  1.00  0.00    -0.129 N 
ATOM      2  H4  UNL     1      43.688  -2.093  31.853  1.00  0.00     0.205 HD
HETATM    3  C6  UNL     1      43.103  -0.936  30.205  1.00  0.00     0.712 C 
HETATM    4  N5  UNL     1      41.903  -0.763  29.941  1.00  0.00    -0.021 N 
ATOM      5  H5  UNL     1      41.789  -0.644  28.934  1.00  0.00     0.203 HD
HETATM    6  C7  UNL     1      40.692  -0.680  30.548  1.00  0.00     0.688 C 
HETATM    7  N6  UNL     1      39.780   0.121  29.994  1.00  0.00    -0.234 N 
ATOM      8  H61 UNL     1      38.870   0.184  30.451  1.00  0.00     0.174 HD
ATOM      9  H62 UNL     1      40.117   0.591  29.154  1.00  0.00     0.174 HD
HETATM   10  N7  UNL     1      40.230  -1.324  31.701  1.00  0.00    -0.214 N 
HETATM   11  C8  UNL     1      39.293  -0.661  32.631  1.00  0.00     0.161 C 
HETATM   12  C9  UNL     1      37.972  -1.440  32.618  1.00  0.00     0.142 C 
HETATM   13  N8  UNL     1      38.246  -2.766  32.251  1.00  0.00    -0.390 N 
HETATM   14  C14 UNL     1      39.419  -3.387  32.722  1.00  0.00     0.142 C 
HETATM   15  C15 UNL     1      40.617  -2.666  32.050  1.00  0.00     0.161 C 
HETATM   16  N9  UNL     1      44.077  -0.924  29.129  1.00  0.00    -0.187 N 
ATOM     17  H9  UNL     1      44.817  -0.222  29.123  1.00  0.00     0.184 HD
ENDROOT
BRANCH   1  18
HETATM   18  N3  UNL     1      44.270  -0.174  32.272  1.00  0.00    -0.256 N 
HETATM   19  C5  UNL     1      43.699   0.417  33.410  1.00  0.00     0.236 C 
HETATM   20  O1  UNL     1      42.532   0.017  33.755  1.00  0.00    -0.272 OA
ATOM     21  H3  UNL     1      45.201   0.146  32.003  1.00  0.00     0.190 HD
BRANCH  19  22
HETATM   22  C4  UNL     1      44.361   1.466  34.234  1.00  0.00     0.112 C 
BRANCH  22  23
HETATM   23  C3  UNL     1      43.430   1.970  35.315  1.00  0.00     0.085 C 
BRANCH  23  24
HETATM   24  C2  UNL     1      44.044   3.085  36.073  1.00  0.00     0.070 C 
HETATM   25  N2  UNL     1      45.295   3.017  36.350  1.00  0.00    -0.389 N 
ATOM     26  H22 UNL     1      45.719   3.784  36.872  1.00  0.00     0.157 HD
ATOM     27  H21 UNL     1      45.811   2.196  36.034  1.00  0.00     0.157 HD
BRANCH  24  28
HETATM   28  N1  UNL     1      43.326   4.227  36.512  1.00  0.00    -0.384 N 
HETATM   29  C1  UNL     1      43.711   4.931  37.709  1.00  0.00     0.147 C 
ATOM     30  H1  UNL     1      42.525   4.555  35.972  1.00  0.00     0.160 HD
ENDBRANCH  24  28
ENDBRANCH  23  24
ENDBRANCH  22  23
ENDBRANCH  19  22
ENDBRANCH   1  18
BRANCH  16  31
HETATM   31  C16 UNL     1      44.011  -1.877  28.091  1.00  0.00     0.087 A 
HETATM   32  C17 UNL     1      43.822  -3.236  28.266  1.00  0.00     0.033 A 
HETATM   33  C18 UNL     1      43.764  -4.099  27.186  1.00  0.00     0.002 A 
HETATM   34  C19 UNL     1      43.889  -3.671  25.865  1.00  0.00     0.003 A 
HETATM   35  C20 UNL     1      44.075  -2.316  25.711  1.00  0.00     0.044 A 
HETATM   36  C21 UNL     1      44.135  -1.451  26.777  1.00  0.00     0.143 A 
HETATM   37  F1  UNL     1      44.323  -0.107  26.582  1.00  0.00    -0.204 F 
ENDBRANCH  16  31
BRANCH  13  38
HETATM   38  C10 UNL     1      37.315  -3.513  31.526  1.00  0.00     0.063 C 
BRANCH  38  39
HETATM   39  C11 UNL     1      36.981  -3.011  30.162  1.00  0.00     0.024 A 
HETATM   40  C12 UNL     1      37.968  -3.078  29.054  1.00  0.00     0.010 A 
HETATM   41  C13 UNL     1      36.861  -4.087  29.093  1.00  0.00     0.010 A 
ENDBRANCH  38  39
ENDBRANCH  13  38
TORSDOF 8
ENDMDL
