MODEL 1
REMARK VINA RESULT: -7.415897195      0.000      0.000
REMARK  11 active torsions:
REMARK  status: ('A' for Active; 'I' for Inactive)
REMARK    1  A    between atoms: N1_2  and  C2_4 
REMARK    2  A    between atoms: C3_8  and  N3_9 
REMARK    3  A    between atoms: N3_9  and  C4_11 
REMARK    4  A    between atoms: C4_11  and  C5_12 
REMARK    5  A    between atoms: C5_12  and  N4_13 
REMARK    6  A    between atoms: C5_12  and  N5_16 
REMARK    7  A    between atoms: N5_16  and  C6_18 
REMARK    8  A    between atoms: C6_18  and  C7_19 
REMARK    9  A    between atoms: C7_19  and  C8_20 
REMARK   10  A    between atoms: C9_23  and  N7_24 
REMARK   11  A    between atoms: N7_24  and  C10_26 
ROOT
HETATM    1  N5  UNL     1      43.783  -0.220  32.214  1.00  0.00    -0.378 N 
ATOM      2  H5  UNL     1      44.454   0.212  31.579  1.00  0.00     0.160 HD
ENDROOT
BRANCH   1   3
HETATM    3  C5  UNL     1      42.881  -1.221  31.719  1.00  0.00     0.088 C 
BRANCH   3   4
HETATM    4  C4  UNL     1      42.094  -0.945  30.487  1.00  0.00     0.197 C 
BRANCH   4   5
HETATM    5  N3  UNL     1      42.933  -0.779  29.312  1.00  0.00    -0.362 N 
ATOM      6  H3  UNL     1      43.374   0.117  29.111  1.00  0.00     0.162 HD
BRANCH   5   7
HETATM    7  C3  UNL     1      43.114  -1.812  28.510  1.00  0.00     0.176 A 
HETATM    8  S1  UNL     1      42.470  -3.383  28.636  1.00  0.00     0.039 SA
HETATM    9  N2  UNL     1      43.170  -4.047  27.257  1.00  0.00    -0.157 N 
HETATM   10  C2  UNL     1      43.871  -3.023  26.762  1.00  0.00     0.686 A 
ATOM     11  H2  UNL     1      43.081  -4.995  26.890  1.00  0.00     0.193 HD
HETATM   12  N9  UNL     1      43.842  -1.887  27.400  1.00  0.00    -0.169 N 
ATOM     13  H9  UNL     1      44.363  -1.079  27.059  1.00  0.00     0.186 HD
BRANCH  10  14
HETATM   14  N1  UNL     1      44.564  -3.188  25.645  1.00  0.00    -0.230 N 
HETATM   15  C1  UNL     1      43.962  -3.617  24.432  1.00  0.00     0.165 C 
ATOM     16  H1  UNL     1      45.566  -2.999  25.657  1.00  0.00     0.177 HD
ENDBRANCH  10  14
ENDBRANCH   5   7
ENDBRANCH   4   5
ENDBRANCH   3   4
BRANCH   3  17
HETATM   17  N4  UNL     1      42.726  -2.347  32.298  1.00  0.00    -0.388 N 
ATOM     18  H42 UNL     1      42.733  -2.443  33.313  1.00  0.00     0.157 HD
ATOM     19  H41 UNL     1      42.591  -3.176  31.720  1.00  0.00     0.157 HD
ENDBRANCH   3  17
ENDBRANCH   1   3
BRANCH   1  20
HETATM   20  C6  UNL     1      43.753   0.183  33.595  1.00  0.00     0.127 C 
BRANCH  20  21
HETATM   21  C7  UNL     1      44.431   1.545  33.795  1.00  0.00     0.080 C 
BRANCH  21  22
HETATM   22  C8  UNL     1      45.318   1.431  34.979  1.00  0.00     0.062 A 
HETATM   23  N6  UNL     1      46.353   0.614  35.178  1.00  0.00    -0.193 N 
HETATM   24  C9  UNL     1      46.892   0.839  36.384  1.00  0.00     0.679 A 
ATOM     25  H6  UNL     1      46.686  -0.080  34.509  1.00  0.00     0.184 HD
HETATM   26  N8  UNL     1      46.162   1.825  36.939  1.00  0.00    -0.183 N 
HETATM   27  C15 UNL     1      45.192   2.213  36.114  1.00  0.00     0.119 A 
ATOM     28  H8  UNL     1      46.328   2.220  37.864  1.00  0.00     0.185 HD
HETATM   29 BR1  UNL     1      43.889   3.562  36.403  1.00  0.00    -0.029 Br
BRANCH  24  30
HETATM   30  N7  UNL     1      47.907   0.243  36.922  1.00  0.00    -0.221 N 
ATOM     31  H7  UNL     1      48.310   0.578  37.797  1.00  0.00     0.178 HD
BRANCH  30  32
HETATM   32  C10 UNL     1      48.456  -0.918  36.244  1.00  0.00     0.099 C 
HETATM   33  C11 UNL     1      48.419  -2.138  37.099  1.00  0.00     0.026 C 
HETATM   34  C12 UNL     1      49.742  -2.199  37.778  1.00  0.00     0.002 C 
HETATM   35  C13 UNL     1      50.665  -1.255  37.081  1.00  0.00     0.002 C 
HETATM   36  C14 UNL     1      49.898  -0.661  35.927  1.00  0.00     0.026 C 
ENDBRANCH  30  32
ENDBRANCH  24  30
ENDBRANCH  21  22
ENDBRANCH  20  21
ENDBRANCH   1  20
TORSDOF 11
ENDMDL
MODEL 2
REMARK VINA RESULT: -7.329165400      5.758      9.635
REMARK  11 active torsions:
REMARK  status: ('A' for Active; 'I' for Inactive)
REMARK    1  A    between atoms: N1_2  and  C2_4 
REMARK    2  A    between atoms: C3_8  and  N3_9 
REMARK    3  A    between atoms: N3_9  and  C4_11 
REMARK    4  A    between atoms: C4_11  and  C5_12 
REMARK    5  A    between atoms: C5_12  and  N4_13 
REMARK    6  A    between atoms: C5_12  and  N5_16 
REMARK    7  A    between atoms: N5_16  and  C6_18 
REMARK    8  A    between atoms: C6_18  and  C7_19 
REMARK    9  A    between atoms: C7_19  and  C8_20 
REMARK   10  A    between atoms: C9_23  and  N7_24 
REMARK   11  A    between atoms: N7_24  and  C10_26 
ROOT
HETATM    1  N5  UNL     1      40.765  -0.640  32.360  1.00  0.00    -0.378 N 
ATOM      2  H5  UNL     1      41.401  -0.307  33.084  1.00  0.00     0.160 HD
ENDROOT
BRANCH   1   3
HETATM    3  C5  UNL     1      41.188  -0.632  30.987  1.00  0.00     0.088 C 
BRANCH   3   4
HETATM    4  C4  UNL     1      42.568  -1.073  30.649  1.00  0.00     0.197 C 
BRANCH   4   5
HETATM    5  N3  UNL     1      42.832  -1.041  29.220  1.00  0.00    -0.362 N 
ATOM      6  H3  UNL     1      42.950  -0.153  28.734  1.00  0.00     0.162 HD
BRANCH   5   7
HETATM    7  C3  UNL     1      42.918  -2.183  28.564  1.00  0.00     0.176 A 
HETATM    8  S1  UNL     1      42.122  -3.654  28.881  1.00  0.00     0.039 SA
HETATM    9  N2  UNL     1      42.765  -4.559  27.615  1.00  0.00    -0.157 N 
HETATM   10  C2  UNL     1      43.567  -3.681  27.006  1.00  0.00     0.686 A 
ATOM     11  H2  UNL     1      42.586  -5.534  27.374  1.00  0.00     0.193 HD
HETATM   12  N9  UNL     1      43.644  -2.473  27.490  1.00  0.00    -0.169 N 
ATOM     13  H9  UNL     1      44.243  -1.771  27.057  1.00  0.00     0.186 HD
BRANCH  10  14
HETATM   14  N1  UNL     1      44.249  -4.058  25.935  1.00  0.00    -0.230 N 
HETATM   15  C1  UNL     1      44.047  -3.470  24.657  1.00  0.00     0.165 C 
ATOM     16  H1  UNL     1      44.946  -4.796  26.031  1.00  0.00     0.177 HD
ENDBRANCH  10  14
ENDBRANCH   5   7
ENDBRANCH   4   5
ENDBRANCH   3   4
BRANCH   3  17
HETATM   17  N4  UNL     1      40.421  -0.259  30.039  1.00  0.00    -0.388 N 
ATOM     18  H42 UNL     1      40.395  -0.736  29.139  1.00  0.00     0.157 HD
ATOM     19  H41 UNL     1      39.814   0.547  30.194  1.00  0.00     0.157 HD
ENDBRANCH   3  17
ENDBRANCH   1   3
BRANCH   1  20
HETATM   20  C6  UNL     1      39.456  -1.111  32.726  1.00  0.00     0.127 C 
BRANCH  20  21
HETATM   21  C7  UNL     1      38.552   0.044  33.176  1.00  0.00     0.080 C 
BRANCH  21  22
HETATM   22  C8  UNL     1      37.278  -0.067  32.422  1.00  0.00     0.062 A 
HETATM   23  N6  UNL     1      36.948  -0.921  31.453  1.00  0.00    -0.193 N 
HETATM   24  C9  UNL     1      35.694  -0.689  31.042  1.00  0.00     0.679 A 
ATOM     25  H6  UNL     1      37.561  -1.645  31.078  1.00  0.00     0.184 HD
HETATM   26  N8  UNL     1      35.245   0.340  31.785  1.00  0.00    -0.183 N 
HETATM   27  C15 UNL     1      36.182   0.748  32.639  1.00  0.00     0.119 A 
ATOM     28  H8  UNL     1      34.315   0.751  31.705  1.00  0.00     0.185 HD
HETATM   29 BR1  UNL     1      36.067   2.155  33.907  1.00  0.00    -0.029 Br
BRANCH  24  30
HETATM   30  N7  UNL     1      35.032  -1.315  30.123  1.00  0.00    -0.221 N 
ATOM     31  H7  UNL     1      34.103  -1.692  30.309  1.00  0.00     0.178 HD
BRANCH  30  32
HETATM   32  C10 UNL     1      35.651  -1.466  28.817  1.00  0.00     0.099 C 
HETATM   33  C11 UNL     1      34.811  -0.891  27.729  1.00  0.00     0.026 C 
HETATM   34  C12 UNL     1      33.990  -2.019  27.211  1.00  0.00     0.002 C 
HETATM   35  C13 UNL     1      34.575  -3.294  27.725  1.00  0.00     0.002 C 
HETATM   36  C14 UNL     1      35.803  -2.925  28.516  1.00  0.00     0.026 C 
ENDBRANCH  30  32
ENDBRANCH  24  30
ENDBRANCH  21  22
ENDBRANCH  20  21
ENDBRANCH   1  20
TORSDOF 11
ENDMDL
MODEL 3
REMARK VINA RESULT: -7.271026344      0.952      1.082
REMARK  11 active torsions:
REMARK  status: ('A' for Active; 'I' for Inactive)
REMARK    1  A    between atoms: N1_2  and  C2_4 
REMARK    2  A    between atoms: C3_8  and  N3_9 
REMARK    3  A    between atoms: N3_9  and  C4_11 
REMARK    4  A    between atoms: C4_11  and  C5_12 
REMARK    5  A    between atoms: C5_12  and  N4_13 
REMARK    6  A    between atoms: C5_12  and  N5_16 
REMARK    7  A    between atoms: N5_16  and  C6_18 
REMARK    8  A    between atoms: C6_18  and  C7_19 
REMARK    9  A    between atoms: C7_19  and  C8_20 
REMARK   10  A    between atoms: C9_23  and  N7_24 
REMARK   11  A    between atoms: N7_24  and  C10_26 
ROOT
HETATM    1  N5  UNL     1      43.506  -0.548  31.978  1.00  0.00    -0.378 N 
ATOM      2  H5  UNL     1      43.877   0.026  31.221  1.00  0.00     0.160 HD
ENDROOT
BRANCH   1   3
HETATM    3  C5  UNL     1      42.828  -1.776  31.670  1.00  0.00     0.088 C 
BRANCH   3   4
HETATM    4  C4  UNL     1      42.330  -2.003  30.287  1.00  0.00     0.197 C 
BRANCH   4   5
HETATM    5  N3  UNL     1      42.842  -1.027  29.340  1.00  0.00    -0.362 N 
ATOM      6  H3  UNL     1      42.696  -0.030  29.491  1.00  0.00     0.162 HD
BRANCH   5   7
HETATM    7  C3  UNL     1      43.499  -1.457  28.278  1.00  0.00     0.176 A 
HETATM    8  S1  UNL     1      44.673  -0.644  27.353  1.00  0.00     0.039 SA
HETATM    9  N2  UNL     1      44.989  -1.860  26.232  1.00  0.00    -0.157 N 
HETATM   10  C2  UNL     1      44.170  -2.840  26.626  1.00  0.00     0.686 A 
ATOM     11  H2  UNL     1      45.642  -1.851  25.448  1.00  0.00     0.193 HD
HETATM   12  N9  UNL     1      43.413  -2.634  27.667  1.00  0.00    -0.169 N 
ATOM     13  H9  UNL     1      42.773  -3.354  28.002  1.00  0.00     0.186 HD
BRANCH  10  14
HETATM   14  N1  UNL     1      44.156  -3.984  25.958  1.00  0.00    -0.230 N 
HETATM   15  C1  UNL     1      43.809  -4.057  24.581  1.00  0.00     0.165 C 
ATOM     16  H1  UNL     1      44.403  -4.843  26.449  1.00  0.00     0.177 HD
ENDBRANCH  10  14
ENDBRANCH   5   7
ENDBRANCH   4   5
ENDBRANCH   3   4
BRANCH   3  17
HETATM   17  N4  UNL     1      42.635  -2.685  32.542  1.00  0.00    -0.388 N 
ATOM     18  H42 UNL     1      41.885  -2.630  33.232  1.00  0.00     0.157 HD
ATOM     19  H41 UNL     1      43.255  -3.495  32.545  1.00  0.00     0.157 HD
ENDBRANCH   3  17
ENDBRANCH   1   3
BRANCH   1  20
HETATM   20  C6  UNL     1      43.668  -0.115  33.341  1.00  0.00     0.127 C 
BRANCH  20  21
HETATM   21  C7  UNL     1      44.375   1.244  33.416  1.00  0.00     0.080 C 
BRANCH  21  22
HETATM   22  C8  UNL     1      45.289   1.206  34.585  1.00  0.00     0.062 A 
HETATM   23  N6  UNL     1      46.461   0.583  34.715  1.00  0.00    -0.193 N 
HETATM   24  C9  UNL     1      46.971   0.811  35.933  1.00  0.00     0.679 A 
ATOM     25  H6  UNL     1      46.905   0.017  33.992  1.00  0.00     0.184 HD
HETATM   26  N8  UNL     1      46.080   1.597  36.567  1.00  0.00    -0.183 N 
HETATM   27  C15 UNL     1      45.041   1.861  35.778  1.00  0.00     0.119 A 
ATOM     28  H8  UNL     1      46.188   1.944  37.520  1.00  0.00     0.185 HD
HETATM   29 BR1  UNL     1      43.516   2.917  36.178  1.00  0.00    -0.029 Br
BRANCH  24  30
HETATM   30  N7  UNL     1      48.088   0.374  36.419  1.00  0.00    -0.221 N 
ATOM     31  H7  UNL     1      48.585   0.894  37.143  1.00  0.00     0.178 HD
BRANCH  30  32
HETATM   32  C10 UNL     1      48.615  -0.878  35.904  1.00  0.00     0.099 C 
HETATM   33  C11 UNL     1      48.291  -2.030  36.792  1.00  0.00     0.026 C 
HETATM   34  C12 UNL     1      49.458  -2.183  37.701  1.00  0.00     0.002 C 
HETATM   35  C13 UNL     1      50.590  -1.384  37.143  1.00  0.00     0.002 C 
HETATM   36  C14 UNL     1      50.109  -0.790  35.844  1.00  0.00     0.026 C 
ENDBRANCH  30  32
ENDBRANCH  24  30
ENDBRANCH  21  22
ENDBRANCH  20  21
ENDBRANCH   1  20
TORSDOF 11
ENDMDL
MODEL 4
REMARK VINA RESULT: -7.176800994      1.059      1.221
REMARK  11 active torsions:
REMARK  status: ('A' for Active; 'I' for Inactive)
REMARK    1  A    between atoms: N1_2  and  C2_4 
REMARK    2  A    between atoms: C3_8  and  N3_9 
REMARK    3  A    between atoms: N3_9  and  C4_11 
REMARK    4  A    between atoms: C4_11  and  C5_12 
REMARK    5  A    between atoms: C5_12  and  N4_13 
REMARK    6  A    between atoms: C5_12  and  N5_16 
REMARK    7  A    between atoms: N5_16  and  C6_18 
REMARK    8  A    between atoms: C6_18  and  C7_19 
REMARK    9  A    between atoms: C7_19  and  C8_20 
REMARK   10  A    between atoms: C9_23  and  N7_24 
REMARK   11  A    between atoms: N7_24  and  C10_26 
ROOT
HETATM    1  N5  UNL     1      41.876  -0.444  32.987  1.00  0.00    -0.378 N 
ATOM      2  H5  UNL     1      40.875  -0.265  32.915  1.00  0.00     0.160 HD
ENDROOT
BRANCH   1   3
HETATM    3  C5  UNL     1      42.652  -0.630  31.793  1.00  0.00     0.088 C 
BRANCH   3   4
HETATM    4  C4  UNL     1      41.952  -0.834  30.497  1.00  0.00     0.197 C 
BRANCH   4   5
HETATM    5  N3  UNL     1      42.871  -0.949  29.376  1.00  0.00    -0.362 N 
ATOM      6  H3  UNL     1      43.467  -0.166  29.111  1.00  0.00     0.162 HD
BRANCH   5   7
HETATM    7  C3  UNL     1      42.919  -2.087  28.709  1.00  0.00     0.176 A 
HETATM    8  S1  UNL     1      42.014  -3.506  28.959  1.00  0.00     0.039 SA
HETATM    9  N2  UNL     1      42.666  -4.437  27.717  1.00  0.00    -0.157 N 
HETATM   10  C2  UNL     1      43.556  -3.606  27.166  1.00  0.00     0.686 A 
ATOM     11  H2  UNL     1      42.439  -5.395  27.451  1.00  0.00     0.193 HD
HETATM   12  N9  UNL     1      43.683  -2.411  27.671  1.00  0.00    -0.169 N 
ATOM     13  H9  UNL     1      44.350  -1.744  27.282  1.00  0.00     0.186 HD
BRANCH  10  14
HETATM   14  N1  UNL     1      44.271  -4.014  26.128  1.00  0.00    -0.230 N 
HETATM   15  C1  UNL     1      44.006  -3.579  24.801  1.00  0.00     0.165 C 
ATOM     16  H1  UNL     1      45.041  -4.663  26.288  1.00  0.00     0.177 HD
ENDBRANCH  10  14
ENDBRANCH   5   7
ENDBRANCH   4   5
ENDBRANCH   3   4
BRANCH   3  17
HETATM   17  N4  UNL     1      43.927  -0.628  31.801  1.00  0.00    -0.388 N 
ATOM     18  H42 UNL     1      44.477  -1.245  31.204  1.00  0.00     0.157 HD
ATOM     19  H41 UNL     1      44.408   0.016  32.429  1.00  0.00     0.157 HD
ENDBRANCH   3  17
ENDBRANCH   1   3
BRANCH   1  20
HETATM   20  C6  UNL     1      42.493  -0.507  34.286  1.00  0.00     0.127 C 
BRANCH  20  21
HETATM   21  C7  UNL     1      42.654   0.892  34.896  1.00  0.00     0.080 C 
BRANCH  21  22
HETATM   22  C8  UNL     1      44.078   1.047  35.286  1.00  0.00     0.062 A 
HETATM   23  N6  UNL     1      45.096   0.208  35.097  1.00  0.00    -0.193 N 
HETATM   24  C9  UNL     1      46.225   0.733  35.594  1.00  0.00     0.679 A 
ATOM     25  H6  UNL     1      45.027  -0.701  34.640  1.00  0.00     0.184 HD
HETATM   26  N8  UNL     1      45.882   1.932  36.104  1.00  0.00    -0.183 N 
HETATM   27  C15 UNL     1      44.581   2.160  35.936  1.00  0.00     0.119 A 
ATOM     28  H8  UNL     1      46.530   2.576  36.557  1.00  0.00     0.185 HD
HETATM   29 BR1  UNL     1      43.590   3.689  36.466  1.00  0.00    -0.029 Br
BRANCH  24  30
HETATM   30  N7  UNL     1      47.409   0.212  35.593  1.00  0.00    -0.221 N 
ATOM     31  H7  UNL     1      48.131   0.550  34.956  1.00  0.00     0.178 HD
BRANCH  30  32
HETATM   32  C10 UNL     1      47.682  -0.867  36.526  1.00  0.00     0.099 C 
HETATM   33  C11 UNL     1      48.138  -0.361  37.852  1.00  0.00     0.026 C 
HETATM   34  C12 UNL     1      49.625  -0.349  37.793  1.00  0.00     0.002 C 
HETATM   35  C13 UNL     1      50.049  -1.156  36.610  1.00  0.00     0.002 C 
HETATM   36  C14 UNL     1      48.795  -1.710  35.984  1.00  0.00     0.026 C 
ENDBRANCH  30  32
ENDBRANCH  24  30
ENDBRANCH  21  22
ENDBRANCH  20  21
ENDBRANCH   1  20
TORSDOF 11
ENDMDL
MODEL 5
REMARK VINA RESULT: -7.103071118      6.714     10.192
REMARK  11 active torsions:
REMARK  status: ('A' for Active; 'I' for Inactive)
REMARK    1  A    between atoms: N1_2  and  C2_4 
REMARK    2  A    between atoms: C3_8  and  N3_9 
REMARK    3  A    between atoms: N3_9  and  C4_11 
REMARK    4  A    between atoms: C4_11  and  C5_12 
REMARK    5  A    between atoms: C5_12  and  N4_13 
REMARK    6  A    between atoms: C5_12  and  N5_16 
REMARK    7  A    between atoms: N5_16  and  C6_18 
REMARK    8  A    between atoms: C6_18  and  C7_19 
REMARK    9  A    between atoms: C7_19  and  C8_20 
REMARK   10  A    between atoms: C9_23  and  N7_24 
REMARK   11  A    between atoms: N7_24  and  C10_26 
ROOT
HETATM    1  N5  UNL     1      40.319  -2.013  31.652  1.00  0.00    -0.378 N 
ATOM      2  H5  UNL     1      41.059  -2.160  32.339  1.00  0.00     0.160 HD
ENDROOT
BRANCH   1   3
HETATM    3  C5  UNL     1      40.661  -1.619  30.315  1.00  0.00     0.088 C 
BRANCH   3   4
HETATM    4  C4  UNL     1      40.918  -2.668  29.292  1.00  0.00     0.197 C 
BRANCH   4   5
HETATM    5  N3  UNL     1      42.297  -3.127  29.295  1.00  0.00    -0.362 N 
ATOM      6  H3  UNL     1      42.613  -3.818  29.976  1.00  0.00     0.162 HD
BRANCH   5   7
HETATM    7  C3  UNL     1      43.133  -2.634  28.400  1.00  0.00     0.176 A 
HETATM    8  S1  UNL     1      44.100  -1.238  28.504  1.00  0.00     0.039 SA
HETATM    9  N2  UNL     1      44.837  -1.336  26.993  1.00  0.00    -0.157 N 
HETATM   10  C2  UNL     1      44.300  -2.446  26.478  1.00  0.00     0.686 A 
ATOM     11  H2  UNL     1      45.523  -0.707  26.576  1.00  0.00     0.193 HD
HETATM   12  N9  UNL     1      43.433  -3.105  27.194  1.00  0.00    -0.169 N 
ATOM     13  H9  UNL     1      42.998  -3.957  26.840  1.00  0.00     0.186 HD
BRANCH  10  14
HETATM   14  N1  UNL     1      44.664  -2.844  25.268  1.00  0.00    -0.230 N 
HETATM   15  C1  UNL     1      43.881  -3.742  24.494  1.00  0.00     0.165 C 
ATOM     16  H1  UNL     1      45.538  -2.491  24.877  1.00  0.00     0.177 HD
ENDBRANCH  10  14
ENDBRANCH   5   7
ENDBRANCH   4   5
ENDBRANCH   3   4
BRANCH   3  17
HETATM   17  N4  UNL     1      40.754  -0.396  29.966  1.00  0.00    -0.388 N 
ATOM     18  H42 UNL     1      41.013  -0.116  29.020  1.00  0.00     0.157 HD
ATOM     19  H41 UNL     1      40.561   0.324  30.663  1.00  0.00     0.157 HD
ENDBRANCH   3  17
ENDBRANCH   1   3
BRANCH   1  20
HETATM   20  C6  UNL     1      38.946  -2.202  32.038  1.00  0.00     0.127 C 
BRANCH  20  21
HETATM   21  C7  UNL     1      38.335  -0.906  32.585  1.00  0.00     0.080 C 
BRANCH  21  22
HETATM   22  C8  UNL     1      37.033  -0.704  31.901  1.00  0.00     0.062 A 
HETATM   23  N6  UNL     1      36.541  -1.329  30.832  1.00  0.00    -0.193 N 
HETATM   24  C9  UNL     1      35.322  -0.851  30.539  1.00  0.00     0.679 A 
ATOM     25  H6  UNL     1      37.020  -2.063  30.311  1.00  0.00     0.184 HD
HETATM   26  N8  UNL     1      35.065   0.096  31.461  1.00  0.00    -0.183 N 
HETATM   27  C15 UNL     1      36.083   0.217  32.310  1.00  0.00     0.119 A 
ATOM     28  H8  UNL     1      34.207   0.646  31.503  1.00  0.00     0.185 HD
HETATM   29 BR1  UNL     1      36.233   1.397  33.788  1.00  0.00    -0.029 Br
BRANCH  24  30
HETATM   30  N7  UNL     1      34.539  -1.214  29.575  1.00  0.00    -0.221 N 
ATOM     31  H7  UNL     1      33.542  -1.358  29.734  1.00  0.00     0.178 HD
BRANCH  30  32
HETATM   32  C10 UNL     1      35.121  -1.411  28.259  1.00  0.00     0.099 C 
HETATM   33  C11 UNL     1      34.550  -0.477  27.248  1.00  0.00     0.026 C 
HETATM   34  C12 UNL     1      33.427  -1.213  26.604  1.00  0.00     0.002 C 
HETATM   35  C13 UNL     1      33.552  -2.657  26.964  1.00  0.00     0.002 C 
HETATM   36  C14 UNL     1      34.806  -2.797  27.788  1.00  0.00     0.026 C 
ENDBRANCH  30  32
ENDBRANCH  24  30
ENDBRANCH  21  22
ENDBRANCH  20  21
ENDBRANCH   1  20
TORSDOF 11
ENDMDL
