MODEL 1
REMARK VINA RESULT: -6.799226143      0.000      0.000
REMARK  8 active torsions:
REMARK  status: ('A' for Active; 'I' for Inactive)
REMARK    1  A    between atoms: C2_2  and  C3_3 
REMARK    2  A    between atoms: C5_5  and  C6_6 
REMARK    3  A    between atoms: C6_6  and  N1_7 
REMARK    4  A    between atoms: N1_7  and  C7_9 
REMARK    5  A    between atoms: N3_17  and  C12_19 
REMARK    6  A    between atoms: C12_19  and  C13_20 
REMARK    7  A    between atoms: C12_19  and  C15_22 
REMARK    8  A    between atoms: C15_22  and  O1_23 
REMARK       I    between atoms: N5_27  and  C16_28 
REMARK       I    between atoms: C16_28  and  N7_32 
ROOT
HETATM    1  C3  UNL     1      46.012   0.018  36.086  1.00  0.00     0.006 C 
HETATM    2  C4  UNL     1      45.583   0.912  34.942  1.00  0.00     0.033 C 
HETATM    3  C5  UNL     1      44.187   1.402  35.307  1.00  0.00     0.120 C 
HETATM    4  N5  UNL     1      43.973   0.909  36.650  1.00  0.00    -0.211 N 
HETATM    5  C16 UNL     1      43.134   1.566  37.591  1.00  0.00     0.683 C 
HETATM    6  N6  UNL     1      42.944   1.023  38.743  1.00  0.00    -0.234 N 
ATOM      7  H61 UNL     1      42.342   1.494  39.418  1.00  0.00     0.174 HD
ATOM      8  H62 UNL     1      43.394   0.135  38.964  1.00  0.00     0.174 HD
HETATM    9  N7  UNL     1      42.509   2.799  37.283  1.00  0.00    -0.126 N 
ATOM     10  H7  UNL     1      41.511   2.820  37.071  1.00  0.00     0.197 HD
HETATM   11  C17 UNL     1      43.249   3.992  37.268  1.00  0.00     0.196 C 
HETATM   12  N8  UNL     1      43.855   4.996  37.271  1.00  0.00    -0.171 NA
HETATM   13  C18 UNL     1      44.743  -0.284  36.771  1.00  0.00     0.146 C 
ENDROOT
BRANCH   3  14
HETATM   14  C6  UNL     1      43.225   0.663  34.401  1.00  0.00     0.164 C 
BRANCH  14  15
HETATM   15  N1  UNL     1      43.836   0.288  33.143  1.00  0.00    -0.224 N 
ATOM     16  H1  UNL     1      44.800   0.539  32.922  1.00  0.00     0.177 HD
BRANCH  15  17
HETATM   17  C7  UNL     1      43.105  -0.379  32.312  1.00  0.00     0.680 A 
HETATM   18  N2  UNL     1      41.808  -0.517  32.637  1.00  0.00    -0.195 N 
HETATM   19  C8  UNL     1      40.970  -1.203  31.824  1.00  0.00     0.043 A 
ATOM     20  H2  UNL     1      41.455  -0.104  33.500  1.00  0.00     0.184 HD
HETATM   21  C9  UNL     1      39.529  -1.369  32.160  1.00  0.00     0.070 C 
HETATM   22  C10 UNL     1      41.465  -1.765  30.643  1.00  0.00     0.077 A 
HETATM   23 BR1  UNL     1      40.192  -2.704  29.580  1.00  0.00    -0.045 Br
HETATM   24  C11 UNL     1      42.784  -1.625  30.313  1.00  0.00     0.136 A 
HETATM   25  N3  UNL     1      43.308  -2.081  29.304  1.00  0.00    -0.368 N 
HETATM   26  N4  UNL     1      43.575  -0.916  31.186  1.00  0.00    -0.176 N 
ATOM     27  H3  UNL     1      44.298  -1.834  29.299  1.00  0.00     0.161 HD
ATOM     28  H4  UNL     1      44.563  -0.796  30.963  1.00  0.00     0.186 HD
BRANCH  25  29
HETATM   29  C12 UNL     1      43.013  -2.825  28.156  1.00  0.00     0.106 C 
BRANCH  29  30
HETATM   30  C13 UNL     1      43.911  -2.502  26.984  1.00  0.00     0.023 C 
HETATM   31  C14 UNL     1      44.224  -1.033  26.986  1.00  0.00     0.007 C 
ENDBRANCH  29  30
BRANCH  29  32
HETATM   32  C15 UNL     1      43.339  -4.295  28.547  1.00  0.00     0.189 C 
BRANCH  32  33
HETATM   33  O1  UNL     1      42.399  -5.193  28.134  1.00  0.00    -0.399 OA
ATOM     34  H1  UNL     1      42.160  -5.828  28.799  1.00  0.00     0.209 HD
ENDBRANCH  32  33
ENDBRANCH  29  32
ENDBRANCH  25  29
ENDBRANCH  15  17
ENDBRANCH  14  15
ENDBRANCH   3  14
BRANCH   1  35
HETATM   35  C2  UNL     1      47.054   0.696  36.906  1.00  0.00     0.002 C 
HETATM   36  C1  UNL     1      48.398   0.088  36.884  1.00  0.00     0.005 C 
ENDBRANCH   1  35
TORSDOF 8
ENDMDL
MODEL 2
REMARK VINA RESULT: -6.772581935      6.466      9.637
REMARK  8 active torsions:
REMARK  status: ('A' for Active; 'I' for Inactive)
REMARK    1  A    between atoms: C2_2  and  C3_3 
REMARK    2  A    between atoms: C5_5  and  C6_6 
REMARK    3  A    between atoms: C6_6  and  N1_7 
REMARK    4  A    between atoms: N1_7  and  C7_9 
REMARK    5  A    between atoms: N3_17  and  C12_19 
REMARK    6  A    between atoms: C12_19  and  C13_20 
REMARK    7  A    between atoms: C12_19  and  C15_22 
REMARK    8  A    between atoms: C15_22  and  O1_23 
REMARK       I    between atoms: N5_27  and  C16_28 
REMARK       I    between atoms: C16_28  and  N7_32 
ROOT
HETATM    1  C3  UNL     1      34.571  -1.359  29.443  1.00  0.00     0.006 C 
HETATM    2  C4  UNL     1      36.029  -1.519  29.068  1.00  0.00     0.033 C 
HETATM    3  C5  UNL     1      36.411  -2.929  29.501  1.00  0.00     0.120 C 
HETATM    4  N5  UNL     1      35.164  -3.521  29.936  1.00  0.00    -0.211 N 
HETATM    5  C16 UNL     1      34.903  -4.917  29.863  1.00  0.00     0.683 C 
HETATM    6  N6  UNL     1      33.794  -5.369  30.335  1.00  0.00    -0.234 N 
ATOM      7  H61 UNL     1      33.607  -6.370  30.282  1.00  0.00     0.174 HD
ATOM      8  H62 UNL     1      33.122  -4.726  30.752  1.00  0.00     0.174 HD
HETATM    9  N7  UNL     1      35.838  -5.810  29.284  1.00  0.00    -0.126 N 
ATOM     10  H7  UNL     1      36.400  -6.412  29.885  1.00  0.00     0.197 HD
HETATM   11  C17 UNL     1      35.997  -5.873  27.890  1.00  0.00     0.196 C 
HETATM   12  N8  UNL     1      36.125  -5.946  26.727  1.00  0.00    -0.171 NA
HETATM   13  C18 UNL     1      34.350  -2.451  30.408  1.00  0.00     0.146 C 
ENDROOT
BRANCH   3  14
HETATM   14  C6  UNL     1      37.284  -2.777  30.729  1.00  0.00     0.164 C 
BRANCH  14  15
HETATM   15  N1  UNL     1      38.451  -1.957  30.472  1.00  0.00    -0.224 N 
ATOM     16  H1  UNL     1      38.382  -0.943  30.386  1.00  0.00     0.177 HD
BRANCH  15  17
HETATM   17  C7  UNL     1      39.583  -2.569  30.357  1.00  0.00     0.680 A 
HETATM   18  N2  UNL     1      39.794  -3.595  31.200  1.00  0.00    -0.195 N 
HETATM   19  C8  UNL     1      40.955  -4.292  31.149  1.00  0.00     0.043 A 
ATOM     20  H2  UNL     1      39.078  -3.849  31.880  1.00  0.00     0.184 HD
HETATM   21  C9  UNL     1      41.213  -5.433  32.070  1.00  0.00     0.070 C 
HETATM   22  C10 UNL     1      41.930  -3.936  30.213  1.00  0.00     0.077 A 
HETATM   23 BR1  UNL     1      43.518  -4.988  30.236  1.00  0.00    -0.045 Br
HETATM   24  C11 UNL     1      41.715  -2.892  29.356  1.00  0.00     0.136 A 
HETATM   25  N3  UNL     1      42.508  -2.506  28.506  1.00  0.00    -0.368 N 
HETATM   26  N4  UNL     1      40.514  -2.231  29.465  1.00  0.00    -0.176 N 
ATOM     27  H3  UNL     1      42.103  -1.716  28.005  1.00  0.00     0.161 HD
ATOM     28  H4  UNL     1      40.328  -1.449  28.838  1.00  0.00     0.186 HD
BRANCH  25  29
HETATM   29  C12 UNL     1      43.779  -2.780  27.987  1.00  0.00     0.106 C 
BRANCH  29  30
HETATM   30  C13 UNL     1      43.752  -3.688  26.780  1.00  0.00     0.023 C 
HETATM   31  C14 UNL     1      44.187  -2.918  25.566  1.00  0.00     0.007 C 
ENDBRANCH  29  30
BRANCH  29  32
HETATM   32  C15 UNL     1      44.296  -1.405  27.473  1.00  0.00     0.189 C 
BRANCH  32  33
HETATM   33  O1  UNL     1      43.878  -0.347  28.225  1.00  0.00    -0.399 OA
ATOM     34  H1  UNL     1      44.452  -0.148  28.954  1.00  0.00     0.209 HD
ENDBRANCH  32  33
ENDBRANCH  29  32
ENDBRANCH  25  29
ENDBRANCH  15  17
ENDBRANCH  14  15
ENDBRANCH   3  14
BRANCH   1  35
HETATM   35  C2  UNL     1      33.720  -1.381  28.222  1.00  0.00     0.002 C 
HETATM   36  C1  UNL     1      34.266  -0.698  27.034  1.00  0.00     0.005 C 
ENDBRANCH   1  35
TORSDOF 8
ENDMDL
MODEL 3
REMARK VINA RESULT: -6.697978970      5.640      8.263
REMARK  8 active torsions:
REMARK  status: ('A' for Active; 'I' for Inactive)
REMARK    1  A    between atoms: C2_2  and  C3_3 
REMARK    2  A    between atoms: C5_5  and  C6_6 
REMARK    3  A    between atoms: C6_6  and  N1_7 
REMARK    4  A    between atoms: N1_7  and  C7_9 
REMARK    5  A    between atoms: N3_17  and  C12_19 
REMARK    6  A    between atoms: C12_19  and  C13_20 
REMARK    7  A    between atoms: C12_19  and  C15_22 
REMARK    8  A    between atoms: C15_22  and  O1_23 
REMARK       I    between atoms: N5_27  and  C16_28 
REMARK       I    between atoms: C16_28  and  N7_32 
ROOT
HETATM    1  C3  UNL     1      42.567  -4.885  30.763  1.00  0.00     0.006 C 
HETATM    2  C4  UNL     1      41.835  -4.793  29.441  1.00  0.00     0.033 C 
HETATM    3  C5  UNL     1      41.803  -3.310  29.093  1.00  0.00     0.120 C 
HETATM    4  N5  UNL     1      42.619  -2.685  30.111  1.00  0.00    -0.211 N 
HETATM    5  C16 UNL     1      43.345  -1.482  29.891  1.00  0.00     0.683 C 
HETATM    6  N6  UNL     1      43.992  -0.956  30.872  1.00  0.00    -0.234 N 
ATOM      7  H61 UNL     1      44.512  -0.093  30.714  1.00  0.00     0.174 HD
ATOM      8  H62 UNL     1      43.975  -1.404  31.788  1.00  0.00     0.174 HD
HETATM    9  N7  UNL     1      43.367  -0.860  28.619  1.00  0.00    -0.126 N 
ATOM     10  H7  UNL     1      42.817  -0.016  28.460  1.00  0.00     0.197 HD
HETATM   11  C17 UNL     1      44.140  -1.394  27.575  1.00  0.00     0.196 C 
HETATM   12  N8  UNL     1      44.796  -1.822  26.703  1.00  0.00    -0.171 NA
HETATM   13  C18 UNL     1      42.515  -3.503  31.273  1.00  0.00     0.146 C 
ENDROOT
BRANCH   3  14
HETATM   14  C6  UNL     1      40.378  -2.850  29.318  1.00  0.00     0.164 C 
BRANCH  14  15
HETATM   15  N1  UNL     1      39.473  -3.959  29.536  1.00  0.00    -0.224 N 
ATOM     16  H1  UNL     1      39.802  -4.925  29.532  1.00  0.00     0.177 HD
BRANCH  15  17
HETATM   17  C7  UNL     1      38.229  -3.670  29.735  1.00  0.00     0.680 A 
HETATM   18  N2  UNL     1      37.888  -3.340  30.992  1.00  0.00    -0.195 N 
HETATM   19  C8  UNL     1      36.605  -3.023  31.291  1.00  0.00     0.043 A 
ATOM     20  H2  UNL     1      38.598  -3.327  31.724  1.00  0.00     0.184 HD
HETATM   21  C9  UNL     1      36.201  -2.653  32.675  1.00  0.00     0.070 C 
HETATM   22  C10 UNL     1      35.639  -3.043  30.279  1.00  0.00     0.077 A 
HETATM   23 BR1  UNL     1      33.872  -2.580  30.818  1.00  0.00    -0.045 Br
HETATM   24  C11 UNL     1      35.987  -3.380  29.001  1.00  0.00     0.136 A 
HETATM   25  N3  UNL     1      35.214  -3.427  28.052  1.00  0.00    -0.368 N 
HETATM   26  N4  UNL     1      37.307  -3.689  28.772  1.00  0.00    -0.176 N 
ATOM     27  H3  UNL     1      35.727  -3.703  27.215  1.00  0.00     0.161 HD
ATOM     28  H4  UNL     1      37.593  -3.943  27.827  1.00  0.00     0.186 HD
BRANCH  25  29
HETATM   29  C12 UNL     1      33.867  -3.230  27.723  1.00  0.00     0.106 C 
BRANCH  29  30
HETATM   30  C13 UNL     1      33.655  -2.157  26.680  1.00  0.00     0.023 C 
HETATM   31  C14 UNL     1      34.133  -0.838  27.216  1.00  0.00     0.007 C 
ENDBRANCH  29  30
BRANCH  29  32
HETATM   32  C15 UNL     1      33.428  -4.564  27.056  1.00  0.00     0.189 C 
BRANCH  32  33
HETATM   33  O1  UNL     1      34.360  -5.085  26.208  1.00  0.00    -0.399 OA
ATOM     34  H1  UNL     1      33.996  -5.670  25.554  1.00  0.00     0.209 HD
ENDBRANCH  32  33
ENDBRANCH  29  32
ENDBRANCH  25  29
ENDBRANCH  15  17
ENDBRANCH  14  15
ENDBRANCH   3  14
BRANCH   1  35
HETATM   35  C2  UNL     1      43.926  -5.458  30.561  1.00  0.00     0.002 C 
HETATM   36  C1  UNL     1      44.198  -6.744  31.232  1.00  0.00     0.005 C 
ENDBRANCH   1  35
TORSDOF 8
ENDMDL
MODEL 4
REMARK VINA RESULT: -6.544903569      6.058      8.736
REMARK  8 active torsions:
REMARK  status: ('A' for Active; 'I' for Inactive)
REMARK    1  A    between atoms: C2_2  and  C3_3 
REMARK    2  A    between atoms: C5_5  and  C6_6 
REMARK    3  A    between atoms: C6_6  and  N1_7 
REMARK    4  A    between atoms: N1_7  and  C7_9 
REMARK    5  A    between atoms: N3_17  and  C12_19 
REMARK    6  A    between atoms: C12_19  and  C13_20 
REMARK    7  A    between atoms: C12_19  and  C15_22 
REMARK    8  A    between atoms: C15_22  and  O1_23 
REMARK       I    between atoms: N5_27  and  C16_28 
REMARK       I    between atoms: C16_28  and  N7_32 
ROOT
HETATM    1  C3  UNL     1      35.593  -2.730  28.169  1.00  0.00     0.006 C 
HETATM    2  C4  UNL     1      36.679  -3.252  29.087  1.00  0.00     0.033 C 
HETATM    3  C5  UNL     1      36.707  -2.296  30.273  1.00  0.00     0.120 C 
HETATM    4  N5  UNL     1      35.581  -1.415  30.051  1.00  0.00    -0.211 N 
HETATM    5  C16 UNL     1      34.870  -0.786  31.109  1.00  0.00     0.683 C 
HETATM    6  N6  UNL     1      33.923   0.038  30.821  1.00  0.00    -0.234 N 
ATOM      7  H61 UNL     1      33.413   0.489  31.580  1.00  0.00     0.174 HD
ATOM      8  H62 UNL     1      33.697   0.228  29.845  1.00  0.00     0.174 HD
HETATM    9  N7  UNL     1      35.184  -1.050  32.464  1.00  0.00    -0.126 N 
ATOM     10  H7  UNL     1      35.695  -0.354  33.009  1.00  0.00     0.197 HD
HETATM   11  C17 UNL     1      34.800  -2.259  33.065  1.00  0.00     0.196 C 
HETATM   12  N8  UNL     1      34.468  -3.258  33.581  1.00  0.00    -0.171 NA
HETATM   13  C18 UNL     1      35.391  -1.348  28.640  1.00  0.00     0.146 C 
ENDROOT
BRANCH   3  14
HETATM   14  C6  UNL     1      37.962  -1.463  30.121  1.00  0.00     0.164 C 
BRANCH  14  15
HETATM   15  N1  UNL     1      38.904  -1.691  31.198  1.00  0.00    -0.224 N 
ATOM     16  H1  UNL     1      38.732  -1.338  32.140  1.00  0.00     0.177 HD
BRANCH  15  17
HETATM   17  C7  UNL     1      39.971  -2.360  30.912  1.00  0.00     0.680 A 
HETATM   18  N2  UNL     1      40.241  -3.416  31.700  1.00  0.00    -0.195 N 
HETATM   19  C8  UNL     1      41.341  -4.174  31.472  1.00  0.00     0.043 A 
ATOM     20  H2  UNL     1      39.616  -3.646  32.472  1.00  0.00     0.184 HD
HETATM   21  C9  UNL     1      41.663  -5.348  32.329  1.00  0.00     0.070 C 
HETATM   22  C10 UNL     1      42.191  -3.849  30.410  1.00  0.00     0.077 A 
HETATM   23 BR1  UNL     1      43.704  -4.986  30.189  1.00  0.00    -0.045 Br
HETATM   24  C11 UNL     1      41.916  -2.776  29.610  1.00  0.00     0.136 A 
HETATM   25  N3  UNL     1      42.600  -2.413  28.661  1.00  0.00    -0.368 N 
HETATM   26  N4  UNL     1      40.783  -2.053  29.901  1.00  0.00    -0.176 N 
ATOM     27  H3  UNL     1      42.174  -1.590  28.235  1.00  0.00     0.161 HD
ATOM     28  H4  UNL     1      40.554  -1.247  29.319  1.00  0.00     0.186 HD
BRANCH  25  29
HETATM   29  C12 UNL     1      43.766  -2.743  27.960  1.00  0.00     0.106 C 
BRANCH  29  30
HETATM   30  C13 UNL     1      43.519  -3.643  26.771  1.00  0.00     0.023 C 
HETATM   31  C14 UNL     1      44.222  -3.084  25.568  1.00  0.00     0.007 C 
ENDBRANCH  29  30
BRANCH  29  32
HETATM   32  C15 UNL     1      44.266  -1.392  27.372  1.00  0.00     0.189 C 
BRANCH  32  33
HETATM   33  O1  UNL     1      43.959  -0.312  28.147  1.00  0.00    -0.399 OA
ATOM     34  H1  UNL     1      44.705   0.047  28.612  1.00  0.00     0.209 HD
ENDBRANCH  32  33
ENDBRANCH  29  32
ENDBRANCH  25  29
ENDBRANCH  15  17
ENDBRANCH  14  15
ENDBRANCH   3  14
BRANCH   1  35
HETATM   35  C2  UNL     1      34.402  -3.621  28.222  1.00  0.00     0.002 C 
HETATM   36  C1  UNL     1      33.571  -3.671  27.003  1.00  0.00     0.005 C 
ENDBRANCH   1  35
TORSDOF 8
ENDMDL
MODEL 5
REMARK VINA RESULT: -6.537938983      1.386      2.942
REMARK  8 active torsions:
REMARK  status: ('A' for Active; 'I' for Inactive)
REMARK    1  A    between atoms: C2_2  and  C3_3 
REMARK    2  A    between atoms: C5_5  and  C6_6 
REMARK    3  A    between atoms: C6_6  and  N1_7 
REMARK    4  A    between atoms: N1_7  and  C7_9 
REMARK    5  A    between atoms: N3_17  and  C12_19 
REMARK    6  A    between atoms: C12_19  and  C13_20 
REMARK    7  A    between atoms: C12_19  and  C15_22 
REMARK    8  A    between atoms: C15_22  and  O1_23 
REMARK       I    between atoms: N5_27  and  C16_28 
REMARK       I    between atoms: C16_28  and  N7_32 
ROOT
HETATM    1  C3  UNL     1      42.047   0.877  36.824  1.00  0.00     0.006 C 
HETATM    2  C4  UNL     1      42.377  -0.151  35.764  1.00  0.00     0.033 C 
HETATM    3  C5  UNL     1      43.734   0.259  35.203  1.00  0.00     0.120 C 
HETATM    4  N5  UNL     1      44.153   1.358  36.047  1.00  0.00    -0.211 N 
HETATM    5  C16 UNL     1      45.518   1.664  36.299  1.00  0.00     0.683 C 
HETATM    6  N6  UNL     1      45.805   2.701  37.006  1.00  0.00    -0.234 N 
ATOM      7  H61 UNL     1      46.784   2.919  37.186  1.00  0.00     0.174 HD
ATOM      8  H62 UNL     1      45.055   3.286  37.373  1.00  0.00     0.174 HD
HETATM    9  N7  UNL     1      46.559   0.851  35.787  1.00  0.00    -0.126 N 
ATOM     10  H7  UNL     1      47.110   1.176  34.992  1.00  0.00     0.197 HD
HETATM   11  C17 UNL     1      46.841  -0.398  36.365  1.00  0.00     0.196 C 
HETATM   12  N8  UNL     1      47.095  -1.434  36.851  1.00  0.00    -0.171 NA
HETATM   13  C18 UNL     1      42.963   1.989  36.511  1.00  0.00     0.146 C 
ENDROOT
BRANCH   3  14
HETATM   14  C6  UNL     1      43.472   0.830  33.826  1.00  0.00     0.164 C 
BRANCH  14  15
HETATM   15  N1  UNL     1      44.042   0.008  32.777  1.00  0.00    -0.224 N 
ATOM     16  H1  UNL     1      45.050  -0.059  32.640  1.00  0.00     0.177 HD
BRANCH  15  17
HETATM   17  C7  UNL     1      43.214  -0.636  32.022  1.00  0.00     0.680 A 
HETATM   18  N2  UNL     1      41.909  -0.501  32.319  1.00  0.00    -0.195 N 
HETATM   19  C8  UNL     1      40.972  -1.142  31.580  1.00  0.00     0.043 A 
ATOM     20  H2  UNL     1      41.625   0.086  33.103  1.00  0.00     0.184 HD
HETATM   21  C9  UNL     1      39.521  -1.010  31.886  1.00  0.00     0.070 C 
HETATM   22  C10 UNL     1      41.373  -1.945  30.507  1.00  0.00     0.077 A 
HETATM   23 BR1  UNL     1      39.967  -2.795  29.542  1.00  0.00    -0.045 Br
HETATM   24  C11 UNL     1      42.699  -2.081  30.206  1.00  0.00     0.136 A 
HETATM   25  N3  UNL     1      43.146  -2.760  29.290  1.00  0.00    -0.368 N 
HETATM   26  N4  UNL     1      43.594  -1.401  30.999  1.00  0.00    -0.176 N 
ATOM     27  H3  UNL     1      44.163  -2.690  29.285  1.00  0.00     0.161 HD
ATOM     28  H4  UNL     1      44.590  -1.486  30.796  1.00  0.00     0.186 HD
BRANCH  25  29
HETATM   29  C12 UNL     1      42.737  -3.600  28.247  1.00  0.00     0.106 C 
BRANCH  29  30
HETATM   30  C13 UNL     1      43.685  -3.601  27.070  1.00  0.00     0.023 C 
HETATM   31  C14 UNL     1      44.234  -2.217  26.872  1.00  0.00     0.007 C 
ENDBRANCH  29  30
BRANCH  29  32
HETATM   32  C15 UNL     1      42.806  -5.034  28.848  1.00  0.00     0.189 C 
BRANCH  32  33
HETATM   33  O1  UNL     1      41.742  -5.819  28.513  1.00  0.00    -0.399 OA
ATOM     34  H1  UNL     1      41.793  -6.174  27.634  1.00  0.00     0.209 HD
ENDBRANCH  32  33
ENDBRANCH  29  32
ENDBRANCH  25  29
ENDBRANCH  15  17
ENDBRANCH  14  15
ENDBRANCH   3  14
BRANCH   1  35
HETATM   35  C2  UNL     1      42.181   0.280  38.181  1.00  0.00     0.002 C 
HETATM   36  C1  UNL     1      42.581   1.201  39.262  1.00  0.00     0.005 C 
ENDBRANCH   1  35
TORSDOF 8
ENDMDL
