MODEL 1
REMARK VINA RESULT: -5.991304943      0.000      0.000
REMARK  9 active torsions:
REMARK  status: ('A' for Active; 'I' for Inactive)
REMARK    1  A    between atoms: C2_2  and  C3_3 
REMARK    2  A    between atoms: C3_3  and  C4_4 
REMARK    3  A    between atoms: C4_4  and  N1_5 
REMARK       I    between atoms: N1_5  and  C5_7 
REMARK    4  A    between atoms: C5_7  and  C6_9 
REMARK    5  A    between atoms: C16_22  and  C17_23 
REMARK    6  A    between atoms: C19_27  and  O5_28 
REMARK    7  A    between atoms: C20_32  and  C21_33 
REMARK    8  A    between atoms: C21_33  and  C22_34 
REMARK    9  A    between atoms: C22_34  and  C23_35 
ROOT
HETATM    1  C6  UNL     1      38.014  -2.618  32.493  1.00  0.00     0.194 C 
HETATM    2  C7  UNL     1      37.828  -4.001  32.992  1.00  0.00     0.003 C 
HETATM    3  C8  UNL     1      36.879  -4.983  32.558  1.00  0.00    -0.028 C 
HETATM    4  C9  UNL     1      36.967  -5.765  31.307  1.00  0.00     0.027 C 
HETATM    5  C10 UNL     1      38.271  -5.966  30.649  1.00  0.00     0.004 C 
HETATM    6  C11 UNL     1      38.986  -7.228  31.069  1.00  0.00     0.002 C 
HETATM    7  C12 UNL     1      40.448  -7.199  30.814  1.00  0.00     0.020 C 
HETATM    8  C13 UNL     1      40.876  -6.494  29.561  1.00  0.00     0.122 C 
HETATM    9  N2  UNL     1      42.331  -6.482  29.523  1.00  0.00    -0.361 N 
ATOM     10  H2  UNL     1      42.773  -6.956  28.735  1.00  0.00     0.162 HD
HETATM   11  C14 UNL     1      43.180  -5.889  30.453  1.00  0.00     0.218 C 
HETATM   12  O2  UNL     1      44.234  -6.558  30.762  1.00  0.00    -0.274 OA
HETATM   13  C15 UNL     1      43.023  -4.594  31.129  1.00  0.00     0.118 C 
HETATM   14  C16 UNL     1      42.688  -3.432  30.226  1.00  0.00     0.103 C 
HETATM   15  C18 UNL     1      43.320  -2.188  30.729  1.00  0.00     0.099 C 
HETATM   16  C19 UNL     1      42.495  -1.187  31.426  1.00  0.00     0.113 C 
HETATM   17  N3  UNL     1      41.169  -1.160  31.826  1.00  0.00    -0.354 N 
ATOM     18  H3  UNL     1      40.625  -0.365  31.491  1.00  0.00     0.163 HD
HETATM   19  C20 UNL     1      40.442  -2.111  32.658  1.00  0.00     0.179 C 
HETATM   20  N4  UNL     1      39.386  -2.604  31.944  1.00  0.00    -0.386 N 
ATOM     21  H4  UNL     1      39.548  -2.973  31.007  1.00  0.00     0.156 HD
ENDROOT
BRANCH   1  22
HETATM   22  C5  UNL     1      37.177  -2.152  31.372  1.00  0.00     0.247 C 
HETATM   23  N1  UNL     1      37.641  -2.464  30.049  1.00  0.00    -0.339 N 
ATOM     24  H1  UNL     1      38.527  -2.966  29.988  1.00  0.00     0.167 HD
HETATM   25  O1  UNL     1      36.139  -1.552  31.480  1.00  0.00    -0.271 OA
BRANCH  23  26
HETATM   26  C4  UNL     1      37.027  -2.162  28.853  1.00  0.00     0.064 C 
BRANCH  26  27
HETATM   27  C3  UNL     1      35.973  -2.952  28.245  1.00  0.00     0.044 C 
BRANCH  27  28
HETATM   28  C2  UNL     1      34.778  -2.290  27.658  1.00  0.00     0.001 C 
HETATM   29  C1  UNL     1      35.108  -0.779  27.660  1.00  0.00     0.005 C 
ENDBRANCH  27  28
ENDBRANCH  26  27
ENDBRANCH  23  26
ENDBRANCH   1  22
BRANCH  19  30
HETATM   30  C21 UNL     1      39.998  -1.430  33.961  1.00  0.00     0.046 C 
BRANCH  30  31
HETATM   31  C22 UNL     1      40.125   0.079  33.820  1.00  0.00     0.003 C 
BRANCH  31  32
HETATM   32  C23 UNL     1      38.749   0.685  33.923  1.00  0.00    -0.004 C 
HETATM   33  C24 UNL     1      38.263   1.158  32.556  1.00  0.00     0.005 C 
ENDBRANCH  31  32
ENDBRANCH  30  31
ENDBRANCH  19  30
BRANCH  16  34
HETATM   34  O5  UNL     1      43.201  -0.120  31.706  1.00  0.00    -0.349 OA
ATOM     35  H5  UNL     1      43.001   0.196  32.580  1.00  0.00     0.219 HD
ENDBRANCH  16  34
BRANCH  14  36
HETATM   36  C17 UNL     1      43.288  -3.701  28.901  1.00  0.00     0.177 C 
HETATM   37  O3  UNL     1      44.518  -3.794  28.766  1.00  0.00    -0.648 OA
HETATM   38  O4  UNL     1      42.465  -3.852  27.809  1.00  0.00    -0.648 OA
ENDBRANCH  14  36
TORSDOF 9
ENDMDL
MODEL 2
REMARK VINA RESULT: -5.952900216      1.933      2.495
REMARK  9 active torsions:
REMARK  status: ('A' for Active; 'I' for Inactive)
REMARK    1  A    between atoms: C2_2  and  C3_3 
REMARK    2  A    between atoms: C3_3  and  C4_4 
REMARK    3  A    between atoms: C4_4  and  N1_5 
REMARK       I    between atoms: N1_5  and  C5_7 
REMARK    4  A    between atoms: C5_7  and  C6_9 
REMARK    5  A    between atoms: C16_22  and  C17_23 
REMARK    6  A    between atoms: C19_27  and  O5_28 
REMARK    7  A    between atoms: C20_32  and  C21_33 
REMARK    8  A    between atoms: C21_33  and  C22_34 
REMARK    9  A    between atoms: C22_34  and  C23_35 
ROOT
HETATM    1  C6  UNL     1      36.724  -3.884  30.292  1.00  0.00     0.194 C 
HETATM    2  C7  UNL     1      36.907  -5.146  31.049  1.00  0.00     0.003 C 
HETATM    3  C8  UNL     1      36.590  -6.482  30.638  1.00  0.00    -0.028 C 
HETATM    4  C9  UNL     1      37.372  -7.292  29.681  1.00  0.00     0.027 C 
HETATM    5  C10 UNL     1      38.797  -6.994  29.448  1.00  0.00     0.004 C 
HETATM    6  C11 UNL     1      39.743  -7.771  30.331  1.00  0.00     0.002 C 
HETATM    7  C12 UNL     1      41.085  -7.152  30.459  1.00  0.00     0.020 C 
HETATM    8  C13 UNL     1      41.614  -6.484  29.225  1.00  0.00     0.122 C 
HETATM    9  N2  UNL     1      42.885  -5.857  29.558  1.00  0.00    -0.361 N 
ATOM     10  H2  UNL     1      43.706  -6.186  29.049  1.00  0.00     0.162 HD
HETATM   11  C14 UNL     1      43.093  -4.855  30.501  1.00  0.00     0.218 C 
HETATM   12  O2  UNL     1      44.152  -4.969  31.223  1.00  0.00    -0.274 OA
HETATM   13  C15 UNL     1      42.253  -3.680  30.778  1.00  0.00     0.118 C 
HETATM   14  C16 UNL     1      41.835  -2.887  29.565  1.00  0.00     0.103 C 
HETATM   15  C18 UNL     1      41.756  -1.443  29.894  1.00  0.00     0.099 C 
HETATM   16  C19 UNL     1      40.440  -0.815  30.091  1.00  0.00     0.113 C 
HETATM   17  N3  UNL     1      39.146  -1.310  30.119  1.00  0.00    -0.354 N 
ATOM     18  H3  UNL     1      38.492  -0.867  29.473  1.00  0.00     0.163 HD
HETATM   19  C20 UNL     1      38.589  -2.375  30.944  1.00  0.00     0.179 C 
HETATM   20  N4  UNL     1      38.092  -3.351  30.126  1.00  0.00    -0.386 N 
ATOM     21  H4  UNL     1      38.681  -3.722  29.380  1.00  0.00     0.156 HD
ENDROOT
BRANCH   1  22
HETATM   22  C5  UNL     1      36.200  -3.954  28.916  1.00  0.00     0.247 C 
HETATM   23  N1  UNL     1      34.787  -3.755  28.754  1.00  0.00    -0.339 N 
ATOM     24  H1  UNL     1      34.252  -3.601  29.608  1.00  0.00     0.167 HD
HETATM   25  O1  UNL     1      36.861  -4.148  27.928  1.00  0.00    -0.271 OA
BRANCH  23  26
HETATM   26  C4  UNL     1      34.072  -3.748  27.575  1.00  0.00     0.064 C 
BRANCH  26  27
HETATM   27  C3  UNL     1      33.850  -2.575  26.752  1.00  0.00     0.044 C 
BRANCH  27  28
HETATM   28  C2  UNL     1      33.684  -1.235  27.377  1.00  0.00     0.001 C 
HETATM   29  C1  UNL     1      35.091  -0.597  27.350  1.00  0.00     0.005 C 
ENDBRANCH  27  28
ENDBRANCH  26  27
ENDBRANCH  23  26
ENDBRANCH   1  22
BRANCH  19  30
HETATM   30  C21 UNL     1      37.518  -1.801  31.883  1.00  0.00     0.046 C 
BRANCH  30  31
HETATM   31  C22 UNL     1      37.288  -0.332  31.563  1.00  0.00     0.003 C 
BRANCH  31  32
HETATM   32  C23 UNL     1      35.871   0.022  31.937  1.00  0.00    -0.004 C 
HETATM   33  C24 UNL     1      34.878  -0.666  31.005  1.00  0.00     0.005 C 
ENDBRANCH  31  32
ENDBRANCH  30  31
ENDBRANCH  19  30
BRANCH  16  34
HETATM   34  O5  UNL     1      40.565   0.476  30.274  1.00  0.00    -0.349 OA
ATOM     35  H5  UNL     1      40.451   0.698  31.191  1.00  0.00     0.219 HD
ENDBRANCH  16  34
BRANCH  14  36
HETATM   36  C17 UNL     1      42.896  -3.027  28.543  1.00  0.00     0.177 C 
HETATM   37  O3  UNL     1      42.668  -3.597  27.463  1.00  0.00    -0.648 OA
HETATM   38  O4  UNL     1      44.147  -2.516  28.797  1.00  0.00    -0.648 OA
ENDBRANCH  14  36
TORSDOF 9
ENDMDL
MODEL 3
REMARK VINA RESULT: -5.867487936      1.327      1.652
REMARK  9 active torsions:
REMARK  status: ('A' for Active; 'I' for Inactive)
REMARK    1  A    between atoms: C2_2  and  C3_3 
REMARK    2  A    between atoms: C3_3  and  C4_4 
REMARK    3  A    between atoms: C4_4  and  N1_5 
REMARK       I    between atoms: N1_5  and  C5_7 
REMARK    4  A    between atoms: C5_7  and  C6_9 
REMARK    5  A    between atoms: C16_22  and  C17_23 
REMARK    6  A    between atoms: C19_27  and  O5_28 
REMARK    7  A    between atoms: C20_32  and  C21_33 
REMARK    8  A    between atoms: C21_33  and  C22_34 
REMARK    9  A    between atoms: C22_34  and  C23_35 
ROOT
HETATM    1  C6  UNL     1      37.310  -2.434  30.791  1.00  0.00     0.194 C 
HETATM    2  C7  UNL     1      36.850  -3.659  31.488  1.00  0.00     0.003 C 
HETATM    3  C8  UNL     1      35.987  -4.692  30.995  1.00  0.00    -0.028 C 
HETATM    4  C9  UNL     1      36.375  -5.745  30.034  1.00  0.00     0.027 C 
HETATM    5  C10 UNL     1      37.792  -6.125  29.882  1.00  0.00     0.004 C 
HETATM    6  C11 UNL     1      38.222  -7.271  30.766  1.00  0.00     0.002 C 
HETATM    7  C12 UNL     1      39.687  -7.337  30.988  1.00  0.00     0.020 C 
HETATM    8  C13 UNL     1      40.541  -6.954  29.815  1.00  0.00     0.122 C 
HETATM    9  N2  UNL     1      41.933  -6.985  30.238  1.00  0.00    -0.361 N 
ATOM     10  H2  UNL     1      42.545  -7.640  29.751  1.00  0.00     0.162 HD
HETATM   11  C14 UNL     1      42.513  -6.213  31.241  1.00  0.00     0.218 C 
HETATM   12  O2  UNL     1      43.355  -6.817  32.003  1.00  0.00    -0.274 OA
HETATM   13  C15 UNL     1      42.283  -4.792  31.539  1.00  0.00     0.118 C 
HETATM   14  C16 UNL     1      42.351  -3.865  30.351  1.00  0.00     0.103 C 
HETATM   15  C18 UNL     1      42.916  -2.553  30.750  1.00  0.00     0.099 C 
HETATM   16  C19 UNL     1      42.019  -1.398  30.919  1.00  0.00     0.113 C 
HETATM   17  N3  UNL     1      40.643  -1.248  30.862  1.00  0.00    -0.354 N 
ATOM     18  H3  UNL     1      40.305  -0.540  30.211  1.00  0.00     0.163 HD
HETATM   19  C20 UNL     1      39.611  -1.961  31.605  1.00  0.00     0.179 C 
HETATM   20  N4  UNL     1      38.778  -2.582  30.715  1.00  0.00    -0.386 N 
ATOM     21  H4  UNL     1      39.181  -3.162  29.979  1.00  0.00     0.156 HD
ENDROOT
BRANCH   1  22
HETATM   22  C5  UNL     1      36.901  -2.222  29.390  1.00  0.00     0.247 C 
HETATM   23  N1  UNL     1      35.770  -1.365  29.172  1.00  0.00    -0.339 N 
ATOM     24  H1  UNL     1      35.323  -0.985  30.007  1.00  0.00     0.167 HD
HETATM   25  O1  UNL     1      37.446  -2.695  28.426  1.00  0.00    -0.271 OA
BRANCH  23  26
HETATM   26  C4  UNL     1      35.219  -0.996  27.964  1.00  0.00     0.064 C 
BRANCH  26  27
HETATM   27  C3  UNL     1      34.344  -1.835  27.167  1.00  0.00     0.044 C 
BRANCH  27  28
HETATM   28  C2  UNL     1      33.732  -3.058  27.752  1.00  0.00     0.001 C 
HETATM   29  C1  UNL     1      34.514  -4.239  27.132  1.00  0.00     0.005 C 
ENDBRANCH  27  28
ENDBRANCH  26  27
ENDBRANCH  23  26
ENDBRANCH   1  22
BRANCH  19  30
HETATM   30  C21 UNL     1      38.860  -0.985  32.522  1.00  0.00     0.046 C 
BRANCH  30  31
HETATM   31  C22 UNL     1      39.012   0.433  31.997  1.00  0.00     0.003 C 
BRANCH  31  32
HETATM   32  C23 UNL     1      38.013   1.314  32.704  1.00  0.00    -0.004 C 
HETATM   33  C24 UNL     1      36.638   0.655  32.737  1.00  0.00     0.005 C 
ENDBRANCH  31  32
ENDBRANCH  30  31
ENDBRANCH  19  30
BRANCH  16  34
HETATM   34  O5  UNL     1      42.706  -0.313  31.174  1.00  0.00    -0.349 OA
ATOM     35  H5  UNL     1      42.955   0.124  30.368  1.00  0.00     0.219 HD
ENDBRANCH  16  34
BRANCH  14  36
HETATM   36  C17 UNL     1      43.295  -4.449  29.373  1.00  0.00     0.177 C 
HETATM   37  O3  UNL     1      44.505  -4.543  29.634  1.00  0.00    -0.648 OA
HETATM   38  O4  UNL     1      42.819  -4.894  28.162  1.00  0.00    -0.648 OA
ENDBRANCH  14  36
TORSDOF 9
ENDMDL
MODEL 4
REMARK VINA RESULT: -5.834800756      2.337      7.404
REMARK  9 active torsions:
REMARK  status: ('A' for Active; 'I' for Inactive)
REMARK    1  A    between atoms: C2_2  and  C3_3 
REMARK    2  A    between atoms: C3_3  and  C4_4 
REMARK    3  A    between atoms: C4_4  and  N1_5 
REMARK       I    between atoms: N1_5  and  C5_7 
REMARK    4  A    between atoms: C5_7  and  C6_9 
REMARK    5  A    between atoms: C16_22  and  C17_23 
REMARK    6  A    between atoms: C19_27  and  O5_28 
REMARK    7  A    between atoms: C20_32  and  C21_33 
REMARK    8  A    between atoms: C21_33  and  C22_34 
REMARK    9  A    between atoms: C22_34  and  C23_35 
ROOT
HETATM    1  C6  UNL     1      42.483  -4.397  29.572  1.00  0.00     0.194 C 
HETATM    2  C7  UNL     1      42.796  -3.670  30.825  1.00  0.00     0.003 C 
HETATM    3  C8  UNL     1      43.290  -2.333  30.977  1.00  0.00    -0.028 C 
HETATM    4  C9  UNL     1      42.491  -1.102  30.814  1.00  0.00     0.027 C 
HETATM    5  C10 UNL     1      41.025  -1.142  30.971  1.00  0.00     0.004 C 
HETATM    6  C11 UNL     1      40.546  -0.843  32.372  1.00  0.00     0.002 C 
HETATM    7  C12 UNL     1      39.180  -1.347  32.656  1.00  0.00     0.020 C 
HETATM    8  C13 UNL     1      38.208  -1.272  31.515  1.00  0.00     0.122 C 
HETATM    9  N2  UNL     1      36.961  -1.890  31.942  1.00  0.00    -0.361 N 
ATOM     10  H2  UNL     1      36.133  -1.294  31.947  1.00  0.00     0.162 HD
HETATM   11  C14 UNL     1      36.785  -3.211  32.343  1.00  0.00     0.218 C 
HETATM   12  O2  UNL     1      36.007  -3.396  33.351  1.00  0.00    -0.274 OA
HETATM   13  C15 UNL     1      37.377  -4.423  31.761  1.00  0.00     0.118 C 
HETATM   14  C16 UNL     1      37.271  -4.536  30.260  1.00  0.00     0.103 C 
HETATM   15  C18 UNL     1      37.102  -5.953  29.858  1.00  0.00     0.099 C 
HETATM   16  C19 UNL     1      38.246  -6.687  29.293  1.00  0.00     0.113 C 
HETATM   17  N3  UNL     1      39.580  -6.365  29.098  1.00  0.00    -0.354 N 
ATOM     18  H3  UNL     1      39.923  -6.473  28.143  1.00  0.00     0.163 HD
HETATM   19  C20 UNL     1      40.560  -5.894  30.068  1.00  0.00     0.179 C 
HETATM   20  N4  UNL     1      41.034  -4.678  29.660  1.00  0.00    -0.386 N 
ATOM     21  H4  UNL     1      40.371  -3.945  29.410  1.00  0.00     0.156 HD
ENDROOT
BRANCH   1  22
HETATM   22  C5  UNL     1      42.630  -3.689  28.287  1.00  0.00     0.247 C 
HETATM   23  N1  UNL     1      43.628  -4.191  27.386  1.00  0.00    -0.339 N 
ATOM     24  H1  UNL     1      44.174  -4.988  27.715  1.00  0.00     0.167 HD
HETATM   25  O1  UNL     1      41.973  -2.743  27.934  1.00  0.00    -0.271 OA
BRANCH  23  26
HETATM   26  C4  UNL     1      43.934  -3.719  26.127  1.00  0.00     0.064 C 
BRANCH  26  27
HETATM   27  C3  UNL     1      44.853  -2.631  25.855  1.00  0.00     0.044 C 
BRANCH  27  28
HETATM   28  C2  UNL     1      44.410  -1.218  25.986  1.00  0.00     0.001 C 
HETATM   29  C1  UNL     1      44.851  -0.783  27.403  1.00  0.00     0.005 C 
ENDBRANCH  27  28
ENDBRANCH  26  27
ENDBRANCH  23  26
ENDBRANCH   1  22
BRANCH  19  30
HETATM   30  C21 UNL     1      41.680  -6.934  30.224  1.00  0.00     0.046 C 
BRANCH  30  31
HETATM   31  C22 UNL     1      41.758  -7.391  31.672  1.00  0.00     0.003 C 
BRANCH  31  32
HETATM   32  C23 UNL     1      43.155  -7.134  32.179  1.00  0.00    -0.004 C 
HETATM   33  C24 UNL     1      44.180  -7.336  31.067  1.00  0.00     0.005 C 
ENDBRANCH  31  32
ENDBRANCH  30  31
ENDBRANCH  19  30
BRANCH  16  34
HETATM   34  O5  UNL     1      37.882  -7.885  28.908  1.00  0.00    -0.349 OA
ATOM     35  H5  UNL     1      37.424  -8.337  29.607  1.00  0.00     0.219 HD
ENDBRANCH  16  34
BRANCH  14  36
HETATM   36  C17 UNL     1      36.041  -3.830  29.838  1.00  0.00     0.177 C 
HETATM   37  O3  UNL     1      34.919  -4.279  30.126  1.00  0.00    -0.648 OA
HETATM   38  O4  UNL     1      36.148  -2.662  29.122  1.00  0.00    -0.648 OA
ENDBRANCH  14  36
TORSDOF 9
ENDMDL
MODEL 5
REMARK VINA RESULT: -5.831723730      2.740      7.373
REMARK  9 active torsions:
REMARK  status: ('A' for Active; 'I' for Inactive)
REMARK    1  A    between atoms: C2_2  and  C3_3 
REMARK    2  A    between atoms: C3_3  and  C4_4 
REMARK    3  A    between atoms: C4_4  and  N1_5 
REMARK       I    between atoms: N1_5  and  C5_7 
REMARK    4  A    between atoms: C5_7  and  C6_9 
REMARK    5  A    between atoms: C16_22  and  C17_23 
REMARK    6  A    between atoms: C19_27  and  O5_28 
REMARK    7  A    between atoms: C20_32  and  C21_33 
REMARK    8  A    between atoms: C21_33  and  C22_34 
REMARK    9  A    between atoms: C22_34  and  C23_35 
ROOT
HETATM    1  C6  UNL     1      41.597  -3.732  30.463  1.00  0.00     0.194 C 
HETATM    2  C7  UNL     1      41.180  -2.875  31.598  1.00  0.00     0.003 C 
HETATM    3  C8  UNL     1      41.209  -1.445  31.691  1.00  0.00    -0.028 C 
HETATM    4  C9  UNL     1      40.258  -0.525  31.035  1.00  0.00     0.027 C 
HETATM    5  C10 UNL     1      38.918  -0.999  30.642  1.00  0.00     0.004 C 
HETATM    6  C11 UNL     1      37.854  -0.781  31.692  1.00  0.00     0.002 C 
HETATM    7  C12 UNL     1      36.669  -1.659  31.531  1.00  0.00     0.020 C 
HETATM    8  C13 UNL     1      36.258  -1.947  30.118  1.00  0.00     0.122 C 
HETATM    9  N2  UNL     1      35.149  -2.888  30.151  1.00  0.00    -0.361 N 
ATOM     10  H2  UNL     1      34.267  -2.572  29.747  1.00  0.00     0.162 HD
HETATM   11  C14 UNL     1      35.170  -4.176  30.679  1.00  0.00     0.218 C 
HETATM   12  O2  UNL     1      34.127  -4.532  31.342  1.00  0.00    -0.274 OA
HETATM   13  C15 UNL     1      36.237  -5.182  30.574  1.00  0.00     0.118 C 
HETATM   14  C16 UNL     1      36.779  -5.405  29.184  1.00  0.00     0.103 C 
HETATM   15  C18 UNL     1      37.157  -6.827  28.998  1.00  0.00     0.099 C 
HETATM   16  C19 UNL     1      38.577  -7.210  29.031  1.00  0.00     0.113 C 
HETATM   17  N3  UNL     1      39.745  -6.510  29.292  1.00  0.00    -0.354 N 
ATOM     18  H3  UNL     1      40.459  -6.562  28.566  1.00  0.00     0.163 HD
HETATM   19  C20 UNL     1      40.092  -5.711  30.461  1.00  0.00     0.179 C 
HETATM   20  N4  UNL     1      40.362  -4.433  30.055  1.00  0.00    -0.386 N 
ATOM     21  H4  UNL     1      39.693  -3.951  29.455  1.00  0.00     0.156 HD
ENDROOT
BRANCH   1  22
HETATM   22  C5  UNL     1      42.065  -3.085  29.223  1.00  0.00     0.247 C 
HETATM   23  N1  UNL     1      43.485  -3.028  29.023  1.00  0.00    -0.339 N 
ATOM     24  H1  UNL     1      44.063  -3.421  29.766  1.00  0.00     0.167 HD
HETATM   25  O1  UNL     1      41.354  -2.621  28.369  1.00  0.00    -0.271 OA
BRANCH  23  26
HETATM   26  C4  UNL     1      44.158  -2.502  27.941  1.00  0.00     0.064 C 
BRANCH  26  27
HETATM   27  C3  UNL     1      44.297  -3.161  26.657  1.00  0.00     0.044 C 
BRANCH  27  28
HETATM   28  C2  UNL     1      44.594  -2.371  25.431  1.00  0.00     0.001 C 
HETATM   29  C1  UNL     1      44.316  -3.332  24.253  1.00  0.00     0.005 C 
ENDBRANCH  27  28
ENDBRANCH  26  27
ENDBRANCH  23  26
ENDBRANCH   1  22
BRANCH  19  30
HETATM   30  C21 UNL     1      41.279  -6.351  31.196  1.00  0.00     0.046 C 
BRANCH  30  31
HETATM   31  C22 UNL     1      41.935  -7.392  30.302  1.00  0.00     0.003 C 
BRANCH  31  32
HETATM   32  C23 UNL     1      43.297  -6.885  29.901  1.00  0.00    -0.004 C 
HETATM   33  C24 UNL     1      44.073  -6.395  31.118  1.00  0.00     0.005 C 
ENDBRANCH  31  32
ENDBRANCH  30  31
ENDBRANCH  19  30
BRANCH  16  34
HETATM   34  O5  UNL     1      38.720  -8.482  28.751  1.00  0.00    -0.349 OA
ATOM     35  H5  UNL     1      39.631  -8.685  28.568  1.00  0.00     0.219 HD
ENDBRANCH  16  34
BRANCH  14  36
HETATM   36  C17 UNL     1      35.689  -5.130  28.222  1.00  0.00     0.177 C 
HETATM   37  O3  UNL     1      35.711  -4.116  27.507  1.00  0.00    -0.648 OA
HETATM   38  O4  UNL     1      34.642  -6.016  28.122  1.00  0.00    -0.648 OA
ENDBRANCH  14  36
TORSDOF 9
ENDMDL
