MODEL 1
REMARK VINA RESULT: -6.985065070      0.000      0.000
REMARK  8 active torsions:
REMARK  status: ('A' for Active; 'I' for Inactive)
REMARK       I    between atoms: C1_4  and  N3_6 
REMARK    1  A    between atoms: N3_6  and  C2_8 
REMARK    2  A    between atoms: C2_8  and  C3_9 
REMARK    3  A    between atoms: C3_9  and  C4_10 
REMARK    4  A    between atoms: C4_10  and  C5_11 
REMARK    5  A    between atoms: C5_11  and  C6_12 
REMARK    6  A    between atoms: C14_23  and  C15_24 
REMARK       I    between atoms: C15_24  and  N5_26 
REMARK    7  A    between atoms: N5_26  and  C16_28 
REMARK    8  A    between atoms: C16_28  and  C17_29 
ROOT
HETATM    1  C6  UNL     1      39.153  -2.317  30.923  1.00  0.00     0.078 C 
HETATM    2  C7  UNL     1      40.062  -1.174  31.353  1.00  0.00     0.015 C 
HETATM    3  C8  UNL     1      40.719  -0.524  30.131  1.00  0.00     0.028 C 
HETATM    4  C9  UNL     1      41.761  -1.494  29.654  1.00  0.00     0.232 C 
HETATM    5  N4  UNL     1      42.883  -0.918  28.991  1.00  0.00    -0.075 N 
ATOM      6  H41 UNL     1      43.108   0.017  29.331  1.00  0.00     0.277 HD
ATOM      7  H42 UNL     1      42.686  -0.664  28.023  1.00  0.00     0.277 HD
HETATM    8  C10 UNL     1      43.997  -1.856  29.120  1.00  0.00     0.232 C 
HETATM    9  C11 UNL     1      43.694  -3.136  28.360  1.00  0.00     0.027 C 
HETATM   10  C12 UNL     1      44.067  -4.335  29.168  1.00  0.00     0.002 C 
HETATM   11  C13 UNL     1      42.926  -5.349  29.314  1.00  0.00     0.014 C 
HETATM   12  C14 UNL     1      42.801  -5.804  30.735  1.00  0.00     0.080 C 
HETATM   13  C18 UNL     1      41.426  -6.018  31.257  1.00  0.00     0.039 C 
HETATM   14  C19 UNL     1      40.316  -5.259  30.672  1.00  0.00     0.088 C 
HETATM   15  C20 UNL     1      39.415  -6.093  29.789  1.00  0.00     0.025 C 
HETATM   16  C21 UNL     1      38.750  -7.215  30.536  1.00  0.00     0.004 C 
HETATM   17  C22 UNL     1      38.172  -6.847  31.840  1.00  0.00     0.020 C 
HETATM   18  C23 UNL     1      38.897  -5.774  32.596  1.00  0.00     0.126 C 
HETATM   19  N6  UNL     1      39.471  -4.748  31.741  1.00  0.00    -0.347 N 
HETATM   20  C24 UNL     1      39.205  -3.372  31.968  1.00  0.00     0.224 C 
HETATM   21  O4  UNL     1      38.985  -2.969  33.159  1.00  0.00    -0.273 OA
ENDROOT
BRANCH   1  22
HETATM   22  C5  UNL     1      37.753  -1.703  30.860  1.00  0.00     0.014 C 
BRANCH  22  23
HETATM   23  C4  UNL     1      37.168  -1.719  29.500  1.00  0.00     0.002 C 
BRANCH  23  24
HETATM   24  C3  UNL     1      37.657  -2.952  28.780  1.00  0.00     0.020 C 
BRANCH  24  25
HETATM   25  C2  UNL     1      36.600  -3.963  28.497  1.00  0.00     0.122 C 
BRANCH  25  26
HETATM   26  N3  UNL     1      37.034  -4.825  27.404  1.00  0.00    -0.365 N 
HETATM   27  C1  UNL     1      36.262  -5.927  26.999  1.00  0.00     0.181 C 
HETATM   28  N1  UNL     1      35.315  -5.875  26.142  1.00  0.00    -0.374 N 
HETATM   29  N2  UNL     1      36.582  -7.189  27.606  1.00  0.00    -0.064 NA
ATOM     30  H12 UNL     1      34.755  -6.675  25.847  1.00  0.00     0.158 HD
ATOM     31  H11 UNL     1      35.088  -4.979  25.711  1.00  0.00     0.158 HD
ATOM     32  H3  UNL     1      37.912  -4.625  26.926  1.00  0.00     0.162 HD
ENDBRANCH  25  26
ENDBRANCH  24  25
ENDBRANCH  23  24
ENDBRANCH  22  23
ENDBRANCH   1  22
BRANCH  12  33
HETATM   33  C15 UNL     1      43.699  -6.949  31.037  1.00  0.00     0.222 C 
HETATM   34  O1  UNL     1      43.744  -7.944  30.278  1.00  0.00    -0.273 OA
HETATM   35  N5  UNL     1      44.522  -6.940  32.189  1.00  0.00    -0.351 N 
ATOM     36  H5  UNL     1      44.480  -6.125  32.801  1.00  0.00     0.163 HD
BRANCH  35  37
HETATM   37  C16 UNL     1      45.413  -8.008  32.546  1.00  0.00     0.235 C 
BRANCH  37  38
HETATM   38  C17 UNL     1      46.698  -7.912  31.810  1.00  0.00     0.191 C 
HETATM   39  O2  UNL     1      47.505  -6.966  32.021  1.00  0.00    -0.647 OA
HETATM   40  O3  UNL     1      47.044  -8.862  30.870  1.00  0.00    -0.647 OA
ENDBRANCH  37  38
ENDBRANCH  35  37
ENDBRANCH  12  33
TORSDOF 8
ENDMDL
MODEL 2
REMARK VINA RESULT: -6.924125989      2.729      8.148
REMARK  8 active torsions:
REMARK  status: ('A' for Active; 'I' for Inactive)
REMARK       I    between atoms: C1_4  and  N3_6 
REMARK    1  A    between atoms: N3_6  and  C2_8 
REMARK    2  A    between atoms: C2_8  and  C3_9 
REMARK    3  A    between atoms: C3_9  and  C4_10 
REMARK    4  A    between atoms: C4_10  and  C5_11 
REMARK    5  A    between atoms: C5_11  and  C6_12 
REMARK    6  A    between atoms: C14_23  and  C15_24 
REMARK       I    between atoms: C15_24  and  N5_26 
REMARK    7  A    between atoms: N5_26  and  C16_28 
REMARK    8  A    between atoms: C16_28  and  C17_29 
ROOT
HETATM    1  C6  UNL     1      40.723  -5.806  30.057  1.00  0.00     0.078 C 
HETATM    2  C7  UNL     1      39.746  -6.938  30.343  1.00  0.00     0.015 C 
HETATM    3  C8  UNL     1      38.989  -7.325  29.068  1.00  0.00     0.028 C 
HETATM    4  C9  UNL     1      38.007  -6.218  28.815  1.00  0.00     0.232 C 
HETATM    5  N4  UNL     1      36.816  -6.594  28.129  1.00  0.00    -0.075 N 
ATOM      6  H41 UNL     1      36.532  -7.554  28.322  1.00  0.00     0.277 HD
ATOM      7  H42 UNL     1      36.951  -6.695  27.123  1.00  0.00     0.277 HD
HETATM    8  C10 UNL     1      35.785  -5.615  28.470  1.00  0.00     0.232 C 
HETATM    9  C11 UNL     1      36.157  -4.249  27.916  1.00  0.00     0.027 C 
HETATM   10  C12 UNL     1      35.913  -3.180  28.929  1.00  0.00     0.002 C 
HETATM   11  C13 UNL     1      37.135  -2.288  29.176  1.00  0.00     0.014 C 
HETATM   12  C14 UNL     1      37.355  -2.088  30.644  1.00  0.00     0.080 C 
HETATM   13  C18 UNL     1      38.765  -2.062  31.118  1.00  0.00     0.039 C 
HETATM   14  C19 UNL     1      39.785  -2.789  30.356  1.00  0.00     0.088 C 
HETATM   15  C20 UNL     1      40.711  -1.884  29.575  1.00  0.00     0.025 C 
HETATM   16  C21 UNL     1      41.493  -0.953  30.458  1.00  0.00     0.004 C 
HETATM   17  C22 UNL     1      42.095  -1.574  31.651  1.00  0.00     0.020 C 
HETATM   18  C23 UNL     1      41.320  -2.706  32.258  1.00  0.00     0.126 C 
HETATM   19  N6  UNL     1      40.632  -3.530  31.280  1.00  0.00    -0.347 N 
HETATM   20  C24 UNL     1      40.799  -4.940  31.262  1.00  0.00     0.224 C 
HETATM   21  O4  UNL     1      41.036  -5.552  32.357  1.00  0.00    -0.273 OA
ENDROOT
BRANCH   1  22
HETATM   22  C5  UNL     1      42.066  -6.497  29.817  1.00  0.00     0.014 C 
BRANCH  22  23
HETATM   23  C4  UNL     1      43.189  -5.550  29.639  1.00  0.00     0.002 C 
BRANCH  23  24
HETATM   24  C3  UNL     1      42.925  -4.717  28.408  1.00  0.00     0.020 C 
BRANCH  24  25
HETATM   25  C2  UNL     1      43.870  -3.582  28.213  1.00  0.00     0.122 C 
BRANCH  25  26
HETATM   26  N3  UNL     1      43.568  -2.910  26.956  1.00  0.00    -0.365 N 
HETATM   27  C1  UNL     1      44.510  -2.862  25.914  1.00  0.00     0.181 C 
HETATM   28  N1  UNL     1      44.646  -3.763  25.017  1.00  0.00    -0.374 N 
HETATM   29  N2  UNL     1      45.365  -1.709  25.878  1.00  0.00    -0.064 NA
ATOM     30  H12 UNL     1      45.330  -3.728  24.260  1.00  0.00     0.158 HD
ATOM     31  H11 UNL     1      44.038  -4.581  25.042  1.00  0.00     0.158 HD
ATOM     32  H3  UNL     1      42.659  -2.466  26.830  1.00  0.00     0.162 HD
ENDBRANCH  25  26
ENDBRANCH  24  25
ENDBRANCH  23  24
ENDBRANCH  22  23
ENDBRANCH   1  22
BRANCH  12  33
HETATM   33  C15 UNL     1      36.564  -0.949  31.179  1.00  0.00     0.222 C 
HETATM   34  O1  UNL     1      35.506  -0.586  30.616  1.00  0.00    -0.273 OA
HETATM   35  N5  UNL     1      36.990  -0.252  32.334  1.00  0.00    -0.351 N 
ATOM     36  H5  UNL     1      37.852  -0.555  32.787  1.00  0.00     0.163 HD
BRANCH  35  37
HETATM   37  C16 UNL     1      36.279   0.857  32.908  1.00  0.00     0.235 C 
BRANCH  37  38
HETATM   38  C17 UNL     1      37.206   1.822  33.549  1.00  0.00     0.191 C 
HETATM   39  O2  UNL     1      38.427   1.552  33.709  1.00  0.00    -0.647 OA
HETATM   40  O3  UNL     1      36.751   3.049  33.990  1.00  0.00    -0.647 OA
ENDBRANCH  37  38
ENDBRANCH  35  37
ENDBRANCH  12  33
TORSDOF 8
ENDMDL
MODEL 3
REMARK VINA RESULT: -6.813745399      1.613      1.986
REMARK  8 active torsions:
REMARK  status: ('A' for Active; 'I' for Inactive)
REMARK       I    between atoms: C1_4  and  N3_6 
REMARK    1  A    between atoms: N3_6  and  C2_8 
REMARK    2  A    between atoms: C2_8  and  C3_9 
REMARK    3  A    between atoms: C3_9  and  C4_10 
REMARK    4  A    between atoms: C4_10  and  C5_11 
REMARK    5  A    between atoms: C5_11  and  C6_12 
REMARK    6  A    between atoms: C14_23  and  C15_24 
REMARK       I    between atoms: C15_24  and  N5_26 
REMARK    7  A    between atoms: N5_26  and  C16_28 
REMARK    8  A    between atoms: C16_28  and  C17_29 
ROOT
HETATM    1  C6  UNL     1      39.333  -2.131  31.211  1.00  0.00     0.078 C 
HETATM    2  C7  UNL     1      40.324  -1.018  31.522  1.00  0.00     0.015 C 
HETATM    3  C8  UNL     1      40.893  -0.431  30.226  1.00  0.00     0.028 C 
HETATM    4  C9  UNL     1      41.845  -1.459  29.686  1.00  0.00     0.232 C 
HETATM    5  N4  UNL     1      42.924  -0.950  28.907  1.00  0.00    -0.075 N 
ATOM      6  H41 UNL     1      43.219  -0.017  29.196  1.00  0.00     0.277 HD
ATOM      7  H42 UNL     1      42.650  -0.714  27.954  1.00  0.00     0.277 HD
HETATM    8  C10 UNL     1      44.006  -1.933  28.963  1.00  0.00     0.232 C 
HETATM    9  C11 UNL     1      43.581  -3.218  28.273  1.00  0.00     0.027 C 
HETATM   10  C12 UNL     1      43.976  -4.411  29.079  1.00  0.00     0.002 C 
HETATM   11  C13 UNL     1      42.813  -5.369  29.359  1.00  0.00     0.014 C 
HETATM   12  C14 UNL     1      42.800  -5.780  30.799  1.00  0.00     0.080 C 
HETATM   13  C18 UNL     1      41.471  -5.919  31.450  1.00  0.00     0.039 C 
HETATM   14  C19 UNL     1      40.344  -5.127  30.945  1.00  0.00     0.088 C 
HETATM   15  C20 UNL     1      39.332  -5.944  30.173  1.00  0.00     0.025 C 
HETATM   16  C21 UNL     1      38.692  -7.015  31.010  1.00  0.00     0.004 C 
HETATM   17  C22 UNL     1      38.252  -6.588  32.350  1.00  0.00     0.020 C 
HETATM   18  C23 UNL     1      39.089  -5.528  33.004  1.00  0.00     0.126 C 
HETATM   19  N6  UNL     1      39.623  -4.552  32.070  1.00  0.00    -0.347 N 
HETATM   20  C24 UNL     1      39.437  -3.159  32.278  1.00  0.00     0.224 C 
HETATM   21  O4  UNL     1      39.344  -2.716  33.471  1.00  0.00    -0.273 OA
ENDROOT
BRANCH   1  22
HETATM   22  C5  UNL     1      37.960  -1.458  31.256  1.00  0.00     0.014 C 
BRANCH  22  23
HETATM   23  C4  UNL     1      36.864  -2.331  30.781  1.00  0.00     0.002 C 
BRANCH  23  24
HETATM   24  C3  UNL     1      37.205  -2.820  29.394  1.00  0.00     0.020 C 
BRANCH  24  25
HETATM   25  C2  UNL     1      36.071  -2.786  28.429  1.00  0.00     0.122 C 
BRANCH  25  26
HETATM   26  N3  UNL     1      35.885  -1.422  27.947  1.00  0.00    -0.365 N 
HETATM   27  C1  UNL     1      34.599  -0.888  27.757  1.00  0.00     0.181 C 
HETATM   28  N1  UNL     1      33.913  -0.308  28.666  1.00  0.00    -0.374 N 
HETATM   29  N2  UNL     1      34.042  -1.017  26.440  1.00  0.00    -0.064 NA
ATOM     30  H12 UNL     1      32.979   0.080  28.528  1.00  0.00     0.158 HD
ATOM     31  H11 UNL     1      34.309  -0.216  29.602  1.00  0.00     0.158 HD
ATOM     32  H3  UNL     1      36.702  -0.847  27.744  1.00  0.00     0.162 HD
ENDBRANCH  25  26
ENDBRANCH  24  25
ENDBRANCH  23  24
ENDBRANCH  22  23
ENDBRANCH   1  22
BRANCH  12  33
HETATM   33  C15 UNL     1      43.673  -6.955  31.053  1.00  0.00     0.222 C 
HETATM   34  O1  UNL     1      43.679  -7.930  30.266  1.00  0.00    -0.273 OA
HETATM   35  N5  UNL     1      44.517  -6.998  32.188  1.00  0.00    -0.351 N 
ATOM     36  H5  UNL     1      44.507  -6.200  32.823  1.00  0.00     0.163 HD
BRANCH  35  37
HETATM   37  C16 UNL     1      45.387  -8.099  32.499  1.00  0.00     0.235 C 
BRANCH  37  38
HETATM   38  C17 UNL     1      46.687  -7.980  31.794  1.00  0.00     0.191 C 
HETATM   39  O2  UNL     1      47.475  -7.024  32.029  1.00  0.00    -0.647 OA
HETATM   40  O3  UNL     1      47.068  -8.918  30.856  1.00  0.00    -0.647 OA
ENDBRANCH  37  38
ENDBRANCH  35  37
ENDBRANCH  12  33
TORSDOF 8
ENDMDL
MODEL 4
REMARK VINA RESULT: -6.758992765      5.146      9.072
REMARK  8 active torsions:
REMARK  status: ('A' for Active; 'I' for Inactive)
REMARK       I    between atoms: C1_4  and  N3_6 
REMARK    1  A    between atoms: N3_6  and  C2_8 
REMARK    2  A    between atoms: C2_8  and  C3_9 
REMARK    3  A    between atoms: C3_9  and  C4_10 
REMARK    4  A    between atoms: C4_10  and  C5_11 
REMARK    5  A    between atoms: C5_11  and  C6_12 
REMARK    6  A    between atoms: C14_23  and  C15_24 
REMARK       I    between atoms: C15_24  and  N5_26 
REMARK    7  A    between atoms: N5_26  and  C16_28 
REMARK    8  A    between atoms: C16_28  and  C17_29 
ROOT
HETATM    1  C6  UNL     1      41.192  -1.563  31.572  1.00  0.00     0.078 C 
HETATM    2  C7  UNL     1      42.438  -0.739  31.279  1.00  0.00     0.015 C 
HETATM    3  C8  UNL     1      43.574  -1.132  32.229  1.00  0.00     0.028 C 
HETATM    4  C9  UNL     1      43.215  -0.557  33.568  1.00  0.00     0.232 C 
HETATM    5  N4  UNL     1      44.315  -0.227  34.412  1.00  0.00    -0.075 N 
ATOM      6  H41 UNL     1      45.146   0.053  33.893  1.00  0.00     0.277 HD
ATOM      7  H42 UNL     1      44.717  -1.041  34.878  1.00  0.00     0.277 HD
HETATM    8  C10 UNL     1      43.856   0.798  35.350  1.00  0.00     0.232 C 
HETATM    9  C11 UNL     1      42.794   0.223  36.274  1.00  0.00     0.027 C 
HETATM   10  C12 UNL     1      41.654   1.175  36.430  1.00  0.00     0.002 C 
HETATM   11  C13 UNL     1      40.290   0.543  36.131  1.00  0.00     0.014 C 
HETATM   12  C14 UNL     1      39.473   1.440  35.252  1.00  0.00     0.080 C 
HETATM   13  C18 UNL     1      38.640   0.786  34.209  1.00  0.00     0.039 C 
HETATM   14  C19 UNL     1      39.058  -0.515  33.675  1.00  0.00     0.088 C 
HETATM   15  C20 UNL     1      38.206  -1.667  34.160  1.00  0.00     0.025 C 
HETATM   16  C21 UNL     1      36.767  -1.537  33.747  1.00  0.00     0.004 C 
HETATM   17  C22 UNL     1      36.548  -1.152  32.342  1.00  0.00     0.020 C 
HETATM   18  C23 UNL     1      37.581  -0.242  31.746  1.00  0.00     0.126 C 
HETATM   19  N6  UNL     1      38.927  -0.500  32.226  1.00  0.00    -0.347 N 
HETATM   20  C24 UNL     1      40.000  -0.712  31.320  1.00  0.00     0.224 C 
HETATM   21  O4  UNL     1      39.974  -0.139  30.179  1.00  0.00    -0.273 OA
ENDROOT
BRANCH   1  22
HETATM   22  C5  UNL     1      41.239  -2.718  30.571  1.00  0.00     0.014 C 
BRANCH  22  23
HETATM   23  C4  UNL     1      42.218  -2.510  29.482  1.00  0.00     0.002 C 
BRANCH  23  24
HETATM   24  C3  UNL     1      42.766  -3.853  29.064  1.00  0.00     0.020 C 
BRANCH  24  25
HETATM   25  C2  UNL     1      43.951  -3.785  28.164  1.00  0.00     0.122 C 
BRANCH  25  26
HETATM   26  N3  UNL     1      43.519  -3.429  26.818  1.00  0.00    -0.365 N 
HETATM   27  C1  UNL     1      44.416  -3.455  25.737  1.00  0.00     0.181 C 
HETATM   28  N1  UNL     1      44.666  -4.488  25.026  1.00  0.00    -0.374 N 
HETATM   29  N2  UNL     1      45.084  -2.221  25.431  1.00  0.00    -0.064 NA
ATOM     30  H12 UNL     1      45.317  -4.506  24.241  1.00  0.00     0.158 HD
ATOM     31  H11 UNL     1      44.191  -5.364  25.243  1.00  0.00     0.158 HD
ATOM     32  H3  UNL     1      42.550  -3.155  26.659  1.00  0.00     0.162 HD
ENDBRANCH  25  26
ENDBRANCH  24  25
ENDBRANCH  23  24
ENDBRANCH  22  23
ENDBRANCH   1  22
BRANCH  12  33
HETATM   33  C15 UNL     1      38.705   2.441  36.036  1.00  0.00     0.222 C 
HETATM   34  O1  UNL     1      37.677   2.106  36.668  1.00  0.00    -0.273 OA
HETATM   35  N5  UNL     1      39.118   3.794  36.084  1.00  0.00    -0.351 N 
ATOM     36  H5  UNL     1      39.956   4.058  35.567  1.00  0.00     0.163 HD
BRANCH  35  37
HETATM   37  C16 UNL     1      38.427   4.817  36.818  1.00  0.00     0.235 C 
BRANCH  37  38
HETATM   38  C17 UNL     1      37.526   5.602  35.939  1.00  0.00     0.191 C 
HETATM   39  O2  UNL     1      37.670   6.847  35.797  1.00  0.00    -0.647 OA
HETATM   40  O3  UNL     1      36.499   4.986  35.251  1.00  0.00    -0.647 OA
ENDBRANCH  37  38
ENDBRANCH  35  37
ENDBRANCH  12  33
TORSDOF 8
ENDMDL
MODEL 5
REMARK VINA RESULT: -6.717866982      4.776      8.409
REMARK  8 active torsions:
REMARK  status: ('A' for Active; 'I' for Inactive)
REMARK       I    between atoms: C1_4  and  N3_6 
REMARK    1  A    between atoms: N3_6  and  C2_8 
REMARK    2  A    between atoms: C2_8  and  C3_9 
REMARK    3  A    between atoms: C3_9  and  C4_10 
REMARK    4  A    between atoms: C4_10  and  C5_11 
REMARK    5  A    between atoms: C5_11  and  C6_12 
REMARK    6  A    between atoms: C14_23  and  C15_24 
REMARK       I    between atoms: C15_24  and  N5_26 
REMARK    7  A    between atoms: N5_26  and  C16_28 
REMARK    8  A    between atoms: C16_28  and  C17_29 
ROOT
HETATM    1  C6  UNL     1      41.320  -2.194  30.865  1.00  0.00     0.078 C 
HETATM    2  C7  UNL     1      42.247  -1.178  30.213  1.00  0.00     0.015 C 
HETATM    3  C8  UNL     1      43.660  -1.294  30.793  1.00  0.00     0.028 C 
HETATM    4  C9  UNL     1      43.593  -0.707  32.173  1.00  0.00     0.232 C 
HETATM    5  N4  UNL     1      44.802  -0.128  32.657  1.00  0.00    -0.075 N 
ATOM      6  H41 UNL     1      45.380   0.265  31.914  1.00  0.00     0.277 HD
ATOM      7  H42 UNL     1      45.470  -0.822  32.992  1.00  0.00     0.277 HD
HETATM    8  C10 UNL     1      44.439   0.854  33.678  1.00  0.00     0.232 C 
HETATM    9  C11 UNL     1      43.817   0.157  34.877  1.00  0.00     0.027 C 
HETATM   10  C12 UNL     1      42.607   0.892  35.351  1.00  0.00     0.002 C 
HETATM   11  C13 UNL     1      41.364   0.003  35.469  1.00  0.00     0.014 C 
HETATM   12  C14 UNL     1      40.173   0.676  34.859  1.00  0.00     0.080 C 
HETATM   13  C18 UNL     1      39.220  -0.186  34.110  1.00  0.00     0.039 C 
HETATM   14  C19 UNL     1      39.713  -1.419  33.490  1.00  0.00     0.088 C 
HETATM   15  C20 UNL     1      39.275  -2.674  34.212  1.00  0.00     0.025 C 
HETATM   16  C21 UNL     1      37.781  -2.836  34.237  1.00  0.00     0.004 C 
HETATM   17  C22 UNL     1      37.100  -2.590  32.953  1.00  0.00     0.020 C 
HETATM   18  C23 UNL     1      37.724  -1.547  32.074  1.00  0.00     0.126 C 
HETATM   19  N6  UNL     1      39.174  -1.523  32.141  1.00  0.00    -0.347 N 
HETATM   20  C24 UNL     1      39.965  -1.593  30.964  1.00  0.00     0.224 C 
HETATM   21  O4  UNL     1      39.504  -1.111  29.875  1.00  0.00    -0.273 OA
ENDROOT
BRANCH   1  22
HETATM   22  C5  UNL     1      41.303  -3.384  29.904  1.00  0.00     0.014 C 
BRANCH  22  23
HETATM   23  C4  UNL     1      42.401  -4.346  30.144  1.00  0.00     0.002 C 
BRANCH  23  24
HETATM   24  C3  UNL     1      42.922  -4.824  28.810  1.00  0.00     0.020 C 
BRANCH  24  25
HETATM   25  C2  UNL     1      43.892  -3.901  28.157  1.00  0.00     0.122 C 
BRANCH  25  26
HETATM   26  N3  UNL     1      43.428  -3.583  26.811  1.00  0.00    -0.365 N 
HETATM   27  C1  UNL     1      44.314  -3.580  25.720  1.00  0.00     0.181 C 
HETATM   28  N1  UNL     1      44.606  -4.609  25.019  1.00  0.00    -0.374 N 
HETATM   29  N2  UNL     1      44.918  -2.320  25.392  1.00  0.00    -0.064 NA
ATOM     30  H12 UNL     1      45.249  -4.606  24.227  1.00  0.00     0.158 HD
ATOM     31  H11 UNL     1      44.176  -5.504  25.253  1.00  0.00     0.158 HD
ATOM     32  H3  UNL     1      42.445  -3.359  26.660  1.00  0.00     0.162 HD
ENDBRANCH  25  26
ENDBRANCH  24  25
ENDBRANCH  23  24
ENDBRANCH  22  23
ENDBRANCH   1  22
BRANCH  12  33
HETATM   33  C15 UNL     1      39.480   1.569  35.824  1.00  0.00     0.222 C 
HETATM   34  O1  UNL     1      39.186   1.165  36.972  1.00  0.00    -0.273 OA
HETATM   35  N5  UNL     1      39.139   2.895  35.466  1.00  0.00    -0.351 N 
ATOM     36  H5  UNL     1      39.383   3.217  34.529  1.00  0.00     0.163 HD
BRANCH  35  37
HETATM   37  C16 UNL     1      38.470   3.815  36.343  1.00  0.00     0.235 C 
BRANCH  37  38
HETATM   38  C17 UNL     1      37.371   4.528  35.647  1.00  0.00     0.191 C 
HETATM   39  O2  UNL     1      37.351   5.787  35.570  1.00  0.00    -0.647 OA
HETATM   40  O3  UNL     1      36.335   3.827  35.063  1.00  0.00    -0.647 OA
ENDBRANCH  37  38
ENDBRANCH  35  37
ENDBRANCH  12  33
TORSDOF 8
ENDMDL
