MODEL 1
REMARK VINA RESULT: -8.264211141      0.000      0.000
REMARK  12 active torsions:
REMARK  status: ('A' for Active; 'I' for Inactive)
REMARK    1  A    between atoms: C4_4  and  C5_5 
REMARK    2  A    between atoms: C5_5  and  C6_6 
REMARK    3  A    between atoms: C9_9  and  O1_10 
REMARK    4  A    between atoms: C9_9  and  C10_12 
REMARK    5  A    between atoms: C10_12  and  C11_13 
REMARK    6  A    between atoms: C12_14  and  C13_15 
REMARK    7  A    between atoms: C15_19  and  N2_20 
REMARK    8  A    between atoms: C16_25  and  C17_26 
REMARK    9  A    between atoms: C17_26  and  C18_27 
REMARK   10  A    between atoms: C18_27  and  C19_28 
REMARK   11  A    between atoms: C19_28  and  C20_29 
REMARK   12  A    between atoms: C20_29  and  N4_30 
REMARK       I    between atoms: N4_30  and  C21_32 
ROOT
HETATM    1  C10 UNL     1      41.947  -1.152  31.021  1.00  0.00     0.033 C 
HETATM    2  C16 UNL     1      42.634  -0.809  32.068  1.00  0.00    -0.007 C 
ENDROOT
BRANCH   1   3
HETATM    3  C9  UNL     1      40.490  -1.213  31.015  1.00  0.00     0.148 C 
HETATM    4  C8  UNL     1      40.022  -1.767  29.664  1.00  0.00     0.017 C 
HETATM    5  C7  UNL     1      38.908  -2.479  29.534  1.00  0.00    -0.007 C 
HETATM    6  C6  UNL     1      38.001  -2.803  30.715  1.00  0.00     0.070 C 
HETATM    7  C25 UNL     1      38.611  -3.761  31.688  1.00  0.00     0.143 C 
HETATM    8  C26 UNL     1      38.281  -1.615  31.536  1.00  0.00     0.180 C 
HETATM    9  C24 UNL     1      38.501  -3.309  33.155  1.00  0.00     0.037 C 
HETATM   10  O2  UNL     1      39.916  -3.323  31.494  1.00  0.00    -0.362 OA
HETATM   11  C23 UNL     1      39.604  -2.210  33.299  1.00  0.00     0.053 C 
HETATM   12  C22 UNL     1      39.727  -1.965  31.911  1.00  0.00     0.162 C 
HETATM   13  O3  UNL     1      37.632  -0.696  31.822  1.00  0.00    -0.293 OA
BRANCH   6  14
HETATM   14  C5  UNL     1      36.617  -3.045  30.312  1.00  0.00     0.051 C 
BRANCH  14  15
HETATM   15  C4  UNL     1      36.283  -2.345  29.073  1.00  0.00    -0.023 C 
HETATM   16  C2  UNL     1      35.415  -1.368  28.929  1.00  0.00    -0.091 C 
HETATM   17  C1  UNL     1      34.613  -0.801  30.032  1.00  0.00     0.042 C 
HETATM   18  C3  UNL     1      35.200  -0.765  27.574  1.00  0.00     0.042 C 
ENDBRANCH  14  15
ENDBRANCH   6  14
BRANCH   3  19
HETATM   19  O1  UNL     1      40.038   0.135  30.962  1.00  0.00    -0.377 OA
ATOM     20  H1  UNL     1      40.854   0.622  30.957  1.00  0.00     0.211 HD
ENDBRANCH   3  19
ENDBRANCH   1   3
BRANCH   1  21
HETATM   21  C11 UNL     1      42.624  -1.522  29.774  1.00  0.00    -0.061 C 
HETATM   22  C12 UNL     1      43.162  -1.841  28.741  1.00  0.00    -0.042 C 
BRANCH  22  23
HETATM   23  C13 UNL     1      43.778  -2.224  27.502  1.00  0.00     0.119 A 
HETATM   24  C14 UNL     1      44.536  -1.417  26.681  1.00  0.00     0.145 A 
HETATM   25  N1  UNL     1      44.928  -2.154  25.619  1.00  0.00    -0.199 N 
HETATM   26  C15 UNL     1      44.428  -3.397  25.768  1.00  0.00     0.676 A 
ATOM     27  H1  UNL     1      45.502  -1.826  24.841  1.00  0.00     0.183 HD
HETATM   28  N3  UNL     1      43.724  -3.436  26.923  1.00  0.00    -0.183 N 
ATOM     29  H3  UNL     1      43.233  -4.250  27.293  1.00  0.00     0.185 HD
BRANCH  26  30
HETATM   30  N2  UNL     1      44.563  -4.415  24.982  1.00  0.00    -0.234 N 
ATOM     31  H22 UNL     1      45.023  -5.281  25.260  1.00  0.00     0.174 HD
ATOM     32  H21 UNL     1      44.249  -4.514  24.016  1.00  0.00     0.174 HD
ENDBRANCH  26  30
ENDBRANCH  22  23
ENDBRANCH   1  21
BRANCH   2  33
HETATM   33  C17 UNL     1      44.135  -0.781  31.956  1.00  0.00     0.028 C 
BRANCH  33  34
HETATM   34  C18 UNL     1      44.662   0.124  33.018  1.00  0.00     0.005 C 
BRANCH  34  35
HETATM   35  C19 UNL     1      44.126  -0.225  34.373  1.00  0.00     0.020 C 
BRANCH  35  36
HETATM   36  C20 UNL     1      44.750   0.671  35.408  1.00  0.00     0.122 C 
BRANCH  36  37
HETATM   37  N4  UNL     1      46.175   0.787  35.248  1.00  0.00    -0.365 N 
HETATM   38  C21 UNL     1      47.059  -0.154  35.826  1.00  0.00     0.181 C 
HETATM   39  N5  UNL     1      48.309  -0.224  35.453  1.00  0.00    -0.374 N 
HETATM   40  N6  UNL     1      46.674  -1.082  36.839  1.00  0.00    -0.064 NA
ATOM     41  H52 UNL     1      48.586   0.439  34.729  1.00  0.00     0.158 HD
ATOM     42  H51 UNL     1      48.947  -0.903  35.870  1.00  0.00     0.158 HD
ATOM     43  H4  UNL     1      46.555   1.563  34.707  1.00  0.00     0.162 HD
ENDBRANCH  36  37
ENDBRANCH  35  36
ENDBRANCH  34  35
ENDBRANCH  33  34
ENDBRANCH   2  33
TORSDOF 12
ENDMDL
MODEL 2
REMARK VINA RESULT: -8.197645846      3.644      4.593
REMARK  12 active torsions:
REMARK  status: ('A' for Active; 'I' for Inactive)
REMARK    1  A    between atoms: C4_4  and  C5_5 
REMARK    2  A    between atoms: C5_5  and  C6_6 
REMARK    3  A    between atoms: C9_9  and  O1_10 
REMARK    4  A    between atoms: C9_9  and  C10_12 
REMARK    5  A    between atoms: C10_12  and  C11_13 
REMARK    6  A    between atoms: C12_14  and  C13_15 
REMARK    7  A    between atoms: C15_19  and  N2_20 
REMARK    8  A    between atoms: C16_25  and  C17_26 
REMARK    9  A    between atoms: C17_26  and  C18_27 
REMARK   10  A    between atoms: C18_27  and  C19_28 
REMARK   11  A    between atoms: C19_28  and  C20_29 
REMARK   12  A    between atoms: C20_29  and  N4_30 
REMARK       I    between atoms: N4_30  and  C21_32 
ROOT
HETATM    1  C10 UNL     1      41.622  -2.493  30.830  1.00  0.00     0.033 C 
HETATM    2  C16 UNL     1      42.051  -3.160  31.858  1.00  0.00    -0.007 C 
ENDROOT
BRANCH   1   3
HETATM    3  C9  UNL     1      40.343  -1.792  30.818  1.00  0.00     0.148 C 
HETATM    4  C8  UNL     1      39.646  -2.055  29.478  1.00  0.00     0.017 C 
HETATM    5  C7  UNL     1      38.323  -2.092  29.360  1.00  0.00    -0.007 C 
HETATM    6  C6  UNL     1      37.388  -1.875  30.544  1.00  0.00     0.070 C 
HETATM    7  C25 UNL     1      37.423  -2.988  31.541  1.00  0.00     0.143 C 
HETATM    8  C26 UNL     1      38.248  -0.984  31.338  1.00  0.00     0.180 C 
HETATM    9  C24 UNL     1      37.574  -2.511  32.997  1.00  0.00     0.037 C 
HETATM   10  O2  UNL     1      38.766  -3.292  31.344  1.00  0.00    -0.362 OA
HETATM   11  C23 UNL     1      39.088  -2.137  33.120  1.00  0.00     0.053 C 
HETATM   12  C22 UNL     1      39.308  -2.022  31.728  1.00  0.00     0.162 C 
HETATM   13  O3  UNL     1      38.169   0.144  31.599  1.00  0.00    -0.293 OA
BRANCH   6  14
HETATM   14  C5  UNL     1      36.075  -1.376  30.140  1.00  0.00     0.051 C 
BRANCH  14  15
HETATM   15  C4  UNL     1      35.417  -2.281  29.198  1.00  0.00    -0.023 C 
HETATM   16  C2  UNL     1      34.924  -1.971  28.020  1.00  0.00    -0.091 C 
HETATM   17  C1  UNL     1      34.957  -0.614  27.438  1.00  0.00     0.042 C 
HETATM   18  C3  UNL     1      34.280  -3.035  27.184  1.00  0.00     0.042 C 
ENDBRANCH  14  15
ENDBRANCH   6  14
BRANCH   3  19
HETATM   19  O1  UNL     1      40.652  -0.406  30.732  1.00  0.00    -0.377 OA
ATOM     20  H1  UNL     1      41.571  -0.389  30.972  1.00  0.00     0.211 HD
ENDBRANCH   3  19
ENDBRANCH   1   3
BRANCH   1  21
HETATM   21  C11 UNL     1      42.416  -2.430  29.599  1.00  0.00    -0.061 C 
HETATM   22  C12 UNL     1      43.048  -2.376  28.571  1.00  0.00    -0.042 C 
BRANCH  22  23
HETATM   23  C13 UNL     1      43.781  -2.299  27.339  1.00  0.00     0.119 A 
HETATM   24  C14 UNL     1      44.601  -1.266  26.938  1.00  0.00     0.145 A 
HETATM   25  N1  UNL     1      45.099  -1.577  25.721  1.00  0.00    -0.199 N 
HETATM   26  C15 UNL     1      44.604  -2.780  25.366  1.00  0.00     0.676 A 
ATOM     27  H1  UNL     1      45.737  -1.004  25.170  1.00  0.00     0.183 HD
HETATM   28  N3  UNL     1      43.796  -3.219  26.359  1.00  0.00    -0.183 N 
ATOM     29  H3  UNL     1      43.284  -4.101  26.364  1.00  0.00     0.185 HD
BRANCH  26  30
HETATM   30  N2  UNL     1      44.823  -3.448  24.280  1.00  0.00    -0.234 N 
ATOM     31  H22 UNL     1      44.172  -4.138  23.905  1.00  0.00     0.174 HD
ATOM     32  H21 UNL     1      45.631  -3.399  23.659  1.00  0.00     0.174 HD
ENDBRANCH  26  30
ENDBRANCH  22  23
ENDBRANCH   1  21
BRANCH   2  33
HETATM   33  C17 UNL     1      43.389  -3.842  31.755  1.00  0.00     0.028 C 
BRANCH  33  34
HETATM   34  C18 UNL     1      43.151  -5.305  31.583  1.00  0.00     0.005 C 
BRANCH  34  35
HETATM   35  C19 UNL     1      43.767  -5.831  30.322  1.00  0.00     0.020 C 
BRANCH  35  36
HETATM   36  C20 UNL     1      42.746  -6.633  29.559  1.00  0.00     0.122 C 
BRANCH  36  37
HETATM   37  N4  UNL     1      41.563  -5.872  29.258  1.00  0.00    -0.365 N 
HETATM   38  C21 UNL     1      40.270  -6.403  29.479  1.00  0.00     0.181 C 
HETATM   39  N5  UNL     1      39.215  -5.634  29.484  1.00  0.00    -0.374 N 
HETATM   40  N6  UNL     1      40.014  -7.788  29.708  1.00  0.00    -0.064 NA
ATOM     41  H52 UNL     1      39.397  -4.644  29.321  1.00  0.00     0.158 HD
ATOM     42  H51 UNL     1      38.283  -6.017  29.644  1.00  0.00     0.158 HD
ATOM     43  H4  UNL     1      41.657  -4.931  28.878  1.00  0.00     0.162 HD
ENDBRANCH  36  37
ENDBRANCH  35  36
ENDBRANCH  34  35
ENDBRANCH  33  34
ENDBRANCH   2  33
TORSDOF 12
ENDMDL
MODEL 3
REMARK VINA RESULT: -8.176720537      1.083      1.496
REMARK  12 active torsions:
REMARK  status: ('A' for Active; 'I' for Inactive)
REMARK    1  A    between atoms: C4_4  and  C5_5 
REMARK    2  A    between atoms: C5_5  and  C6_6 
REMARK    3  A    between atoms: C9_9  and  O1_10 
REMARK    4  A    between atoms: C9_9  and  C10_12 
REMARK    5  A    between atoms: C10_12  and  C11_13 
REMARK    6  A    between atoms: C12_14  and  C13_15 
REMARK    7  A    between atoms: C15_19  and  N2_20 
REMARK    8  A    between atoms: C16_25  and  C17_26 
REMARK    9  A    between atoms: C17_26  and  C18_27 
REMARK   10  A    between atoms: C18_27  and  C19_28 
REMARK   11  A    between atoms: C19_28  and  C20_29 
REMARK   12  A    between atoms: C20_29  and  N4_30 
REMARK       I    between atoms: N4_30  and  C21_32 
ROOT
HETATM    1  C10 UNL     1      42.042  -1.586  31.277  1.00  0.00     0.033 C 
HETATM    2  C16 UNL     1      42.739  -1.055  32.236  1.00  0.00    -0.007 C 
ENDROOT
BRANCH   1   3
HETATM    3  C9  UNL     1      40.648  -1.981  31.436  1.00  0.00     0.148 C 
HETATM    4  C8  UNL     1      39.750  -0.864  30.890  1.00  0.00     0.017 C 
HETATM    5  C7  UNL     1      38.562  -1.107  30.348  1.00  0.00    -0.007 C 
HETATM    6  C6  UNL     1      37.990  -2.515  30.224  1.00  0.00     0.070 C 
HETATM    7  C25 UNL     1      38.720  -3.368  29.237  1.00  0.00     0.143 C 
HETATM    8  C26 UNL     1      38.642  -3.116  31.398  1.00  0.00     0.180 C 
HETATM    9  C24 UNL     1      39.087  -4.763  29.776  1.00  0.00     0.037 C 
HETATM   10  O2  UNL     1      39.963  -2.788  29.463  1.00  0.00    -0.362 OA
HETATM   11  C23 UNL     1      40.320  -4.500  30.702  1.00  0.00     0.053 C 
HETATM   12  C22 UNL     1      40.077  -3.115  30.854  1.00  0.00     0.162 C 
HETATM   13  O3  UNL     1      38.226  -3.483  32.417  1.00  0.00    -0.293 OA
BRANCH   6  14
HETATM   14  C5  UNL     1      36.530  -2.526  30.173  1.00  0.00     0.051 C 
BRANCH  14  15
HETATM   15  C4  UNL     1      36.013  -1.530  29.236  1.00  0.00    -0.023 C 
HETATM   16  C2  UNL     1      35.325  -1.762  28.139  1.00  0.00    -0.091 C 
HETATM   17  C1  UNL     1      34.953  -3.109  27.662  1.00  0.00     0.042 C 
HETATM   18  C3  UNL     1      34.873  -0.610  27.293  1.00  0.00     0.042 C 
ENDBRANCH  14  15
ENDBRANCH   6  14
BRANCH   3  19
HETATM   19  O1  UNL     1      40.379  -1.930  32.832  1.00  0.00    -0.377 OA
ATOM     20  H1  UNL     1      40.578  -1.025  33.043  1.00  0.00     0.211 HD
ENDBRANCH   3  19
ENDBRANCH   1   3
BRANCH   1  21
HETATM   21  C11 UNL     1      42.649  -1.835  29.966  1.00  0.00    -0.061 C 
HETATM   22  C12 UNL     1      43.157  -2.063  28.894  1.00  0.00    -0.042 C 
BRANCH  22  23
HETATM   23  C13 UNL     1      43.758  -2.359  27.625  1.00  0.00     0.119 A 
HETATM   24  C14 UNL     1      44.466  -1.483  26.830  1.00  0.00     0.145 A 
HETATM   25  N1  UNL     1      44.861  -2.149  25.723  1.00  0.00    -0.199 N 
HETATM   26  C15 UNL     1      44.411  -3.416  25.819  1.00  0.00     0.676 A 
ATOM     27  H1  UNL     1      45.402  -1.760  24.951  1.00  0.00     0.183 HD
HETATM   28  N3  UNL     1      43.736  -3.541  26.986  1.00  0.00    -0.183 N 
ATOM     29  H3  UNL     1      43.286  -4.391  27.324  1.00  0.00     0.185 HD
BRANCH  26  30
HETATM   30  N2  UNL     1      44.565  -4.387  24.979  1.00  0.00    -0.234 N 
ATOM     31  H22 UNL     1      43.787  -4.855  24.514  1.00  0.00     0.174 HD
ATOM     32  H21 UNL     1      45.434  -4.818  24.662  1.00  0.00     0.174 HD
ENDBRANCH  26  30
ENDBRANCH  22  23
ENDBRANCH   1  21
BRANCH   2  33
HETATM   33  C17 UNL     1      44.171  -0.686  31.955  1.00  0.00     0.028 C 
BRANCH  33  34
HETATM   34  C18 UNL     1      44.630   0.242  33.030  1.00  0.00     0.005 C 
BRANCH  34  35
HETATM   35  C19 UNL     1      44.130  -0.171  34.381  1.00  0.00     0.020 C 
BRANCH  35  36
HETATM   36  C20 UNL     1      44.784   0.677  35.440  1.00  0.00     0.122 C 
BRANCH  36  37
HETATM   37  N4  UNL     1      46.208   0.774  35.265  1.00  0.00    -0.365 N 
HETATM   38  C21 UNL     1      47.084  -0.194  35.811  1.00  0.00     0.181 C 
HETATM   39  N5  UNL     1      48.328  -0.276  35.422  1.00  0.00    -0.374 N 
HETATM   40  N6  UNL     1      46.695  -1.139  36.807  1.00  0.00    -0.064 NA
ATOM     41  H52 UNL     1      48.606   0.399  34.710  1.00  0.00     0.158 HD
ATOM     42  H51 UNL     1      48.959  -0.974  35.816  1.00  0.00     0.158 HD
ATOM     43  H4  UNL     1      46.595   1.556  34.738  1.00  0.00     0.162 HD
ENDBRANCH  36  37
ENDBRANCH  35  36
ENDBRANCH  34  35
ENDBRANCH  33  34
ENDBRANCH   2  33
TORSDOF 12
ENDMDL
MODEL 4
REMARK VINA RESULT: -8.143787577      1.313      6.099
REMARK  12 active torsions:
REMARK  status: ('A' for Active; 'I' for Inactive)
REMARK    1  A    between atoms: C4_4  and  C5_5 
REMARK    2  A    between atoms: C5_5  and  C6_6 
REMARK    3  A    between atoms: C9_9  and  O1_10 
REMARK    4  A    between atoms: C9_9  and  C10_12 
REMARK    5  A    between atoms: C10_12  and  C11_13 
REMARK    6  A    between atoms: C12_14  and  C13_15 
REMARK    7  A    between atoms: C15_19  and  N2_20 
REMARK    8  A    between atoms: C16_25  and  C17_26 
REMARK    9  A    between atoms: C17_26  and  C18_27 
REMARK   10  A    between atoms: C18_27  and  C19_28 
REMARK   11  A    between atoms: C19_28  and  C20_29 
REMARK   12  A    between atoms: C20_29  and  N4_30 
REMARK       I    between atoms: N4_30  and  C21_32 
ROOT
HETATM    1  C10 UNL     1      41.547  -1.980  31.307  1.00  0.00     0.033 C 
HETATM    2  C16 UNL     1      41.883  -3.042  30.641  1.00  0.00    -0.007 C 
ENDROOT
BRANCH   1   3
HETATM    3  C9  UNL     1      40.225  -1.373  31.216  1.00  0.00     0.148 C 
HETATM    4  C8  UNL     1      39.599  -1.747  29.867  1.00  0.00     0.017 C 
HETATM    5  C7  UNL     1      38.287  -1.882  29.705  1.00  0.00    -0.007 C 
HETATM    6  C6  UNL     1      37.295  -1.677  30.843  1.00  0.00     0.070 C 
HETATM    7  C25 UNL     1      37.369  -2.738  31.895  1.00  0.00     0.143 C 
HETATM    8  C26 UNL     1      38.060  -0.692  31.622  1.00  0.00     0.180 C 
HETATM    9  C24 UNL     1      37.431  -2.185  33.330  1.00  0.00     0.037 C 
HETATM   10  O2  UNL     1      38.736  -2.954  31.759  1.00  0.00    -0.362 OA
HETATM   11  C23 UNL     1      38.909  -1.699  33.488  1.00  0.00     0.053 C 
HETATM   12  C22 UNL     1      39.174  -1.633  32.100  1.00  0.00     0.162 C 
HETATM   13  O3  UNL     1      37.894   0.439  31.826  1.00  0.00    -0.293 OA
BRANCH   6  14
HETATM   14  C5  UNL     1      35.967  -1.292  30.370  1.00  0.00     0.051 C 
BRANCH  14  15
HETATM   15  C4  UNL     1      35.433  -2.257  29.410  1.00  0.00    -0.023 C 
HETATM   16  C2  UNL     1      35.011  -2.004  28.190  1.00  0.00    -0.091 C 
HETATM   17  C1  UNL     1      35.011  -0.662  27.574  1.00  0.00     0.042 C 
HETATM   18  C3  UNL     1      34.492  -3.125  27.341  1.00  0.00     0.042 C 
ENDBRANCH  14  15
ENDBRANCH   6  14
BRANCH   3  19
HETATM   19  O1  UNL     1      40.440   0.026  31.073  1.00  0.00    -0.377 OA
ATOM     20  H1  UNL     1      40.891   0.077  30.239  1.00  0.00     0.211 HD
ENDBRANCH   3  19
ENDBRANCH   1   3
BRANCH   1  21
HETATM   21  C11 UNL     1      42.514  -1.316  32.187  1.00  0.00    -0.061 C 
HETATM   22  C12 UNL     1      43.320  -0.756  32.891  1.00  0.00    -0.042 C 
BRANCH  22  23
HETATM   23  C13 UNL     1      44.279  -0.072  33.712  1.00  0.00     0.119 A 
HETATM   24  C14 UNL     1      45.376   0.637  33.272  1.00  0.00     0.145 A 
HETATM   25  N1  UNL     1      46.020   1.124  34.355  1.00  0.00    -0.199 N 
HETATM   26  C15 UNL     1      45.343   0.730  35.452  1.00  0.00     0.676 A 
ATOM     27  H1  UNL     1      46.869   1.689  34.344  1.00  0.00     0.183 HD
HETATM   28  N3  UNL     1      44.277  -0.002  35.055  1.00  0.00    -0.183 N 
ATOM     29  H3  UNL     1      43.586  -0.430  35.671  1.00  0.00     0.185 HD
BRANCH  26  30
HETATM   30  N2  UNL     1      45.614   0.977  36.693  1.00  0.00    -0.234 N 
ATOM     31  H22 UNL     1      45.738   1.919  37.064  1.00  0.00     0.174 HD
ATOM     32  H21 UNL     1      45.739   0.313  37.457  1.00  0.00     0.174 HD
ENDBRANCH  26  30
ENDBRANCH  22  23
ENDBRANCH   1  21
BRANCH   2  33
HETATM   33  C17 UNL     1      43.278  -3.580  30.816  1.00  0.00     0.028 C 
BRANCH  33  34
HETATM   34  C18 UNL     1      43.620  -4.384  29.606  1.00  0.00     0.005 C 
BRANCH  34  35
HETATM   35  C19 UNL     1      42.988  -3.830  28.365  1.00  0.00     0.020 C 
BRANCH  35  36
HETATM   36  C20 UNL     1      44.039  -3.161  27.520  1.00  0.00     0.122 C 
BRANCH  36  37
HETATM   37  N4  UNL     1      44.043  -3.641  26.165  1.00  0.00    -0.365 N 
HETATM   38  C21 UNL     1      44.492  -2.828  25.097  1.00  0.00     0.181 C 
HETATM   39  N5  UNL     1      44.768  -3.339  23.927  1.00  0.00    -0.374 N 
HETATM   40  N6  UNL     1      44.675  -1.416  25.203  1.00  0.00    -0.064 NA
ATOM     41  H52 UNL     1      44.637  -4.347  23.852  1.00  0.00     0.158 HD
ATOM     42  H51 UNL     1      45.091  -2.752  23.158  1.00  0.00     0.158 HD
ATOM     43  H4  UNL     1      43.715  -4.586  25.968  1.00  0.00     0.162 HD
ENDBRANCH  36  37
ENDBRANCH  35  36
ENDBRANCH  34  35
ENDBRANCH  33  34
ENDBRANCH   2  33
TORSDOF 12
ENDMDL
MODEL 5
REMARK VINA RESULT: -8.116782585      3.133      3.838
REMARK  12 active torsions:
REMARK  status: ('A' for Active; 'I' for Inactive)
REMARK    1  A    between atoms: C4_4  and  C5_5 
REMARK    2  A    between atoms: C5_5  and  C6_6 
REMARK    3  A    between atoms: C9_9  and  O1_10 
REMARK    4  A    between atoms: C9_9  and  C10_12 
REMARK    5  A    between atoms: C10_12  and  C11_13 
REMARK    6  A    between atoms: C12_14  and  C13_15 
REMARK    7  A    between atoms: C15_19  and  N2_20 
REMARK    8  A    between atoms: C16_25  and  C17_26 
REMARK    9  A    between atoms: C17_26  and  C18_27 
REMARK   10  A    between atoms: C18_27  and  C19_28 
REMARK   11  A    between atoms: C19_28  and  C20_29 
REMARK   12  A    between atoms: C20_29  and  N4_30 
REMARK       I    between atoms: N4_30  and  C21_32 
ROOT
HETATM    1  C10 UNL     1      41.646  -2.609  30.771  1.00  0.00     0.033 C 
HETATM    2  C16 UNL     1      42.072  -3.294  31.788  1.00  0.00    -0.007 C 
ENDROOT
BRANCH   1   3
HETATM    3  C9  UNL     1      40.378  -1.888  30.777  1.00  0.00     0.148 C 
HETATM    4  C8  UNL     1      39.650  -2.153  29.454  1.00  0.00     0.017 C 
HETATM    5  C7  UNL     1      38.325  -2.170  29.361  1.00  0.00    -0.007 C 
HETATM    6  C6  UNL     1      37.417  -1.926  30.561  1.00  0.00     0.070 C 
HETATM    7  C25 UNL     1      37.454  -3.030  31.569  1.00  0.00     0.143 C 
HETATM    8  C26 UNL     1      38.307  -1.041  31.329  1.00  0.00     0.180 C 
HETATM    9  C24 UNL     1      37.641  -2.541  33.017  1.00  0.00     0.037 C 
HETATM   10  O2  UNL     1      38.787  -3.356  31.349  1.00  0.00    -0.362 OA
HETATM   11  C23 UNL     1      39.163  -2.190  33.107  1.00  0.00     0.053 C 
HETATM   12  C22 UNL     1      39.357  -2.092  31.709  1.00  0.00     0.162 C 
HETATM   13  O3  UNL     1      38.251   0.091  31.581  1.00  0.00    -0.293 OA
BRANCH   6  14
HETATM   14  C5  UNL     1      36.105  -1.410  30.178  1.00  0.00     0.051 C 
BRANCH  14  15
HETATM   15  C4  UNL     1      35.425  -2.301  29.238  1.00  0.00    -0.023 C 
HETATM   16  C2  UNL     1      34.924  -1.977  28.066  1.00  0.00    -0.091 C 
HETATM   17  C1  UNL     1      34.970  -0.617  27.492  1.00  0.00     0.042 C 
HETATM   18  C3  UNL     1      34.258  -3.028  27.231  1.00  0.00     0.042 C 
ENDBRANCH  14  15
ENDBRANCH   6  14
BRANCH   3  19
HETATM   19  O1  UNL     1      40.707  -0.508  30.670  1.00  0.00    -0.377 OA
ATOM     20  H1  UNL     1      39.851  -0.099  30.631  1.00  0.00     0.211 HD
ENDBRANCH   3  19
ENDBRANCH   1   3
BRANCH   1  21
HETATM   21  C11 UNL     1      42.431  -2.545  29.535  1.00  0.00    -0.061 C 
HETATM   22  C12 UNL     1      43.060  -2.476  28.506  1.00  0.00    -0.042 C 
BRANCH  22  23
HETATM   23  C13 UNL     1      43.797  -2.373  27.278  1.00  0.00     0.119 A 
HETATM   24  C14 UNL     1      44.631  -1.339  26.910  1.00  0.00     0.145 A 
HETATM   25  N1  UNL     1      45.129  -1.621  25.686  1.00  0.00    -0.199 N 
HETATM   26  C15 UNL     1      44.620  -2.806  25.294  1.00  0.00     0.676 A 
ATOM     27  H1  UNL     1      45.776  -1.040  25.153  1.00  0.00     0.183 HD
HETATM   28  N3  UNL     1      43.804  -3.263  26.272  1.00  0.00    -0.183 N 
ATOM     29  H3  UNL     1      43.281  -4.139  26.250  1.00  0.00     0.185 HD
BRANCH  26  30
HETATM   30  N2  UNL     1      44.834  -3.445  24.190  1.00  0.00    -0.234 N 
ATOM     31  H22 UNL     1      45.043  -4.442  24.150  1.00  0.00     0.174 HD
ATOM     32  H21 UNL     1      44.829  -3.080  23.237  1.00  0.00     0.174 HD
ENDBRANCH  26  30
ENDBRANCH  22  23
ENDBRANCH   1  21
BRANCH   2  33
HETATM   33  C17 UNL     1      43.398  -3.996  31.667  1.00  0.00     0.028 C 
BRANCH  33  34
HETATM   34  C18 UNL     1      43.151  -5.466  31.729  1.00  0.00     0.005 C 
BRANCH  34  35
HETATM   35  C19 UNL     1      43.664  -6.174  30.512  1.00  0.00     0.020 C 
BRANCH  35  36
HETATM   36  C20 UNL     1      44.418  -7.409  30.928  1.00  0.00     0.122 C 
BRANCH  36  37
HETATM   37  N4  UNL     1      45.283  -7.172  32.052  1.00  0.00    -0.365 N 
HETATM   38  C21 UNL     1      46.592  -7.706  32.099  1.00  0.00     0.181 C 
HETATM   39  N5  UNL     1      47.471  -7.268  32.960  1.00  0.00    -0.374 N 
HETATM   40  N6  UNL     1      47.053  -8.743  31.234  1.00  0.00    -0.064 NA
ATOM     41  H52 UNL     1      47.142  -6.527  33.578  1.00  0.00     0.158 HD
ATOM     42  H51 UNL     1      48.414  -7.653  32.993  1.00  0.00     0.158 HD
ATOM     43  H4  UNL     1      44.946  -6.608  32.832  1.00  0.00     0.162 HD
ENDBRANCH  36  37
ENDBRANCH  35  36
ENDBRANCH  34  35
ENDBRANCH  33  34
ENDBRANCH   2  33
TORSDOF 12
ENDMDL
