MODEL 1
REMARK VINA RESULT: -7.625739714      0.000      0.000
REMARK  8 active torsions:
REMARK  status: ('A' for Active; 'I' for Inactive)
REMARK    1  A    between atoms: C2_2  and  N1_4 
REMARK    2  A    between atoms: N1_4  and  C5_6 
REMARK    3  A    between atoms: C5_6  and  O1_7 
REMARK    4  A    between atoms: C5_6  and  C6_9 
REMARK    5  A    between atoms: C7_12  and  C8_13 
REMARK       I    between atoms: N3_16  and  C11_17 
REMARK       I    between atoms: C11_17  and  N4_19 
REMARK    6  A    between atoms: N4_19  and  C12_21 
REMARK    7  A    between atoms: C12_21  and  C13_22 
REMARK    8  A    between atoms: C13_22  and  N5_23 
REMARK       I    between atoms: N5_23  and  C14_25 
ROOT
HETATM    1  C6  UNL     1      43.017   3.828  37.474  1.00  0.00     0.065 A 
HETATM    2  N2  UNL     1      42.673   3.251  36.325  1.00  0.00    -0.355 N 
ATOM      3  H2  UNL     1      41.923   3.560  35.706  1.00  0.00     0.166 HD
HETATM    4  C7  UNL     1      43.495   2.170  36.111  1.00  0.00     0.042 A 
HETATM    5  C17 UNL     1      44.352   2.104  37.161  1.00  0.00    -0.021 A 
HETATM    6  C18 UNL     1      44.087   3.129  38.049  1.00  0.00    -0.022 A 
HETATM    7  C19 UNL     1      44.787   3.362  39.335  1.00  0.00     0.043 C 
HETATM    8  C20 UNL     1      45.482   2.072  39.735  1.00  0.00     0.025 C 
HETATM    9  C21 UNL     1      46.326   1.582  38.577  1.00  0.00     0.087 C 
HETATM   10 CL1  UNL     1      47.344   0.266  39.164  1.00  0.00    -0.125 Cl
HETATM   11  C22 UNL     1      45.407   1.113  37.483  1.00  0.00     0.061 C 
ENDROOT
BRANCH   4  12
HETATM   12  C8  UNL     1      43.385   1.401  34.843  1.00  0.00    -0.050 C 
HETATM   13  C9  UNL     1      42.243   0.422  34.952  1.00  0.00     0.056 C 
HETATM   14  C10 UNL     1      41.853  -0.196  33.691  1.00  0.00     0.132 C 
HETATM   15  N3  UNL     1      42.933  -0.289  32.730  1.00  0.00    -0.333 N 
HETATM   16  C11 UNL     1      42.641  -1.208  31.648  1.00  0.00     0.322 C 
HETATM   17  C15 UNL     1      44.191   0.346  32.786  1.00  0.00     0.132 C 
HETATM   18  O2  UNL     1      41.621  -1.944  31.768  1.00  0.00    -0.247 OA
HETATM   19  N4  UNL     1      43.436  -1.301  30.508  1.00  0.00    -0.318 N 
ATOM     20  H4  UNL     1      44.228  -0.657  30.511  1.00  0.00     0.170 HD
HETATM   21  C16 UNL     1      44.548   0.928  34.171  1.00  0.00     0.056 C 
BRANCH  19  22
HETATM   22  C12 UNL     1      43.367  -2.104  29.353  1.00  0.00     0.110 C 
BRANCH  22  23
HETATM   23  C13 UNL     1      43.484  -1.634  27.973  1.00  0.00     0.107 C 
BRANCH  23  24
HETATM   24  N5  UNL     1      44.545  -2.015  27.128  1.00  0.00    -0.340 N 
HETATM   25  C14 UNL     1      44.288  -2.857  25.963  1.00  0.00     0.185 C 
HETATM   26  N6  UNL     1      44.096  -4.082  26.051  1.00  0.00    -0.374 N 
HETATM   27  N7  UNL     1      44.277  -2.146  24.718  1.00  0.00    -0.064 NA
ATOM     28  H62 UNL     1      44.104  -4.587  26.937  1.00  0.00     0.158 HD
ATOM     29  H61 UNL     1      43.917  -4.670  25.238  1.00  0.00     0.158 HD
ATOM     30  H5  UNL     1      45.495  -1.702  27.331  1.00  0.00     0.167 HD
ENDBRANCH  23  24
ENDBRANCH  22  23
ENDBRANCH  19  22
ENDBRANCH   4  12
BRANCH   1  31
HETATM   31  C5  UNL     1      42.286   4.966  38.064  1.00  0.00     0.267 C 
BRANCH  31  32
HETATM   32  N1  UNL     1      41.697   4.806  39.314  1.00  0.00    -0.384 N 
HETATM   33  C4  UNL     1      42.031   5.550  40.442  1.00  0.00     0.146 C 
BRANCH  32  34
HETATM   34  C2  UNL     1      40.298   4.558  39.161  1.00  0.00     0.073 C 
HETATM   35  C1  UNL     1      39.706   5.324  37.988  1.00  0.00     0.031 C 
HETATM   36  C3  UNL     1      39.942   3.104  38.908  1.00  0.00     0.031 C 
ENDBRANCH  32  34
ENDBRANCH  31  32
BRANCH  31  37
HETATM   37  O1  UNL     1      43.178   6.076  38.115  1.00  0.00    -0.371 OA
ATOM     38  H1  UNL     1      44.069   5.750  38.170  1.00  0.00     0.212 HD
ENDBRANCH  31  37
ENDBRANCH   1  31
TORSDOF 8
ENDMDL
MODEL 2
REMARK VINA RESULT: -7.618766041      2.686     10.476
REMARK  8 active torsions:
REMARK  status: ('A' for Active; 'I' for Inactive)
REMARK    1  A    between atoms: C2_2  and  N1_4 
REMARK    2  A    between atoms: N1_4  and  C5_6 
REMARK    3  A    between atoms: C5_6  and  O1_7 
REMARK    4  A    between atoms: C5_6  and  C6_9 
REMARK    5  A    between atoms: C7_12  and  C8_13 
REMARK       I    between atoms: N3_16  and  C11_17 
REMARK       I    between atoms: C11_17  and  N4_19 
REMARK    6  A    between atoms: N4_19  and  C12_21 
REMARK    7  A    between atoms: C12_21  and  C13_22 
REMARK    8  A    between atoms: C13_22  and  N5_23 
REMARK       I    between atoms: N5_23  and  C14_25 
ROOT
HETATM    1  C6  UNL     1      42.245  -2.066  30.346  1.00  0.00     0.065 A 
HETATM    2  N2  UNL     1      42.396  -0.907  30.983  1.00  0.00    -0.355 N 
ATOM      3  H2  UNL     1      42.414   0.014  30.545  1.00  0.00     0.166 HD
HETATM    4  C7  UNL     1      42.523  -1.157  32.329  1.00  0.00     0.042 A 
HETATM    5  C17 UNL     1      42.444  -2.502  32.496  1.00  0.00    -0.021 A 
HETATM    6  C18 UNL     1      42.271  -3.118  31.271  1.00  0.00    -0.022 A 
HETATM    7  C19 UNL     1      42.183  -4.581  31.044  1.00  0.00     0.043 C 
HETATM    8  C20 UNL     1      42.773  -5.283  32.254  1.00  0.00     0.025 C 
HETATM    9  C21 UNL     1      42.118  -4.747  33.510  1.00  0.00     0.087 C 
HETATM   10 CL1  UNL     1      42.597  -5.779  34.857  1.00  0.00    -0.125 Cl
HETATM   11  C22 UNL     1      42.577  -3.330  33.718  1.00  0.00     0.061 C 
ENDROOT
BRANCH   4  12
HETATM   12  C8  UNL     1      42.609  -0.021  33.284  1.00  0.00    -0.050 C 
HETATM   13  C9  UNL     1      44.059   0.278  33.573  1.00  0.00     0.056 C 
HETATM   14  C10 UNL     1      44.291   1.536  34.272  1.00  0.00     0.132 C 
HETATM   15  N3  UNL     1      43.179   1.952  35.103  1.00  0.00    -0.333 N 
HETATM   16  C11 UNL     1      43.547   2.983  36.053  1.00  0.00     0.322 C 
HETATM   17  C15 UNL     1      41.870   1.429  35.113  1.00  0.00     0.132 C 
HETATM   18  O2  UNL     1      44.778   3.241  36.186  1.00  0.00    -0.247 OA
HETATM   19  N4  UNL     1      42.605   3.680  36.804  1.00  0.00    -0.318 N 
ATOM     20  H4  UNL     1      41.643   3.400  36.613  1.00  0.00     0.170 HD
HETATM   21  C16 UNL     1      41.723   0.070  34.395  1.00  0.00     0.056 C 
BRANCH  19  22
HETATM   22  C12 UNL     1      42.713   4.695  37.776  1.00  0.00     0.110 C 
BRANCH  22  23
HETATM   23  C13 UNL     1      42.878   4.490  39.215  1.00  0.00     0.107 C 
BRANCH  23  24
HETATM   24  N5  UNL     1      43.279   3.257  39.765  1.00  0.00    -0.340 N 
HETATM   25  C14 UNL     1      44.689   3.004  40.045  1.00  0.00     0.185 C 
HETATM   26  N6  UNL     1      45.508   2.720  39.154  1.00  0.00    -0.374 N 
HETATM   27  N7  UNL     1      45.040   3.113  41.431  1.00  0.00    -0.064 NA
ATOM     28  H62 UNL     1      45.259   2.643  38.169  1.00  0.00     0.158 HD
ATOM     29  H61 UNL     1      46.494   2.543  39.350  1.00  0.00     0.158 HD
ATOM     30  H5  UNL     1      42.582   2.540  39.968  1.00  0.00     0.167 HD
ENDBRANCH  23  24
ENDBRANCH  22  23
ENDBRANCH  19  22
ENDBRANCH   4  12
BRANCH   1  31
HETATM   31  C5  UNL     1      42.170  -2.183  28.877  1.00  0.00     0.267 C 
BRANCH  31  32
HETATM   32  N1  UNL     1      43.287  -2.638  28.184  1.00  0.00    -0.384 N 
HETATM   33  C4  UNL     1      43.470  -3.951  27.761  1.00  0.00     0.146 C 
BRANCH  32  34
HETATM   34  C2  UNL     1      43.709  -1.648  27.244  1.00  0.00     0.073 C 
HETATM   35  C1  UNL     1      44.666  -0.642  27.863  1.00  0.00     0.031 C 
HETATM   36  C3  UNL     1      44.439  -2.202  26.034  1.00  0.00     0.031 C 
ENDBRANCH  32  34
ENDBRANCH  31  32
BRANCH  31  37
HETATM   37  O1  UNL     1      41.062  -3.022  28.564  1.00  0.00    -0.371 OA
ATOM     38  H1  UNL     1      40.266  -2.506  28.606  1.00  0.00     0.212 HD
ENDBRANCH  31  37
ENDBRANCH   1  31
TORSDOF 8
ENDMDL
MODEL 3
REMARK VINA RESULT: -7.572258266      1.723      2.341
REMARK  8 active torsions:
REMARK  status: ('A' for Active; 'I' for Inactive)
REMARK    1  A    between atoms: C2_2  and  N1_4 
REMARK    2  A    between atoms: N1_4  and  C5_6 
REMARK    3  A    between atoms: C5_6  and  O1_7 
REMARK    4  A    between atoms: C5_6  and  C6_9 
REMARK    5  A    between atoms: C7_12  and  C8_13 
REMARK       I    between atoms: N3_16  and  C11_17 
REMARK       I    between atoms: C11_17  and  N4_19 
REMARK    6  A    between atoms: N4_19  and  C12_21 
REMARK    7  A    between atoms: C12_21  and  C13_22 
REMARK    8  A    between atoms: C13_22  and  N5_23 
REMARK       I    between atoms: N5_23  and  C14_25 
ROOT
HETATM    1  C6  UNL     1      43.032   1.606  38.139  1.00  0.00     0.065 A 
HETATM    2  N2  UNL     1      42.612   0.999  37.030  1.00  0.00    -0.355 N 
ATOM      3  H2  UNL     1      41.655   1.001  36.678  1.00  0.00     0.166 HD
HETATM    4  C7  UNL     1      43.683   0.371  36.439  1.00  0.00     0.042 A 
HETATM    5  C17 UNL     1      44.769   0.612  37.217  1.00  0.00    -0.021 A 
HETATM    6  C18 UNL     1      44.405   1.385  38.303  1.00  0.00    -0.022 A 
HETATM    7  C19 UNL     1      45.309   1.820  39.397  1.00  0.00     0.043 C 
HETATM    8  C20 UNL     1      46.529   0.916  39.388  1.00  0.00     0.025 C 
HETATM    9  C21 UNL     1      47.114   0.882  37.991  1.00  0.00     0.087 C 
HETATM   10 CL1  UNL     1      48.682   0.079  38.076  1.00  0.00    -0.125 Cl
HETATM   11  C22 UNL     1      46.166   0.133  37.096  1.00  0.00     0.061 C 
ENDROOT
BRANCH   4  12
HETATM   12  C8  UNL     1      43.507  -0.306  35.127  1.00  0.00    -0.050 C 
HETATM   13  C9  UNL     1      43.547   0.726  34.026  1.00  0.00     0.056 C 
HETATM   14  C10 UNL     1      43.663   0.173  32.683  1.00  0.00     0.132 C 
HETATM   15  N3  UNL     1      43.102  -1.156  32.551  1.00  0.00    -0.333 N 
HETATM   16  C11 UNL     1      42.897  -1.541  31.168  1.00  0.00     0.322 C 
HETATM   17  C15 UNL     1      42.702  -2.028  33.585  1.00  0.00     0.132 C 
HETATM   18  O2  UNL     1      43.026  -0.644  30.288  1.00  0.00    -0.247 OA
HETATM   19  N4  UNL     1      42.569  -2.842  30.794  1.00  0.00    -0.318 N 
ATOM     20  H4  UNL     1      42.498  -3.487  31.581  1.00  0.00     0.170 HD
HETATM   21  C16 UNL     1      42.554  -1.352  34.965  1.00  0.00     0.056 C 
BRANCH  19  22
HETATM   22  C12 UNL     1      42.315  -3.446  29.546  1.00  0.00     0.110 C 
BRANCH  22  23
HETATM   23  C13 UNL     1      43.179  -3.375  28.368  1.00  0.00     0.107 C 
BRANCH  23  24
HETATM   24  N5  UNL     1      43.181  -2.271  27.493  1.00  0.00    -0.340 N 
HETATM   25  C14 UNL     1      44.413  -1.520  27.264  1.00  0.00     0.185 C 
HETATM   26  N6  UNL     1      44.860  -0.701  28.085  1.00  0.00    -0.374 N 
HETATM   27  N7  UNL     1      45.054  -1.814  26.016  1.00  0.00    -0.064 NA
ATOM     28  H62 UNL     1      44.404  -0.492  28.972  1.00  0.00     0.158 HD
ATOM     29  H61 UNL     1      45.720  -0.176  27.925  1.00  0.00     0.158 HD
ATOM     30  H5  UNL     1      42.321  -1.995  27.019  1.00  0.00     0.167 HD
ENDBRANCH  23  24
ENDBRANCH  22  23
ENDBRANCH  19  22
ENDBRANCH   4  12
BRANCH   1  31
HETATM   31  C5  UNL     1      42.130   2.305  39.075  1.00  0.00     0.267 C 
BRANCH  31  32
HETATM   32  N1  UNL     1      41.677   3.577  38.741  1.00  0.00    -0.384 N 
HETATM   33  C4  UNL     1      40.344   3.974  38.786  1.00  0.00     0.146 C 
BRANCH  32  34
HETATM   34  C2  UNL     1      42.604   4.558  39.209  1.00  0.00     0.073 C 
HETATM   35  C1  UNL     1      43.225   5.348  38.068  1.00  0.00     0.031 C 
HETATM   36  C3  UNL     1      42.003   5.599  40.136  1.00  0.00     0.031 C 
ENDBRANCH  32  34
ENDBRANCH  31  32
BRANCH  31  37
HETATM   37  O1  UNL     1      41.005   1.462  39.305  1.00  0.00    -0.371 OA
ATOM     38  H1  UNL     1      40.338   1.960  39.762  1.00  0.00     0.212 HD
ENDBRANCH  31  37
ENDBRANCH   1  31
TORSDOF 8
ENDMDL
MODEL 4
REMARK VINA RESULT: -7.527367214      2.585     10.434
REMARK  8 active torsions:
REMARK  status: ('A' for Active; 'I' for Inactive)
REMARK    1  A    between atoms: C2_2  and  N1_4 
REMARK    2  A    between atoms: N1_4  and  C5_6 
REMARK    3  A    between atoms: C5_6  and  O1_7 
REMARK    4  A    between atoms: C5_6  and  C6_9 
REMARK    5  A    between atoms: C7_12  and  C8_13 
REMARK       I    between atoms: N3_16  and  C11_17 
REMARK       I    between atoms: C11_17  and  N4_19 
REMARK    6  A    between atoms: N4_19  and  C12_21 
REMARK    7  A    between atoms: C12_21  and  C13_22 
REMARK    8  A    between atoms: C13_22  and  N5_23 
REMARK       I    between atoms: N5_23  and  C14_25 
ROOT
HETATM    1  C6  UNL     1      42.262  -2.040  30.301  1.00  0.00     0.065 A 
HETATM    2  N2  UNL     1      42.473  -0.886  30.929  1.00  0.00    -0.355 N 
ATOM      3  H2  UNL     1      42.524   0.031  30.486  1.00  0.00     0.166 HD
HETATM    4  C7  UNL     1      42.611  -1.135  32.275  1.00  0.00     0.042 A 
HETATM    5  C17 UNL     1      42.476  -2.474  32.450  1.00  0.00    -0.021 A 
HETATM    6  C18 UNL     1      42.257  -3.087  31.232  1.00  0.00    -0.022 A 
HETATM    7  C19 UNL     1      42.101  -4.546  31.014  1.00  0.00     0.043 C 
HETATM    8  C20 UNL     1      42.679  -5.268  32.218  1.00  0.00     0.025 C 
HETATM    9  C21 UNL     1      42.069  -4.698  33.481  1.00  0.00     0.087 C 
HETATM   10 CL1  UNL     1      42.523  -5.743  34.827  1.00  0.00    -0.125 Cl
HETATM   11  C22 UNL     1      42.592  -3.301  33.675  1.00  0.00     0.061 C 
ENDROOT
BRANCH   4  12
HETATM   12  C8  UNL     1      42.761   0.001  33.222  1.00  0.00    -0.050 C 
HETATM   13  C9  UNL     1      44.227   0.239  33.485  1.00  0.00     0.056 C 
HETATM   14  C10 UNL     1      44.524   1.489  34.173  1.00  0.00     0.132 C 
HETATM   15  N3  UNL     1      43.446   1.956  35.020  1.00  0.00    -0.333 N 
HETATM   16  C11 UNL     1      43.873   2.976  35.958  1.00  0.00     0.322 C 
HETATM   17  C15 UNL     1      42.115   1.490  35.055  1.00  0.00     0.132 C 
HETATM   18  O2  UNL     1      45.115   3.181  36.070  1.00  0.00    -0.247 OA
HETATM   19  N4  UNL     1      42.974   3.716  36.721  1.00  0.00    -0.318 N 
ATOM     20  H4  UNL     1      41.998   3.476  36.547  1.00  0.00     0.170 HD
HETATM   21  C16 UNL     1      41.898   0.135  34.347  1.00  0.00     0.056 C 
BRANCH  19  22
HETATM   22  C12 UNL     1      43.141   4.730  37.686  1.00  0.00     0.110 C 
BRANCH  22  23
HETATM   23  C13 UNL     1      42.075   5.348  38.474  1.00  0.00     0.107 C 
BRANCH  23  24
HETATM   24  N5  UNL     1      40.867   5.790  37.902  1.00  0.00    -0.340 N 
HETATM   25  C14 UNL     1      39.672   4.953  37.974  1.00  0.00     0.185 C 
HETATM   26  N6  UNL     1      39.502   3.964  37.241  1.00  0.00    -0.374 N 
HETATM   27  N7  UNL     1      38.722   5.373  38.962  1.00  0.00    -0.064 NA
ATOM     28  H62 UNL     1      40.178   3.665  36.538  1.00  0.00     0.158 HD
ATOM     29  H61 UNL     1      38.668   3.380  37.291  1.00  0.00     0.158 HD
ATOM     30  H5  UNL     1      40.826   6.697  37.435  1.00  0.00     0.167 HD
ENDBRANCH  23  24
ENDBRANCH  22  23
ENDBRANCH  19  22
ENDBRANCH   4  12
BRANCH   1  31
HETATM   31  C5  UNL     1      42.158  -2.161  28.834  1.00  0.00     0.267 C 
BRANCH  31  32
HETATM   32  N1  UNL     1      43.261  -2.622  28.122  1.00  0.00    -0.384 N 
HETATM   33  C4  UNL     1      43.413  -3.928  27.666  1.00  0.00     0.146 C 
BRANCH  32  34
HETATM   34  C2  UNL     1      43.695  -1.619  27.201  1.00  0.00     0.073 C 
HETATM   35  C1  UNL     1      44.699  -0.664  27.827  1.00  0.00     0.031 C 
HETATM   36  C3  UNL     1      44.379  -2.160  25.959  1.00  0.00     0.031 C 
ENDBRANCH  32  34
ENDBRANCH  31  32
BRANCH  31  37
HETATM   37  O1  UNL     1      41.042  -2.997  28.544  1.00  0.00    -0.371 OA
ATOM     38  H1  UNL     1      40.398  -2.492  28.062  1.00  0.00     0.212 HD
ENDBRANCH  31  37
ENDBRANCH   1  31
TORSDOF 8
ENDMDL
MODEL 5
REMARK VINA RESULT: -7.478736294      1.796      2.436
REMARK  8 active torsions:
REMARK  status: ('A' for Active; 'I' for Inactive)
REMARK    1  A    between atoms: C2_2  and  N1_4 
REMARK    2  A    between atoms: N1_4  and  C5_6 
REMARK    3  A    between atoms: C5_6  and  O1_7 
REMARK    4  A    between atoms: C5_6  and  C6_9 
REMARK    5  A    between atoms: C7_12  and  C8_13 
REMARK       I    between atoms: N3_16  and  C11_17 
REMARK       I    between atoms: C11_17  and  N4_19 
REMARK    6  A    between atoms: N4_19  and  C12_21 
REMARK    7  A    between atoms: C12_21  and  C13_22 
REMARK    8  A    between atoms: C13_22  and  N5_23 
REMARK       I    between atoms: N5_23  and  C14_25 
ROOT
HETATM    1  C6  UNL     1      43.198   1.462  37.620  1.00  0.00     0.065 A 
HETATM    2  N2  UNL     1      42.706   0.853  36.543  1.00  0.00    -0.355 N 
ATOM      3  H2  UNL     1      41.727   0.850  36.257  1.00  0.00     0.166 HD
HETATM    4  C7  UNL     1      43.737   0.230  35.880  1.00  0.00     0.042 A 
HETATM    5  C17 UNL     1      44.872   0.477  36.581  1.00  0.00    -0.021 A 
HETATM    6  C18 UNL     1      44.580   1.249  37.689  1.00  0.00    -0.022 A 
HETATM    7  C19 UNL     1      45.555   1.689  38.718  1.00  0.00     0.043 C 
HETATM    8  C20 UNL     1      46.776   0.791  38.625  1.00  0.00     0.025 C 
HETATM    9  C21 UNL     1      47.264   0.759  37.192  1.00  0.00     0.087 C 
HETATM   10 CL1  UNL     1      48.838  -0.036  37.169  1.00  0.00    -0.125 Cl
HETATM   11  C22 UNL     1      46.260   0.005  36.364  1.00  0.00     0.061 C 
ENDROOT
BRANCH   4  12
HETATM   12  C8  UNL     1      43.474  -0.448  34.583  1.00  0.00    -0.050 C 
HETATM   13  C9  UNL     1      43.979   0.419  33.457  1.00  0.00     0.056 C 
HETATM   14  C10 UNL     1      44.035  -0.244  32.160  1.00  0.00     0.132 C 
HETATM   15  N3  UNL     1      43.067  -1.312  32.011  1.00  0.00    -0.333 N 
HETATM   16  C11 UNL     1      42.886  -1.713  30.630  1.00  0.00     0.322 C 
HETATM   17  C15 UNL     1      42.288  -1.914  33.021  1.00  0.00     0.132 C 
HETATM   18  O2  UNL     1      43.405  -0.983  29.738  1.00  0.00    -0.247 OA
HETATM   19  N4  UNL     1      42.170  -2.851  30.268  1.00  0.00    -0.318 N 
ATOM     20  H4  UNL     1      41.801  -3.371  31.065  1.00  0.00     0.170 HD
HETATM   21  C16 UNL     1      42.242  -1.121  34.345  1.00  0.00     0.056 C 
BRANCH  19  22
HETATM   22  C12 UNL     1      41.853  -3.430  29.023  1.00  0.00     0.110 C 
BRANCH  22  23
HETATM   23  C13 UNL     1      42.811  -3.990  28.070  1.00  0.00     0.107 C 
BRANCH  23  24
HETATM   24  N5  UNL     1      43.987  -3.315  27.689  1.00  0.00    -0.340 N 
HETATM   25  C14 UNL     1      44.096  -2.727  26.357  1.00  0.00     0.185 C 
HETATM   26  N6  UNL     1      44.318  -3.407  25.341  1.00  0.00    -0.374 N 
HETATM   27  N7  UNL     1      43.923  -1.303  26.330  1.00  0.00    -0.064 NA
ATOM     28  H62 UNL     1      44.441  -4.419  25.360  1.00  0.00     0.158 HD
ATOM     29  H61 UNL     1      44.395  -2.996  24.410  1.00  0.00     0.158 HD
ATOM     30  H5  UNL     1      44.764  -3.237  28.346  1.00  0.00     0.167 HD
ENDBRANCH  23  24
ENDBRANCH  22  23
ENDBRANCH  19  22
ENDBRANCH   4  12
BRANCH   1  31
HETATM   31  C5  UNL     1      42.359   2.157  38.615  1.00  0.00     0.267 C 
BRANCH  31  32
HETATM   32  N1  UNL     1      41.924   3.449  38.337  1.00  0.00    -0.384 N 
HETATM   33  C4  UNL     1      40.590   3.844  38.322  1.00  0.00     0.146 C 
BRANCH  32  34
HETATM   34  C2  UNL     1      42.816   4.397  38.927  1.00  0.00     0.073 C 
HETATM   35  C1  UNL     1      43.542   5.227  37.881  1.00  0.00     0.031 C 
HETATM   36  C3  UNL     1      42.146   5.405  39.843  1.00  0.00     0.031 C 
ENDBRANCH  32  34
ENDBRANCH  31  32
BRANCH  31  37
HETATM   37  O1  UNL     1      41.224   1.337  38.876  1.00  0.00    -0.371 OA
ATOM     38  H1  UNL     1      41.171   1.177  39.811  1.00  0.00     0.212 HD
ENDBRANCH  31  37
ENDBRANCH   1  31
TORSDOF 8
ENDMDL
