MODEL 1
REMARK VINA RESULT: -7.545923694      0.000      0.000
REMARK  10 active torsions:
REMARK  status: ('A' for Active; 'I' for Inactive)
REMARK    1  A    between atoms: C9_9  and  N1_10 
REMARK       I    between atoms: N1_10  and  C10_12 
REMARK       I    between atoms: C10_12  and  N2_14 
REMARK    2  A    between atoms: N2_14  and  N3_16 
REMARK    3  A    between atoms: N3_16  and  C11_18 
REMARK    4  A    between atoms: C11_18  and  C12_19 
REMARK    5  A    between atoms: C12_19  and  C13_20 
REMARK    6  A    between atoms: C13_20  and  C14_21 
REMARK    7  A    between atoms: C14_21  and  C15_22 
REMARK    8  A    between atoms: C15_22  and  C16_23 
REMARK    9  A    between atoms: C16_23  and  N4_24 
REMARK       I    between atoms: N4_24  and  C17_26 
REMARK   10  A    between atoms: N7_31  and  C18_33 
ROOT
HETATM    1  N3  UNL     1      41.683  -0.669  32.580  1.00  0.00    -0.285 N 
ATOM      2  H3  UNL     1      41.239   0.186  32.246  1.00  0.00     0.188 HD
ENDROOT
BRANCH   1   3
HETATM    3  N2  UNL     1      42.396  -0.602  33.767  1.00  0.00    -0.250 N 
HETATM    4  C10 UNL     1      43.521   0.229  33.926  1.00  0.00     0.335 C 
HETATM    5  N1  UNL     1      44.239   0.295  35.148  1.00  0.00    -0.333 N 
HETATM    6  O1  UNL     1      43.911   0.939  32.970  1.00  0.00    -0.246 OA
ATOM      7  H1  UNL     1      43.922  -0.284  35.925  1.00  0.00     0.165 HD
ATOM      8  H2  UNL     1      42.094  -1.176  34.554  1.00  0.00     0.192 HD
BRANCH   5   9
HETATM    9  C9  UNL     1      45.399   1.138  35.353  1.00  0.00     0.115 C 
HETATM   10  C4  UNL     1      46.373   0.384  36.171  1.00  0.00    -0.053 C 
HETATM   11  C3  UNL     1      47.594   0.200  35.735  1.00  0.00     0.013 C 
HETATM   12  C5  UNL     1      45.938  -0.127  37.477  1.00  0.00     0.045 C 
HETATM   13  C2  UNL     1      48.626  -0.532  36.526  1.00  0.00     0.241 C 
HETATM   14  C1  UNL     1      49.662  -1.168  35.629  1.00  0.00     0.047 C 
HETATM   15  N8  UNL     1      47.963  -1.490  37.368  1.00  0.00     0.092 N 
HETATM   16  C21 UNL     1      47.063  -0.771  38.251  1.00  0.00     0.281 C 
HETATM   17  C22 UNL     1      48.977  -2.106  38.235  1.00  0.00     0.310 C 
HETATM   18  C6  UNL     1      45.285   0.921  38.325  1.00  0.00     0.011 C 
HETATM   19  C7  UNL     1      44.381   1.833  37.528  1.00  0.00     0.003 C 
HETATM   20  C8  UNL     1      44.990   2.330  36.245  1.00  0.00     0.030 C 
ENDBRANCH   5   9
ENDBRANCH   1   3
BRANCH   1  21
HETATM   21  C11 UNL     1      41.527  -1.848  31.790  1.00  0.00     0.093 C 
HETATM   22  N7  UNL     1      40.503  -2.196  31.157  1.00  0.00    -0.357 N 
ATOM     23  H7  UNL     1      40.620  -3.079  30.659  1.00  0.00     0.162 HD
BRANCH  21  24
HETATM   24  C12 UNL     1      42.743  -2.718  31.710  1.00  0.00     0.077 C 
BRANCH  24  25
HETATM   25  C13 UNL     1      43.069  -3.099  30.252  1.00  0.00     0.007 C 
BRANCH  25  26
HETATM   26  C14 UNL     1      43.522  -1.944  29.452  1.00  0.00     0.002 C 
BRANCH  26  27
HETATM   27  C15 UNL     1      43.743  -2.151  28.007  1.00  0.00     0.020 C 
BRANCH  27  28
HETATM   28  C16 UNL     1      43.149  -3.338  27.344  1.00  0.00     0.122 C 
BRANCH  28  29
HETATM   29  N4  UNL     1      44.040  -4.061  26.493  1.00  0.00    -0.365 N 
HETATM   30  C17 UNL     1      43.939  -3.966  25.051  1.00  0.00     0.181 C 
HETATM   31  N5  UNL     1      43.530  -4.964  24.340  1.00  0.00    -0.374 N 
HETATM   32  N6  UNL     1      44.299  -2.743  24.432  1.00  0.00    -0.064 NA
ATOM     33  H52 UNL     1      43.271  -5.844  24.786  1.00  0.00     0.158 HD
ATOM     34  H51 UNL     1      43.458  -4.898  23.324  1.00  0.00     0.158 HD
ATOM     35  H4  UNL     1      44.759  -4.654  26.908  1.00  0.00     0.162 HD
ENDBRANCH  28  29
ENDBRANCH  27  28
ENDBRANCH  26  27
ENDBRANCH  25  26
ENDBRANCH  24  25
ENDBRANCH  21  24
BRANCH  22  36
HETATM   36  C18 UNL     1      39.228  -1.630  30.985  1.00  0.00     0.101 C 
HETATM   37  C19 UNL     1      38.359  -1.497  32.189  1.00  0.00     0.056 C 
HETATM   38  C20 UNL     1      38.432  -2.387  29.918  1.00  0.00     0.056 C 
HETATM   39 CL1  UNL     1      39.429   0.025  30.314  1.00  0.00    -0.096 Cl
ENDBRANCH  22  36
ENDBRANCH   1  21
TORSDOF 10
ENDMDL
MODEL 2
REMARK VINA RESULT: -7.300290820      1.223      1.550
REMARK  10 active torsions:
REMARK  status: ('A' for Active; 'I' for Inactive)
REMARK    1  A    between atoms: C9_9  and  N1_10 
REMARK       I    between atoms: N1_10  and  C10_12 
REMARK       I    between atoms: C10_12  and  N2_14 
REMARK    2  A    between atoms: N2_14  and  N3_16 
REMARK    3  A    between atoms: N3_16  and  C11_18 
REMARK    4  A    between atoms: C11_18  and  C12_19 
REMARK    5  A    between atoms: C12_19  and  C13_20 
REMARK    6  A    between atoms: C13_20  and  C14_21 
REMARK    7  A    between atoms: C14_21  and  C15_22 
REMARK    8  A    between atoms: C15_22  and  C16_23 
REMARK    9  A    between atoms: C16_23  and  N4_24 
REMARK       I    between atoms: N4_24  and  C17_26 
REMARK   10  A    between atoms: N7_31  and  C18_33 
ROOT
HETATM    1  N3  UNL     1      41.507  -0.513  32.712  1.00  0.00    -0.285 N 
ATOM      2  H3  UNL     1      41.433   0.242  32.030  1.00  0.00     0.188 HD
ENDROOT
BRANCH   1   3
HETATM    3  N2  UNL     1      42.104  -0.223  33.930  1.00  0.00    -0.250 N 
HETATM    4  C10 UNL     1      43.331   0.460  34.024  1.00  0.00     0.335 C 
HETATM    5  N1  UNL     1      43.930   0.758  35.277  1.00  0.00    -0.333 N 
HETATM    6  O1  UNL     1      43.925   0.822  32.982  1.00  0.00    -0.246 OA
ATOM      7  H1  UNL     1      43.446   0.461  36.124  1.00  0.00     0.165 HD
ATOM      8  H2  UNL     1      41.636  -0.514  34.788  1.00  0.00     0.192 HD
BRANCH   5   9
HETATM    9  C9  UNL     1      45.189   1.459  35.417  1.00  0.00     0.115 C 
HETATM   10  C4  UNL     1      46.110   0.594  36.186  1.00  0.00    -0.053 C 
HETATM   11  C3  UNL     1      47.277   0.270  35.687  1.00  0.00     0.013 C 
HETATM   12  C5  UNL     1      45.687   0.134  37.514  1.00  0.00     0.045 C 
HETATM   13  C2  UNL     1      48.256  -0.579  36.425  1.00  0.00     0.241 C 
HETATM   14  C1  UNL     1      49.163  -1.330  35.478  1.00  0.00     0.047 C 
HETATM   15  N8  UNL     1      47.531  -1.456  37.304  1.00  0.00     0.092 N 
HETATM   16  C21 UNL     1      46.768  -0.639  38.231  1.00  0.00     0.281 C 
HETATM   17  C22 UNL     1      48.511  -2.188  38.119  1.00  0.00     0.310 C 
HETATM   18  C6  UNL     1      45.207   1.249  38.392  1.00  0.00     0.011 C 
HETATM   19  C7  UNL     1      44.375   2.263  37.641  1.00  0.00     0.003 C 
HETATM   20  C8  UNL     1      44.969   2.688  36.325  1.00  0.00     0.030 C 
ENDBRANCH   5   9
ENDBRANCH   1   3
BRANCH   1  21
HETATM   21  C11 UNL     1      40.991  -1.792  32.344  1.00  0.00     0.093 C 
HETATM   22  N7  UNL     1      39.923  -2.020  31.728  1.00  0.00    -0.357 N 
ATOM     23  H7  UNL     1      39.754  -3.014  31.571  1.00  0.00     0.162 HD
BRANCH  21  24
HETATM   24  C12 UNL     1      41.854  -2.953  32.723  1.00  0.00     0.077 C 
BRANCH  24  25
HETATM   25  C13 UNL     1      42.209  -3.818  31.497  1.00  0.00     0.007 C 
BRANCH  25  26
HETATM   26  C14 UNL     1      42.996  -3.078  30.491  1.00  0.00     0.002 C 
BRANCH  26  27
HETATM   27  C15 UNL     1      43.549  -3.840  29.352  1.00  0.00     0.020 C 
BRANCH  27  28
HETATM   28  C16 UNL     1      43.130  -3.492  27.973  1.00  0.00     0.122 C 
BRANCH  28  29
HETATM   29  N4  UNL     1      43.153  -2.096  27.671  1.00  0.00    -0.365 N 
HETATM   30  C17 UNL     1      44.396  -1.419  27.357  1.00  0.00     0.181 C 
HETATM   31  N5  UNL     1      44.918  -0.563  28.172  1.00  0.00    -0.374 N 
HETATM   32  N6  UNL     1      45.033  -1.723  26.128  1.00  0.00    -0.064 NA
ATOM     33  H52 UNL     1      44.459  -0.345  29.056  1.00  0.00     0.158 HD
ATOM     34  H51 UNL     1      45.793  -0.087  27.951  1.00  0.00     0.158 HD
ATOM     35  H4  UNL     1      42.282  -1.567  27.677  1.00  0.00     0.162 HD
ENDBRANCH  28  29
ENDBRANCH  27  28
ENDBRANCH  26  27
ENDBRANCH  25  26
ENDBRANCH  24  25
ENDBRANCH  21  24
BRANCH  22  36
HETATM   36  C18 UNL     1      38.908  -1.199  31.205  1.00  0.00     0.101 C 
HETATM   37  C19 UNL     1      38.012  -0.502  32.171  1.00  0.00     0.056 C 
HETATM   38  C20 UNL     1      38.023  -1.977  30.228  1.00  0.00     0.056 C 
HETATM   39 CL1  UNL     1      39.676   0.082  30.205  1.00  0.00    -0.096 Cl
ENDBRANCH  22  36
ENDBRANCH   1  21
TORSDOF 10
ENDMDL
MODEL 3
REMARK VINA RESULT: -7.229634733      5.113      8.002
REMARK  10 active torsions:
REMARK  status: ('A' for Active; 'I' for Inactive)
REMARK    1  A    between atoms: C9_9  and  N1_10 
REMARK       I    between atoms: N1_10  and  C10_12 
REMARK       I    between atoms: C10_12  and  N2_14 
REMARK    2  A    between atoms: N2_14  and  N3_16 
REMARK    3  A    between atoms: N3_16  and  C11_18 
REMARK    4  A    between atoms: C11_18  and  C12_19 
REMARK    5  A    between atoms: C12_19  and  C13_20 
REMARK    6  A    between atoms: C13_20  and  C14_21 
REMARK    7  A    between atoms: C14_21  and  C15_22 
REMARK    8  A    between atoms: C15_22  and  C16_23 
REMARK    9  A    between atoms: C16_23  and  N4_24 
REMARK       I    between atoms: N4_24  and  C17_26 
REMARK   10  A    between atoms: N7_31  and  C18_33 
ROOT
HETATM    1  N3  UNL     1      37.496  -0.416  31.595  1.00  0.00    -0.285 N 
ATOM      2  H3  UNL     1      37.703   0.574  31.726  1.00  0.00     0.188 HD
ENDROOT
BRANCH   1   3
HETATM    3  N2  UNL     1      38.461  -1.198  30.977  1.00  0.00    -0.250 N 
HETATM    4  C10 UNL     1      39.819  -0.828  30.939  1.00  0.00     0.335 C 
HETATM    5  N1  UNL     1      40.800  -1.639  30.309  1.00  0.00    -0.333 N 
HETATM    6  O1  UNL     1      40.189   0.244  31.471  1.00  0.00    -0.246 OA
ATOM      7  H1  UNL     1      40.497  -2.510  29.875  1.00  0.00     0.165 HD
ATOM      8  H2  UNL     1      38.177  -2.072  30.535  1.00  0.00     0.192 HD
BRANCH   5   9
HETATM    9  C9  UNL     1      42.206  -1.296  30.250  1.00  0.00     0.115 C 
HETATM   10  C4  UNL     1      42.807  -2.030  29.114  1.00  0.00    -0.053 C 
HETATM   11  C3  UNL     1      43.441  -1.378  28.173  1.00  0.00     0.013 C 
HETATM   12  C5  UNL     1      42.686  -3.493  29.090  1.00  0.00     0.045 C 
HETATM   13  C2  UNL     1      44.087  -2.065  27.017  1.00  0.00     0.241 C 
HETATM   14  C1  UNL     1      44.158  -1.164  25.806  1.00  0.00     0.047 C 
HETATM   15  N8  UNL     1      43.374  -3.285  26.754  1.00  0.00     0.092 N 
HETATM   16  C21 UNL     1      43.444  -4.117  27.942  1.00  0.00     0.281 C 
HETATM   17  C22 UNL     1      44.101  -4.014  25.705  1.00  0.00     0.310 C 
HETATM   18  C6  UNL     1      43.111  -4.135  30.375  1.00  0.00     0.011 C 
HETATM   19  C7  UNL     1      42.659  -3.358  31.590  1.00  0.00     0.003 C 
HETATM   20  C8  UNL     1      42.907  -1.876  31.496  1.00  0.00     0.030 C 
ENDBRANCH   5   9
ENDBRANCH   1   3
BRANCH   1  21
HETATM   21  C11 UNL     1      36.235  -0.897  32.059  1.00  0.00     0.093 C 
HETATM   22  N7  UNL     1      35.652  -0.568  33.119  1.00  0.00    -0.357 N 
ATOM     23  H7  UNL     1      34.756  -1.040  33.247  1.00  0.00     0.162 HD
BRANCH  21  24
HETATM   24  C12 UNL     1      35.557  -1.870  31.147  1.00  0.00     0.077 C 
BRANCH  24  25
HETATM   25  C13 UNL     1      34.945  -1.163  29.921  1.00  0.00     0.007 C 
BRANCH  25  26
HETATM   26  C14 UNL     1      35.330  -1.801  28.647  1.00  0.00     0.002 C 
BRANCH  26  27
HETATM   27  C15 UNL     1      36.204  -2.990  28.708  1.00  0.00     0.020 C 
BRANCH  27  28
HETATM   28  C16 UNL     1      35.730  -4.270  28.130  1.00  0.00     0.122 C 
BRANCH  28  29
HETATM   29  N4  UNL     1      36.763  -5.142  27.669  1.00  0.00    -0.365 N 
HETATM   30  C17 UNL     1      36.973  -6.440  28.279  1.00  0.00     0.181 C 
HETATM   31  N5  UNL     1      38.020  -6.682  28.997  1.00  0.00    -0.374 N 
HETATM   32  N6  UNL     1      35.996  -7.445  28.072  1.00  0.00    -0.064 NA
ATOM     33  H52 UNL     1      38.723  -5.959  29.145  1.00  0.00     0.158 HD
ATOM     34  H51 UNL     1      38.168  -7.595  29.426  1.00  0.00     0.158 HD
ATOM     35  H4  UNL     1      37.362  -4.847  26.899  1.00  0.00     0.162 HD
ENDBRANCH  28  29
ENDBRANCH  27  28
ENDBRANCH  26  27
ENDBRANCH  25  26
ENDBRANCH  24  25
ENDBRANCH  21  24
BRANCH  22  36
HETATM   36  C18 UNL     1      35.967   0.312  34.169  1.00  0.00     0.101 C 
HETATM   37  C19 UNL     1      37.191   0.028  34.970  1.00  0.00     0.056 C 
HETATM   38  C20 UNL     1      34.794   0.443  35.144  1.00  0.00     0.056 C 
HETATM   39 CL1  UNL     1      36.176   1.959  33.482  1.00  0.00    -0.096 Cl
ENDBRANCH  22  36
ENDBRANCH   1  21
TORSDOF 10
ENDMDL
MODEL 4
REMARK VINA RESULT: -7.155294987      5.069      7.818
REMARK  10 active torsions:
REMARK  status: ('A' for Active; 'I' for Inactive)
REMARK    1  A    between atoms: C9_9  and  N1_10 
REMARK       I    between atoms: N1_10  and  C10_12 
REMARK       I    between atoms: C10_12  and  N2_14 
REMARK    2  A    between atoms: N2_14  and  N3_16 
REMARK    3  A    between atoms: N3_16  and  C11_18 
REMARK    4  A    between atoms: C11_18  and  C12_19 
REMARK    5  A    between atoms: C12_19  and  C13_20 
REMARK    6  A    between atoms: C13_20  and  C14_21 
REMARK    7  A    between atoms: C14_21  and  C15_22 
REMARK    8  A    between atoms: C15_22  and  C16_23 
REMARK    9  A    between atoms: C16_23  and  N4_24 
REMARK       I    between atoms: N4_24  and  C17_26 
REMARK   10  A    between atoms: N7_31  and  C18_33 
ROOT
HETATM    1  N3  UNL     1      37.620  -0.134  31.846  1.00  0.00    -0.285 N 
ATOM      2  H3  UNL     1      37.987   0.670  32.358  1.00  0.00     0.188 HD
ENDROOT
BRANCH   1   3
HETATM    3  N2  UNL     1      38.522  -0.904  31.128  1.00  0.00    -0.250 N 
HETATM    4  C10 UNL     1      39.900  -0.620  31.098  1.00  0.00     0.335 C 
HETATM    5  N1  UNL     1      40.816  -1.420  30.365  1.00  0.00    -0.333 N 
HETATM    6  O1  UNL     1      40.348   0.363  31.733  1.00  0.00    -0.246 OA
ATOM      7  H1  UNL     1      40.450  -2.219  29.848  1.00  0.00     0.165 HD
ATOM      8  H2  UNL     1      38.173  -1.706  30.603  1.00  0.00     0.192 HD
BRANCH   5   9
HETATM    9  C9  UNL     1      42.240  -1.163  30.310  1.00  0.00     0.115 C 
HETATM   10  C4  UNL     1      42.801  -1.944  29.186  1.00  0.00    -0.053 C 
HETATM   11  C3  UNL     1      43.479  -1.341  28.242  1.00  0.00     0.013 C 
HETATM   12  C5  UNL     1      42.593  -3.397  29.176  1.00  0.00     0.045 C 
HETATM   13  C2  UNL     1      44.088  -2.079  27.097  1.00  0.00     0.241 C 
HETATM   14  C1  UNL     1      44.220  -1.198  25.877  1.00  0.00     0.047 C 
HETATM   15  N8  UNL     1      43.304  -3.257  26.842  1.00  0.00     0.092 N 
HETATM   16  C21 UNL     1      43.318  -4.078  28.040  1.00  0.00     0.281 C 
HETATM   17  C22 UNL     1      43.991  -4.040  25.805  1.00  0.00     0.310 C 
HETATM   18  C6  UNL     1      42.972  -4.050  30.470  1.00  0.00     0.011 C 
HETATM   19  C7  UNL     1      42.561  -3.234  31.675  1.00  0.00     0.003 C 
HETATM   20  C8  UNL     1      42.898  -1.771  31.567  1.00  0.00     0.030 C 
ENDBRANCH   5   9
ENDBRANCH   1   3
BRANCH   1  21
HETATM   21  C11 UNL     1      36.216  -0.382  31.922  1.00  0.00     0.093 C 
HETATM   22  N7  UNL     1      35.449  -0.071  32.863  1.00  0.00    -0.357 N 
ATOM     23  H7  UNL     1      34.481  -0.348  32.700  1.00  0.00     0.162 HD
BRANCH  21  24
HETATM   24  C12 UNL     1      35.631  -1.059  30.722  1.00  0.00     0.077 C 
BRANCH  24  25
HETATM   25  C13 UNL     1      35.166  -2.491  31.052  1.00  0.00     0.007 C 
BRANCH  25  26
HETATM   26  C14 UNL     1      35.285  -3.406  29.901  1.00  0.00     0.002 C 
BRANCH  26  27
HETATM   27  C15 UNL     1      36.118  -2.974  28.760  1.00  0.00     0.020 C 
BRANCH  27  28
HETATM   28  C16 UNL     1      37.476  -3.548  28.594  1.00  0.00     0.122 C 
BRANCH  28  29
HETATM   29  N4  UNL     1      37.730  -4.725  29.360  1.00  0.00    -0.365 N 
HETATM   30  C17 UNL     1      38.927  -4.848  30.168  1.00  0.00     0.181 C 
HETATM   31  N5  UNL     1      39.871  -5.669  29.848  1.00  0.00    -0.374 N 
HETATM   32  N6  UNL     1      39.041  -4.038  31.326  1.00  0.00    -0.064 NA
ATOM     33  H52 UNL     1      39.789  -6.252  29.015  1.00  0.00     0.158 HD
ATOM     34  H51 UNL     1      40.714  -5.755  30.416  1.00  0.00     0.158 HD
ATOM     35  H4  UNL     1      37.059  -5.493  29.339  1.00  0.00     0.162 HD
ENDBRANCH  28  29
ENDBRANCH  27  28
ENDBRANCH  26  27
ENDBRANCH  25  26
ENDBRANCH  24  25
ENDBRANCH  21  24
BRANCH  22  36
HETATM   36  C18 UNL     1      35.638   0.578  34.096  1.00  0.00     0.101 C 
HETATM   37  C19 UNL     1      36.686   0.043  35.010  1.00  0.00     0.056 C 
HETATM   38  C20 UNL     1      34.326   0.649  34.883  1.00  0.00     0.056 C 
HETATM   39 CL1  UNL     1      36.068   2.293  33.772  1.00  0.00    -0.096 Cl
ENDBRANCH  22  36
ENDBRANCH   1  21
TORSDOF 10
ENDMDL
MODEL 5
REMARK VINA RESULT: -7.067067462      1.583      1.838
REMARK  10 active torsions:
REMARK  status: ('A' for Active; 'I' for Inactive)
REMARK    1  A    between atoms: C9_9  and  N1_10 
REMARK       I    between atoms: N1_10  and  C10_12 
REMARK       I    between atoms: C10_12  and  N2_14 
REMARK    2  A    between atoms: N2_14  and  N3_16 
REMARK    3  A    between atoms: N3_16  and  C11_18 
REMARK    4  A    between atoms: C11_18  and  C12_19 
REMARK    5  A    between atoms: C12_19  and  C13_20 
REMARK    6  A    between atoms: C13_20  and  C14_21 
REMARK    7  A    between atoms: C14_21  and  C15_22 
REMARK    8  A    between atoms: C15_22  and  C16_23 
REMARK    9  A    between atoms: C16_23  and  N4_24 
REMARK       I    between atoms: N4_24  and  C17_26 
REMARK   10  A    between atoms: N7_31  and  C18_33 
ROOT
HETATM    1  N3  UNL     1      41.364  -0.894  33.150  1.00  0.00    -0.285 N 
ATOM      2  H3  UNL     1      40.515  -0.336  33.241  1.00  0.00     0.188 HD
ENDROOT
BRANCH   1   3
HETATM    3  N2  UNL     1      42.283  -0.839  34.186  1.00  0.00    -0.250 N 
HETATM    4  C10 UNL     1      43.382   0.040  34.174  1.00  0.00     0.335 C 
HETATM    5  N1  UNL     1      44.314   0.092  35.243  1.00  0.00    -0.333 N 
HETATM    6  O1  UNL     1      43.557   0.807  33.198  1.00  0.00    -0.246 OA
ATOM      7  H1  UNL     1      44.172  -0.533  36.036  1.00  0.00     0.165 HD
ATOM      8  H2  UNL     1      42.159  -1.459  34.986  1.00  0.00     0.192 HD
BRANCH   5   9
HETATM    9  C9  UNL     1      45.456   0.983  35.271  1.00  0.00     0.115 C 
HETATM   10  C4  UNL     1      46.466   0.403  36.182  1.00  0.00    -0.053 C 
HETATM   11  C3  UNL     1      47.682   0.174  35.753  1.00  0.00     0.013 C 
HETATM   12  C5  UNL     1      46.072   0.116  37.566  1.00  0.00     0.045 C 
HETATM   13  C2  UNL     1      48.749  -0.387  36.631  1.00  0.00     0.241 C 
HETATM   14  C1  UNL     1      49.783  -1.146  35.832  1.00  0.00     0.047 C 
HETATM   15  N8  UNL     1      48.129  -1.200  37.642  1.00  0.00     0.092 N 
HETATM   16  C21 UNL     1      47.229  -0.360  38.411  1.00  0.00     0.281 C 
HETATM   17  C22 UNL     1      49.178  -1.634  38.576  1.00  0.00     0.310 C 
HETATM   18  C6  UNL     1      45.410   1.281  38.237  1.00  0.00     0.011 C 
HETATM   19  C7  UNL     1      44.466   2.021  37.319  1.00  0.00     0.003 C 
HETATM   20  C8  UNL     1      45.034   2.302  35.954  1.00  0.00     0.030 C 
ENDBRANCH   5   9
ENDBRANCH   1   3
BRANCH   1  21
HETATM   21  C11 UNL     1      41.520  -1.674  31.964  1.00  0.00     0.093 C 
HETATM   22  N7  UNL     1      41.374  -2.914  31.859  1.00  0.00    -0.357 N 
ATOM     23  H7  UNL     1      41.535  -3.258  30.912  1.00  0.00     0.162 HD
BRANCH  21  24
HETATM   24  C12 UNL     1      41.865  -0.891  30.736  1.00  0.00     0.077 C 
BRANCH  24  25
HETATM   25  C13 UNL     1      43.140  -1.433  30.060  1.00  0.00     0.007 C 
BRANCH  25  26
HETATM   26  C14 UNL     1      42.871  -2.027  28.736  1.00  0.00     0.002 C 
BRANCH  26  27
HETATM   27  C15 UNL     1      43.321  -3.413  28.497  1.00  0.00     0.020 C 
BRANCH  27  28
HETATM   28  C16 UNL     1      43.146  -4.012  27.152  1.00  0.00     0.122 C 
BRANCH  28  29
HETATM   29  N4  UNL     1      44.305  -3.969  26.319  1.00  0.00    -0.365 N 
HETATM   30  C17 UNL     1      44.377  -3.072  25.183  1.00  0.00     0.181 C 
HETATM   31  N5  UNL     1      44.353  -3.519  23.972  1.00  0.00    -0.374 N 
HETATM   32  N6  UNL     1      44.473  -1.680  25.433  1.00  0.00    -0.064 NA
ATOM     33  H52 UNL     1      44.285  -4.521  23.793  1.00  0.00     0.158 HD
ATOM     34  H51 UNL     1      44.403  -2.888  23.172  1.00  0.00     0.158 HD
ATOM     35  H4  UNL     1      45.096  -4.580  26.526  1.00  0.00     0.162 HD
ENDBRANCH  28  29
ENDBRANCH  27  28
ENDBRANCH  26  27
ENDBRANCH  25  26
ENDBRANCH  24  25
ENDBRANCH  21  24
BRANCH  22  36
HETATM   36  C18 UNL     1      41.035  -3.934  32.765  1.00  0.00     0.101 C 
HETATM   37  C19 UNL     1      39.909  -3.679  33.708  1.00  0.00     0.056 C 
HETATM   38  C20 UNL     1      42.251  -4.355  33.595  1.00  0.00     0.056 C 
HETATM   39 CL1  UNL     1      40.594  -5.402  31.827  1.00  0.00    -0.096 Cl
ENDBRANCH  22  36
ENDBRANCH   1  21
TORSDOF 10
ENDMDL
