MODEL 1
REMARK VINA RESULT: -5.141116994      0.000      0.000
REMARK  7 active torsions:
REMARK  status: ('A' for Active; 'I' for Inactive)
REMARK    1  A    between atoms: C2_2  and  C4_4 
REMARK       I    between atoms: C4_4  and  N1_6 
REMARK    2  A    between atoms: N1_6  and  C5_8 
REMARK    3  A    between atoms: C5_8  and  N2_10 
REMARK    4  A    between atoms: N2_10  and  N3_12 
REMARK    5  A    between atoms: N3_12  and  C6_14 
REMARK    6  A    between atoms: C6_14  and  N4_16 
REMARK    7  A    between atoms: N4_16  and  C7_18 
ROOT
HETATM    1  N2  UNL     1      41.372  -3.771  30.020  1.00  0.00    -0.274 N 
ATOM      2  H2  UNL     1      41.010  -4.033  30.937  1.00  0.00     0.189 HD
ENDROOT
BRANCH   1   3
HETATM    3  C5  UNL     1      42.159  -4.717  29.272  1.00  0.00     0.193 C 
HETATM    4  S1  UNL     1      42.566  -6.154  29.933  1.00  0.00    -0.039 SA
BRANCH   3   5
HETATM    5  N1  UNL     1      42.586  -4.404  27.952  1.00  0.00    -0.299 N 
HETATM    6  C4  UNL     1      43.613  -3.492  27.702  1.00  0.00     0.252 C 
HETATM    7  O1  UNL     1      44.181  -2.925  28.691  1.00  0.00    -0.268 OA
ATOM      8  H1  UNL     1      42.129  -4.860  27.163  1.00  0.00     0.171 HD
BRANCH   6   9
HETATM    9  C2  UNL     1      44.061  -3.162  26.368  1.00  0.00    -0.003 C 
HETATM   10  C1  UNL     1      43.974  -4.029  25.393  1.00  0.00     0.024 C 
HETATM   11  C3  UNL     1      44.636  -1.786  26.122  1.00  0.00     0.053 C 
ENDBRANCH   6   9
ENDBRANCH   3   5
ENDBRANCH   1   3
BRANCH   1  12
HETATM   12  N3  UNL     1      41.101  -2.513  29.512  1.00  0.00    -0.274 N 
ATOM     13  H3  UNL     1      40.675  -2.435  28.589  1.00  0.00     0.189 HD
BRANCH  12  14
HETATM   14  C6  UNL     1      41.403  -1.309  30.248  1.00  0.00     0.186 C 
HETATM   15  S2  UNL     1      40.108  -0.432  30.692  1.00  0.00    -0.040 SA
BRANCH  14  16
HETATM   16  N4  UNL     1      42.740  -0.949  30.520  1.00  0.00    -0.361 N 
ATOM     17  H4  UNL     1      43.188  -0.362  29.816  1.00  0.00     0.162 HD
BRANCH  16  18
HETATM   18  C7  UNL     1      43.551  -1.288  31.636  1.00  0.00     0.084 A 
HETATM   19  C8  UNL     1      43.485  -0.515  32.903  1.00  0.00     0.027 A 
HETATM   20  C9  UNL     1      43.111  -1.987  32.871  1.00  0.00     0.027 A 
ENDBRANCH  16  18
ENDBRANCH  14  16
ENDBRANCH  12  14
ENDBRANCH   1  12
TORSDOF 7
ENDMDL
MODEL 2
REMARK VINA RESULT: -4.994002553      2.869      6.427
REMARK  7 active torsions:
REMARK  status: ('A' for Active; 'I' for Inactive)
REMARK    1  A    between atoms: C2_2  and  C4_4 
REMARK       I    between atoms: C4_4  and  N1_6 
REMARK    2  A    between atoms: N1_6  and  C5_8 
REMARK    3  A    between atoms: C5_8  and  N2_10 
REMARK    4  A    between atoms: N2_10  and  N3_12 
REMARK    5  A    between atoms: N3_12  and  C6_14 
REMARK    6  A    between atoms: C6_14  and  N4_16 
REMARK    7  A    between atoms: N4_16  and  C7_18 
ROOT
HETATM    1  N2  UNL     1      43.149  -0.716  31.716  1.00  0.00    -0.274 N 
ATOM      2  H2  UNL     1      42.581   0.131  31.691  1.00  0.00     0.189 HD
ENDROOT
BRANCH   1   3
HETATM    3  C5  UNL     1      43.272  -1.450  32.948  1.00  0.00     0.193 C 
HETATM    4  S1  UNL     1      42.643  -2.951  33.079  1.00  0.00    -0.039 SA
BRANCH   3   5
HETATM    5  N1  UNL     1      43.944  -0.870  34.060  1.00  0.00    -0.299 N 
HETATM    6  C4  UNL     1      45.058  -0.044  33.905  1.00  0.00     0.252 C 
HETATM    7  O1  UNL     1      45.482   0.196  32.728  1.00  0.00    -0.268 OA
ATOM      8  H1  UNL     1      43.601  -1.064  35.001  1.00  0.00     0.171 HD
BRANCH   6   9
HETATM    9  C2  UNL     1      45.753   0.555  35.022  1.00  0.00    -0.003 C 
HETATM   10  C1  UNL     1      46.901   0.084  35.433  1.00  0.00     0.024 C 
HETATM   11  C3  UNL     1      45.121   1.743  35.710  1.00  0.00     0.053 C 
ENDBRANCH   6   9
ENDBRANCH   3   5
ENDBRANCH   1   3
BRANCH   1  12
HETATM   12  N3  UNL     1      43.789  -1.143  30.566  1.00  0.00    -0.274 N 
ATOM     13  H3  UNL     1      44.790  -1.337  30.601  1.00  0.00     0.189 HD
BRANCH  12  14
HETATM   14  C6  UNL     1      43.084  -1.324  29.320  1.00  0.00     0.186 C 
HETATM   15  S2  UNL     1      41.739  -2.232  29.417  1.00  0.00    -0.040 SA
BRANCH  14  16
HETATM   16  N4  UNL     1      43.576  -0.754  28.126  1.00  0.00    -0.361 N 
ATOM     17  H4  UNL     1      43.233   0.183  27.914  1.00  0.00     0.162 HD
BRANCH  16  18
HETATM   18  C7  UNL     1      44.482  -1.299  27.178  1.00  0.00     0.084 A 
HETATM   19  C8  UNL     1      44.320  -2.683  26.661  1.00  0.00     0.027 A 
HETATM   20  C9  UNL     1      44.235  -1.490  25.726  1.00  0.00     0.027 A 
ENDBRANCH  16  18
ENDBRANCH  14  16
ENDBRANCH  12  14
ENDBRANCH   1  12
TORSDOF 7
ENDMDL
MODEL 3
REMARK VINA RESULT: -4.935143851      0.656      1.123
REMARK  7 active torsions:
REMARK  status: ('A' for Active; 'I' for Inactive)
REMARK    1  A    between atoms: C2_2  and  C4_4 
REMARK       I    between atoms: C4_4  and  N1_6 
REMARK    2  A    between atoms: N1_6  and  C5_8 
REMARK    3  A    between atoms: C5_8  and  N2_10 
REMARK    4  A    between atoms: N2_10  and  N3_12 
REMARK    5  A    between atoms: N3_12  and  C6_14 
REMARK    6  A    between atoms: C6_14  and  N4_16 
REMARK    7  A    between atoms: N4_16  and  C7_18 
ROOT
HETATM    1  N2  UNL     1      41.306  -3.813  30.035  1.00  0.00    -0.274 N 
ATOM      2  H2  UNL     1      40.312  -3.739  29.821  1.00  0.00     0.189 HD
ENDROOT
BRANCH   1   3
HETATM    3  C5  UNL     1      42.127  -4.726  29.284  1.00  0.00     0.193 C 
HETATM    4  S1  UNL     1      42.508  -6.189  29.901  1.00  0.00    -0.039 SA
BRANCH   3   5
HETATM    5  N1  UNL     1      42.612  -4.358  27.998  1.00  0.00    -0.299 N 
HETATM    6  C4  UNL     1      43.623  -3.411  27.830  1.00  0.00     0.252 C 
HETATM    7  O1  UNL     1      44.124  -2.862  28.865  1.00  0.00    -0.268 OA
ATOM      8  H1  UNL     1      42.208  -4.801  27.173  1.00  0.00     0.171 HD
BRANCH   6   9
HETATM    9  C2  UNL     1      44.129  -3.025  26.532  1.00  0.00    -0.003 C 
HETATM   10  C1  UNL     1      44.710  -1.868  26.351  1.00  0.00     0.024 C 
HETATM   11  C3  UNL     1      43.974  -3.994  25.383  1.00  0.00     0.053 C 
ENDBRANCH   6   9
ENDBRANCH   3   5
ENDBRANCH   1   3
BRANCH   1  12
HETATM   12  N3  UNL     1      41.848  -3.033  31.041  1.00  0.00    -0.274 N 
ATOM     13  H3  UNL     1      42.228  -3.490  31.870  1.00  0.00     0.189 HD
BRANCH  12  14
HETATM   14  C6  UNL     1      41.892  -1.592  30.955  1.00  0.00     0.186 C 
HETATM   15  S2  UNL     1      40.480  -0.884  30.573  1.00  0.00    -0.040 SA
BRANCH  14  16
HETATM   16  N4  UNL     1      43.100  -0.896  31.172  1.00  0.00    -0.361 N 
ATOM     17  H4  UNL     1      43.429  -0.333  30.388  1.00  0.00     0.162 HD
BRANCH  16  18
HETATM   18  C7  UNL     1      43.924  -0.868  32.328  1.00  0.00     0.084 A 
HETATM   19  C8  UNL     1      43.828   0.235  33.320  1.00  0.00     0.027 A 
HETATM   20  C9  UNL     1      43.511  -1.196  33.718  1.00  0.00     0.027 A 
ENDBRANCH  16  18
ENDBRANCH  14  16
ENDBRANCH  12  14
ENDBRANCH   1  12
TORSDOF 7
ENDMDL
MODEL 4
REMARK VINA RESULT: -4.917270301      1.071      1.417
REMARK  7 active torsions:
REMARK  status: ('A' for Active; 'I' for Inactive)
REMARK    1  A    between atoms: C2_2  and  C4_4 
REMARK       I    between atoms: C4_4  and  N1_6 
REMARK    2  A    between atoms: N1_6  and  C5_8 
REMARK    3  A    between atoms: C5_8  and  N2_10 
REMARK    4  A    between atoms: N2_10  and  N3_12 
REMARK    5  A    between atoms: N3_12  and  C6_14 
REMARK    6  A    between atoms: C6_14  and  N4_16 
REMARK    7  A    between atoms: N4_16  and  C7_18 
ROOT
HETATM    1  N2  UNL     1      40.607  -2.534  29.667  1.00  0.00    -0.274 N 
ATOM      2  H2  UNL     1      39.637  -2.848  29.681  1.00  0.00     0.189 HD
ENDROOT
BRANCH   1   3
HETATM    3  C5  UNL     1      41.661  -3.497  29.481  1.00  0.00     0.193 C 
HETATM    4  S1  UNL     1      42.072  -4.513  30.691  1.00  0.00    -0.039 SA
BRANCH   3   5
HETATM    5  N1  UNL     1      42.351  -3.568  28.239  1.00  0.00    -0.299 N 
HETATM    6  C4  UNL     1      43.352  -2.658  27.893  1.00  0.00     0.252 C 
HETATM    7  O1  UNL     1      43.652  -1.737  28.721  1.00  0.00    -0.268 OA
ATOM      8  H1  UNL     1      42.108  -4.307  27.580  1.00  0.00     0.171 HD
BRANCH   6   9
HETATM    9  C2  UNL     1      44.065  -2.715  26.638  1.00  0.00    -0.003 C 
HETATM   10  C1  UNL     1      44.839  -1.733  26.256  1.00  0.00     0.024 C 
HETATM   11  C3  UNL     1      43.896  -3.940  25.769  1.00  0.00     0.053 C 
ENDBRANCH   6   9
ENDBRANCH   3   5
ENDBRANCH   1   3
BRANCH   1  12
HETATM   12  N3  UNL     1      40.893  -1.190  29.828  1.00  0.00    -0.274 N 
ATOM     13  H3  UNL     1      40.799  -0.566  29.027  1.00  0.00     0.189 HD
BRANCH  12  14
HETATM   14  C6  UNL     1      41.320  -0.644  31.095  1.00  0.00     0.186 C 
HETATM   15  S2  UNL     1      40.118  -0.299  32.133  1.00  0.00    -0.040 SA
BRANCH  14  16
HETATM   16  N4  UNL     1      42.689  -0.423  31.357  1.00  0.00    -0.361 N 
ATOM     17  H4  UNL     1      43.108   0.364  30.863  1.00  0.00     0.162 HD
BRANCH  16  18
HETATM   18  C7  UNL     1      43.565  -1.142  32.213  1.00  0.00     0.084 A 
HETATM   19  C8  UNL     1      44.548  -0.441  33.079  1.00  0.00     0.027 A 
HETATM   20  C9  UNL     1      43.442  -1.288  33.686  1.00  0.00     0.027 A 
ENDBRANCH  16  18
ENDBRANCH  14  16
ENDBRANCH  12  14
ENDBRANCH   1  12
TORSDOF 7
ENDMDL
MODEL 5
REMARK VINA RESULT: -4.901697411      2.462      3.357
REMARK  7 active torsions:
REMARK  status: ('A' for Active; 'I' for Inactive)
REMARK    1  A    between atoms: C2_2  and  C4_4 
REMARK       I    between atoms: C4_4  and  N1_6 
REMARK    2  A    between atoms: N1_6  and  C5_8 
REMARK    3  A    between atoms: C5_8  and  N2_10 
REMARK    4  A    between atoms: N2_10  and  N3_12 
REMARK    5  A    between atoms: N3_12  and  C6_14 
REMARK    6  A    between atoms: C6_14  and  N4_16 
REMARK    7  A    between atoms: N4_16  and  C7_18 
ROOT
HETATM    1  N2  UNL     1      43.409  -0.575  28.909  1.00  0.00    -0.274 N 
ATOM      2  H2  UNL     1      43.974   0.272  28.848  1.00  0.00     0.189 HD
ENDROOT
BRANCH   1   3
HETATM    3  C5  UNL     1      43.838  -1.766  28.224  1.00  0.00     0.193 C 
HETATM    4  S1  UNL     1      44.310  -1.693  26.663  1.00  0.00    -0.039 SA
BRANCH   3   5
HETATM    5  N1  UNL     1      43.852  -3.015  28.905  1.00  0.00    -0.299 N 
HETATM    6  C4  UNL     1      42.701  -3.789  29.059  1.00  0.00     0.252 C 
HETATM    7  O1  UNL     1      41.606  -3.359  28.571  1.00  0.00    -0.268 OA
ATOM      8  H1  UNL     1      44.732  -3.355  29.294  1.00  0.00     0.171 HD
BRANCH   6   9
HETATM    9  C2  UNL     1      42.697  -5.060  29.746  1.00  0.00    -0.003 C 
HETATM   10  C1  UNL     1      41.723  -5.916  29.576  1.00  0.00     0.024 C 
HETATM   11  C3  UNL     1      43.848  -5.382  30.671  1.00  0.00     0.053 C 
ENDBRANCH   6   9
ENDBRANCH   3   5
ENDBRANCH   1   3
BRANCH   1  12
HETATM   12  N3  UNL     1      42.239  -0.562  29.649  1.00  0.00    -0.274 N 
ATOM     13  H3  UNL     1      41.348  -0.459  29.163  1.00  0.00     0.189 HD
BRANCH  12  14
HETATM   14  C6  UNL     1      42.241  -0.691  31.087  1.00  0.00     0.186 C 
HETATM   15  S2  UNL     1      40.771  -0.832  31.765  1.00  0.00    -0.040 SA
BRANCH  14  16
HETATM   16  N4  UNL     1      43.453  -0.670  31.808  1.00  0.00    -0.361 N 
ATOM     17  H4  UNL     1      44.208  -1.231  31.414  1.00  0.00     0.162 HD
BRANCH  16  18
HETATM   18  C7  UNL     1      43.772   0.023  33.007  1.00  0.00     0.084 A 
HETATM   19  C8  UNL     1      44.358  -0.684  34.176  1.00  0.00     0.027 A 
HETATM   20  C9  UNL     1      45.128   0.417  33.467  1.00  0.00     0.027 A 
ENDBRANCH  16  18
ENDBRANCH  14  16
ENDBRANCH  12  14
ENDBRANCH   1  12
TORSDOF 7
ENDMDL
