MODEL 1
REMARK VINA RESULT: -5.537493056      0.000      0.000
REMARK  5 active torsions:
REMARK  status: ('A' for Active; 'I' for Inactive)
REMARK    1  A    between atoms: C2_2  and  N1_3 
REMARK    2  A    between atoms: N1_3  and  C3_5 
REMARK    3  A    between atoms: C3_5  and  N2_7 
REMARK    4  A    between atoms: N2_7  and  N3_9 
REMARK       I    between atoms: N3_9  and  C4_11 
REMARK       I    between atoms: C4_11  and  N4_13 
REMARK    5  A    between atoms: N4_13  and  C5_15 
ROOT
HETATM    1  N3  UNL     1      41.187  -0.415  31.230  1.00  0.00    -0.249 N 
ATOM      2  H3  UNL     1      41.671   0.453  31.460  1.00  0.00     0.192 HD
HETATM    3  C4  UNL     1      41.682  -1.215  30.167  1.00  0.00     0.335 C 
HETATM    4  O1  UNL     1      41.052  -2.287  29.912  1.00  0.00    -0.246 OA
HETATM    5  N4  UNL     1      42.829  -0.824  29.430  1.00  0.00    -0.337 N 
ATOM      6  H4  UNL     1      43.295   0.048  29.680  1.00  0.00     0.164 HD
ENDROOT
BRANCH   1   7
HETATM    7  N2  UNL     1      40.054  -0.774  31.974  1.00  0.00    -0.272 N 
ATOM      8  H2  UNL     1      40.162  -1.434  32.744  1.00  0.00     0.189 HD
BRANCH   7   9
HETATM    9  C3  UNL     1      38.759  -0.252  31.693  1.00  0.00     0.186 C 
HETATM   10  S1  UNL     1      37.610  -1.185  31.019  1.00  0.00    -0.040 SA
BRANCH   9  11
HETATM   11  N1  UNL     1      38.464   1.092  32.003  1.00  0.00    -0.366 N 
ATOM     12  H1  UNL     1      38.420   1.775  31.246  1.00  0.00     0.161 HD
BRANCH  11  13
HETATM   13  C2  UNL     1      38.219   1.538  33.375  1.00  0.00     0.117 C 
HETATM   14  C1  UNL     1      36.791   1.982  33.510  1.00  0.00     0.026 C 
ENDBRANCH  11  13
ENDBRANCH   9  11
ENDBRANCH   7   9
ENDBRANCH   1   7
BRANCH   5  15
HETATM   15  C5  UNL     1      43.359  -1.594  28.357  1.00  0.00     0.089 C 
HETATM   16  C6  UNL     1      44.499  -0.898  27.613  1.00  0.00     0.044 C 
HETATM   17  C7  UNL     1      44.878  -1.754  26.420  1.00  0.00     0.118 C 
HETATM   18  N5  UNL     1      43.982  -2.856  26.324  1.00  0.00    -0.416 N 
HETATM   19  C8  UNL     1      43.886  -3.466  25.042  1.00  0.00     0.143 C 
HETATM   20  C9  UNL     1      44.027  -3.755  27.431  1.00  0.00     0.118 C 
HETATM   21  C10 UNL     1      43.847  -2.962  28.708  1.00  0.00     0.044 C 
ENDBRANCH   5  15
TORSDOF 5
ENDMDL
MODEL 2
REMARK VINA RESULT: -5.525817747      1.189      1.205
REMARK  5 active torsions:
REMARK  status: ('A' for Active; 'I' for Inactive)
REMARK    1  A    between atoms: C2_2  and  N1_3 
REMARK    2  A    between atoms: N1_3  and  C3_5 
REMARK    3  A    between atoms: C3_5  and  N2_7 
REMARK    4  A    between atoms: N2_7  and  N3_9 
REMARK       I    between atoms: N3_9  and  C4_11 
REMARK       I    between atoms: C4_11  and  N4_13 
REMARK    5  A    between atoms: N4_13  and  C5_15 
ROOT
HETATM    1  N3  UNL     1      40.806  -0.104  31.107  1.00  0.00    -0.249 N 
ATOM      2  H3  UNL     1      41.373   0.671  31.450  1.00  0.00     0.192 HD
HETATM    3  C4  UNL     1      41.341  -0.951  30.101  1.00  0.00     0.335 C 
HETATM    4  O1  UNL     1      40.606  -1.904  29.700  1.00  0.00    -0.246 OA
HETATM    5  N4  UNL     1      42.639  -0.729  29.572  1.00  0.00    -0.337 N 
ATOM      6  H4  UNL     1      43.185   0.054  29.933  1.00  0.00     0.164 HD
ENDROOT
BRANCH   1   7
HETATM    7  N2  UNL     1      39.526  -0.297  31.646  1.00  0.00    -0.272 N 
ATOM      8  H2  UNL     1      38.955  -1.064  31.292  1.00  0.00     0.189 HD
BRANCH   7   9
HETATM    9  C3  UNL     1      38.996   0.539  32.670  1.00  0.00     0.186 C 
HETATM   10  S1  UNL     1      39.622   0.522  34.171  1.00  0.00    -0.040 SA
BRANCH   9  11
HETATM   11  N1  UNL     1      37.912   1.395  32.383  1.00  0.00    -0.366 N 
ATOM     12  H1  UNL     1      38.038   2.138  31.695  1.00  0.00     0.161 HD
BRANCH  11  13
HETATM   13  C2  UNL     1      36.613   1.252  33.043  1.00  0.00     0.117 C 
HETATM   14  C1  UNL     1      36.295   2.508  33.801  1.00  0.00     0.026 C 
ENDBRANCH  11  13
ENDBRANCH   9  11
ENDBRANCH   7   9
ENDBRANCH   1   7
BRANCH   5  15
HETATM   15  C5  UNL     1      43.213  -1.550  28.562  1.00  0.00     0.089 C 
HETATM   16  C6  UNL     1      44.317  -0.854  27.765  1.00  0.00     0.044 C 
HETATM   17  C7  UNL     1      44.746  -1.778  26.643  1.00  0.00     0.118 C 
HETATM   18  N5  UNL     1      43.912  -2.931  26.633  1.00  0.00    -0.416 N 
HETATM   19  C8  UNL     1      43.854  -3.643  25.403  1.00  0.00     0.143 C 
HETATM   20  C9  UNL     1      44.002  -3.737  27.807  1.00  0.00     0.118 C 
HETATM   21  C10 UNL     1      43.774  -2.858  29.019  1.00  0.00     0.044 C 
ENDBRANCH   5  15
TORSDOF 5
ENDMDL
MODEL 3
REMARK VINA RESULT: -5.477102638      2.285      7.879
REMARK  5 active torsions:
REMARK  status: ('A' for Active; 'I' for Inactive)
REMARK    1  A    between atoms: C2_2  and  N1_3 
REMARK    2  A    between atoms: N1_3  and  C3_5 
REMARK    3  A    between atoms: C3_5  and  N2_7 
REMARK    4  A    between atoms: N2_7  and  N3_9 
REMARK       I    between atoms: N3_9  and  C4_11 
REMARK       I    between atoms: C4_11  and  N4_13 
REMARK    5  A    between atoms: N4_13  and  C5_15 
ROOT
HETATM    1  N3  UNL     1      42.000  -0.917  29.453  1.00  0.00    -0.249 N 
ATOM      2  H3  UNL     1      41.297  -1.277  28.808  1.00  0.00     0.192 HD
HETATM    3  C4  UNL     1      41.576  -0.376  30.696  1.00  0.00     0.335 C 
HETATM    4  O1  UNL     1      42.480   0.061  31.472  1.00  0.00    -0.246 OA
HETATM    5  N4  UNL     1      40.201  -0.330  31.042  1.00  0.00    -0.337 N 
ATOM      6  H4  UNL     1      39.519  -0.696  30.378  1.00  0.00     0.164 HD
ENDROOT
BRANCH   1   7
HETATM    7  N2  UNL     1      43.351  -0.974  29.083  1.00  0.00    -0.272 N 
ATOM      8  H2  UNL     1      43.967  -0.208  29.354  1.00  0.00     0.189 HD
BRANCH   7   9
HETATM    9  C3  UNL     1      43.894  -2.063  28.342  1.00  0.00     0.186 C 
HETATM   10  S1  UNL     1      43.592  -3.602  28.777  1.00  0.00    -0.040 SA
BRANCH   9  11
HETATM   11  N1  UNL     1      44.705  -1.810  27.217  1.00  0.00    -0.366 N 
ATOM     12  H1  UNL     1      45.713  -1.718  27.344  1.00  0.00     0.161 HD
BRANCH  11  13
HETATM   13  C2  UNL     1      44.145  -1.673  25.871  1.00  0.00     0.117 C 
HETATM   14  C1  UNL     1      44.195  -3.000  25.171  1.00  0.00     0.026 C 
ENDBRANCH  11  13
ENDBRANCH   9  11
ENDBRANCH   7   9
ENDBRANCH   1   7
BRANCH   5  15
HETATM   15  C5  UNL     1      39.732   0.205  32.274  1.00  0.00     0.089 C 
HETATM   16  C6  UNL     1      38.386   0.922  32.154  1.00  0.00     0.044 C 
HETATM   17  C7  UNL     1      38.067   1.559  33.492  1.00  0.00     0.118 C 
HETATM   18  N5  UNL     1      39.166   1.375  34.378  1.00  0.00    -0.416 N 
HETATM   19  C8  UNL     1      39.242   2.287  35.467  1.00  0.00     0.143 C 
HETATM   20  C9  UNL     1      39.451   0.014  34.695  1.00  0.00     0.118 C 
HETATM   21  C10 UNL     1      39.602  -0.764  33.404  1.00  0.00     0.044 C 
ENDBRANCH   5  15
TORSDOF 5
ENDMDL
MODEL 4
REMARK VINA RESULT: -5.468856765      3.139      3.919
REMARK  5 active torsions:
REMARK  status: ('A' for Active; 'I' for Inactive)
REMARK    1  A    between atoms: C2_2  and  N1_3 
REMARK    2  A    between atoms: N1_3  and  C3_5 
REMARK    3  A    between atoms: C3_5  and  N2_7 
REMARK    4  A    between atoms: N2_7  and  N3_9 
REMARK       I    between atoms: N3_9  and  C4_11 
REMARK       I    between atoms: C4_11  and  N4_13 
REMARK    5  A    between atoms: N4_13  and  C5_15 
ROOT
HETATM    1  N3  UNL     1      41.844  -0.652  31.723  1.00  0.00    -0.249 N 
ATOM      2  H3  UNL     1      40.985  -0.166  31.467  1.00  0.00     0.192 HD
HETATM    3  C4  UNL     1      42.616  -1.263  30.701  1.00  0.00     0.335 C 
HETATM    4  O1  UNL     1      43.678  -1.858  31.059  1.00  0.00    -0.246 OA
HETATM    5  N4  UNL     1      42.208  -1.207  29.343  1.00  0.00    -0.337 N 
ATOM      6  H4  UNL     1      41.345  -0.715  29.114  1.00  0.00     0.164 HD
ENDROOT
BRANCH   1   7
HETATM    7  N2  UNL     1      42.221  -0.693  33.073  1.00  0.00    -0.272 N 
ATOM      8  H2  UNL     1      41.921  -1.484  33.643  1.00  0.00     0.189 HD
BRANCH   7   9
HETATM    9  C3  UNL     1      43.007   0.330  33.677  1.00  0.00     0.186 C 
HETATM   10  S1  UNL     1      42.479   1.118  34.999  1.00  0.00    -0.040 SA
BRANCH   9  11
HETATM   11  N1  UNL     1      44.260   0.668  33.125  1.00  0.00    -0.366 N 
ATOM     12  H1  UNL     1      44.445   0.447  32.147  1.00  0.00     0.161 HD
BRANCH  11  13
HETATM   13  C2  UNL     1      45.304   1.327  33.913  1.00  0.00     0.117 C 
HETATM   14  C1  UNL     1      46.083   0.294  34.674  1.00  0.00     0.026 C 
ENDBRANCH  11  13
ENDBRANCH   9  11
ENDBRANCH   7   9
ENDBRANCH   1   7
BRANCH   5  15
HETATM   15  C5  UNL     1      42.950  -1.807  28.288  1.00  0.00     0.089 C 
HETATM   16  C6  UNL     1      44.182  -1.001  27.874  1.00  0.00     0.044 C 
HETATM   17  C7  UNL     1      44.800  -1.670  26.662  1.00  0.00     0.118 C 
HETATM   18  N5  UNL     1      43.975  -2.752  26.245  1.00  0.00    -0.416 N 
HETATM   19  C8  UNL     1      44.134  -3.168  24.894  1.00  0.00     0.143 C 
HETATM   20  C9  UNL     1      43.849  -3.803  27.202  1.00  0.00     0.118 C 
HETATM   21  C10 UNL     1      43.413  -3.208  28.524  1.00  0.00     0.044 C 
ENDBRANCH   5  15
TORSDOF 5
ENDMDL
MODEL 5
REMARK VINA RESULT: -5.376977191      5.223      8.191
REMARK  5 active torsions:
REMARK  status: ('A' for Active; 'I' for Inactive)
REMARK    1  A    between atoms: C2_2  and  N1_3 
REMARK    2  A    between atoms: N1_3  and  C3_5 
REMARK    3  A    between atoms: C3_5  and  N2_7 
REMARK    4  A    between atoms: N2_7  and  N3_9 
REMARK       I    between atoms: N3_9  and  C4_11 
REMARK       I    between atoms: C4_11  and  N4_13 
REMARK    5  A    between atoms: N4_13  and  C5_15 
ROOT
HETATM    1  N3  UNL     1      43.709  -1.105  31.628  1.00  0.00    -0.249 N 
ATOM      2  H3  UNL     1      44.168  -2.014  31.578  1.00  0.00     0.192 HD
HETATM    3  C4  UNL     1      43.887  -0.311  32.791  1.00  0.00     0.335 C 
HETATM    4  O1  UNL     1      43.301   0.815  32.815  1.00  0.00    -0.246 OA
HETATM    5  N4  UNL     1      44.683  -0.766  33.873  1.00  0.00    -0.337 N 
ATOM      6  H4  UNL     1      45.130  -1.680  33.798  1.00  0.00     0.164 HD
ENDROOT
BRANCH   1   7
HETATM    7  N2  UNL     1      42.926  -0.682  30.544  1.00  0.00    -0.272 N 
ATOM      8  H2  UNL     1      42.301   0.114  30.671  1.00  0.00     0.189 HD
BRANCH   7   9
HETATM    9  C3  UNL     1      42.972  -1.323  29.273  1.00  0.00     0.186 C 
HETATM   10  S1  UNL     1      42.172  -2.715  29.011  1.00  0.00    -0.040 SA
BRANCH   9  11
HETATM   11  N1  UNL     1      43.719  -0.748  28.225  1.00  0.00    -0.366 N 
ATOM     12  H1  UNL     1      43.686   0.263  28.091  1.00  0.00     0.161 HD
BRANCH  11  13
HETATM   13  C2  UNL     1      44.541  -1.557  27.322  1.00  0.00     0.117 C 
HETATM   14  C1  UNL     1      44.150  -1.273  25.901  1.00  0.00     0.026 C 
ENDBRANCH  11  13
ENDBRANCH   9  11
ENDBRANCH   7   9
ENDBRANCH   1   7
BRANCH   5  15
HETATM   15  C5  UNL     1      44.886  -0.005  35.058  1.00  0.00     0.089 C 
HETATM   16  C6  UNL     1      43.834  -0.265  36.137  1.00  0.00     0.044 C 
HETATM   17  C7  UNL     1      44.081   0.698  37.281  1.00  0.00     0.118 C 
HETATM   18  N5  UNL     1      45.132   1.591  36.930  1.00  0.00    -0.416 N 
HETATM   19  C8  UNL     1      45.169   2.817  37.651  1.00  0.00     0.143 C 
HETATM   20  C9  UNL     1      46.396   0.965  36.717  1.00  0.00     0.118 C 
HETATM   21  C10 UNL     1      46.220  -0.157  35.715  1.00  0.00     0.044 C 
ENDBRANCH   5  15
TORSDOF 5
ENDMDL
