MODEL 1
REMARK VINA RESULT: -5.390798425      0.000      0.000
REMARK  5 active torsions:
REMARK  status: ('A' for Active; 'I' for Inactive)
REMARK    1  A    between atoms: C2_2  and  N1_3 
REMARK    2  A    between atoms: C2_2  and  C7_17 
REMARK    3  A    between atoms: N1_3  and  C3_5 
REMARK    4  A    between atoms: C3_5  and  N2_7 
REMARK    5  A    between atoms: N2_7  and  C4_9 
ROOT
HETATM    1  C3  UNL     1      42.280  -1.131  30.048  1.00  0.00     0.169 C 
HETATM    2  S1  UNL     1      40.959  -2.087  29.852  1.00  0.00    -0.041 SA
ENDROOT
BRANCH   1   3
HETATM    3  N1  UNL     1      42.587  -0.479  31.251  1.00  0.00    -0.361 N 
ATOM      4  H1  UNL     1      42.196   0.454  31.386  1.00  0.00     0.162 HD
BRANCH   3   5
HETATM    5  C2  UNL     1      43.394  -1.003  32.302  1.00  0.00     0.102 C 
HETATM    6  C1  UNL     1      44.404  -0.030  32.855  1.00  0.00     0.034 C 
BRANCH   5   7
HETATM    7  C7  UNL     1      42.581  -1.491  33.481  1.00  0.00     0.050 C 
HETATM    8  C8  UNL     1      42.379  -2.982  33.439  1.00  0.00     0.034 C 
HETATM    9  C9  UNL     1      43.141  -1.049  34.802  1.00  0.00     0.034 C 
HETATM   10 CL1  UNL     1      40.962  -0.730  33.329  1.00  0.00    -0.118 Cl
ENDBRANCH   5   7
ENDBRANCH   3   5
ENDBRANCH   1   3
BRANCH   1  11
HETATM   11  N2  UNL     1      43.107  -1.006  28.902  1.00  0.00    -0.344 N 
ATOM     12  H2  UNL     1      42.828  -0.392  28.137  1.00  0.00     0.164 HD
BRANCH  11  13
HETATM   13  C4  UNL     1      44.366  -1.764  28.817  1.00  0.00     0.205 C 
HETATM   14  C5  UNL     1      44.105  -3.179  28.329  1.00  0.00     0.171 C 
HETATM   15  N3  UNL     1      43.695  -2.958  26.968  1.00  0.00    -0.339 N 
HETATM   16  C6  UNL     1      44.311  -1.762  26.536  1.00  0.00     0.317 C 
ATOM     17  H3  UNL     1      43.075  -3.554  26.418  1.00  0.00     0.164 HD
HETATM   18  O1  UNL     1      44.276  -1.198  25.397  1.00  0.00    -0.247 OA
HETATM   19  N4  UNL     1      45.056  -1.203  27.643  1.00  0.00    -0.320 N 
ATOM     20  H4  UNL     1      45.860  -0.575  27.617  1.00  0.00     0.166 HD
ENDBRANCH  11  13
ENDBRANCH   1  11
TORSDOF 5
ENDMDL
MODEL 2
REMARK VINA RESULT: -5.384349138      2.418      2.965
REMARK  5 active torsions:
REMARK  status: ('A' for Active; 'I' for Inactive)
REMARK    1  A    between atoms: C2_2  and  N1_3 
REMARK    2  A    between atoms: C2_2  and  C7_17 
REMARK    3  A    between atoms: N1_3  and  C3_5 
REMARK    4  A    between atoms: C3_5  and  N2_7 
REMARK    5  A    between atoms: N2_7  and  C4_9 
ROOT
HETATM    1  C3  UNL     1      42.220  -0.864  30.184  1.00  0.00     0.169 C 
HETATM    2  S1  UNL     1      42.993  -1.325  31.559  1.00  0.00    -0.041 SA
ENDROOT
BRANCH   1   3
HETATM    3  N1  UNL     1      40.912  -0.359  30.169  1.00  0.00    -0.361 N 
ATOM      4  H1  UNL     1      40.807   0.655  30.134  1.00  0.00     0.162 HD
BRANCH   3   5
HETATM    5  C2  UNL     1      39.717  -1.135  30.196  1.00  0.00     0.102 C 
HETATM    6  C1  UNL     1      39.935  -2.618  30.048  1.00  0.00     0.034 C 
BRANCH   5   7
HETATM    7  C7  UNL     1      38.921  -0.944  31.469  1.00  0.00     0.050 C 
HETATM    8  C8  UNL     1      39.309  -1.943  32.524  1.00  0.00     0.034 C 
HETATM    9  C9  UNL     1      38.986   0.462  31.993  1.00  0.00     0.034 C 
HETATM   10 CL1  UNL     1      37.205  -1.255  31.044  1.00  0.00    -0.118 Cl
ENDBRANCH   5   7
ENDBRANCH   3   5
ENDBRANCH   1   3
BRANCH   1  11
HETATM   11  N2  UNL     1      42.975  -1.014  28.992  1.00  0.00    -0.344 N 
ATOM     12  H2  UNL     1      42.655  -0.578  28.127  1.00  0.00     0.164 HD
BRANCH  11  13
HETATM   13  C4  UNL     1      44.220  -1.799  29.004  1.00  0.00     0.205 C 
HETATM   14  C5  UNL     1      43.963  -3.214  28.512  1.00  0.00     0.171 C 
HETATM   15  N3  UNL     1      43.655  -2.999  27.123  1.00  0.00    -0.339 N 
HETATM   16  C6  UNL     1      44.326  -1.821  26.725  1.00  0.00     0.317 C 
ATOM     17  H3  UNL     1      43.062  -3.587  26.536  1.00  0.00     0.164 HD
HETATM   18  O1  UNL     1      44.384  -1.268  25.581  1.00  0.00    -0.247 OA
HETATM   19  N4  UNL     1      45.004  -1.266  27.877  1.00  0.00    -0.320 N 
ATOM     20  H4  UNL     1      45.821  -0.656  27.902  1.00  0.00     0.166 HD
ENDBRANCH  11  13
ENDBRANCH   1  11
TORSDOF 5
ENDMDL
MODEL 3
REMARK VINA RESULT: -5.366656448      0.822      1.127
REMARK  5 active torsions:
REMARK  status: ('A' for Active; 'I' for Inactive)
REMARK    1  A    between atoms: C2_2  and  N1_3 
REMARK    2  A    between atoms: C2_2  and  C7_17 
REMARK    3  A    between atoms: N1_3  and  C3_5 
REMARK    4  A    between atoms: C3_5  and  N2_7 
REMARK    5  A    between atoms: N2_7  and  C4_9 
ROOT
HETATM    1  C3  UNL     1      42.284  -1.155  30.016  1.00  0.00     0.169 C 
HETATM    2  S1  UNL     1      40.975  -2.129  29.833  1.00  0.00    -0.041 SA
ENDROOT
BRANCH   1   3
HETATM    3  N1  UNL     1      42.584  -0.484  31.211  1.00  0.00    -0.361 N 
ATOM      4  H1  UNL     1      42.222   0.465  31.314  1.00  0.00     0.162 HD
BRANCH   3   5
HETATM    5  C2  UNL     1      43.348  -1.008  32.294  1.00  0.00     0.102 C 
HETATM    6  C1  UNL     1      44.360  -0.049  32.864  1.00  0.00     0.034 C 
BRANCH   5   7
HETATM    7  C7  UNL     1      42.489  -1.464  33.453  1.00  0.00     0.050 C 
HETATM    8  C8  UNL     1      41.133  -0.811  33.432  1.00  0.00     0.034 C 
HETATM    9  C9  UNL     1      42.377  -2.958  33.547  1.00  0.00     0.034 C 
HETATM   10 CL1  UNL     1      43.321  -0.915  34.946  1.00  0.00    -0.118 Cl
ENDBRANCH   5   7
ENDBRANCH   3   5
ENDBRANCH   1   3
BRANCH   1  11
HETATM   11  N2  UNL     1      43.108  -1.033  28.867  1.00  0.00    -0.344 N 
ATOM     12  H2  UNL     1      42.827  -0.424  28.100  1.00  0.00     0.164 HD
BRANCH  11  13
HETATM   13  C4  UNL     1      44.369  -1.788  28.784  1.00  0.00     0.205 C 
HETATM   14  C5  UNL     1      44.113  -3.201  28.284  1.00  0.00     0.171 C 
HETATM   15  N3  UNL     1      43.710  -2.970  26.923  1.00  0.00    -0.339 N 
HETATM   16  C6  UNL     1      44.326  -1.770  26.503  1.00  0.00     0.317 C 
ATOM     17  H3  UNL     1      43.094  -3.563  26.365  1.00  0.00     0.164 HD
HETATM   18  O1  UNL     1      44.296  -1.197  25.368  1.00  0.00    -0.247 OA
HETATM   19  N4  UNL     1      45.065  -1.218  27.618  1.00  0.00    -0.320 N 
ATOM     20  H4  UNL     1      45.868  -0.589  27.601  1.00  0.00     0.166 HD
ENDBRANCH  11  13
ENDBRANCH   1  11
TORSDOF 5
ENDMDL
MODEL 4
REMARK VINA RESULT: -5.359777417      2.477      3.042
REMARK  5 active torsions:
REMARK  status: ('A' for Active; 'I' for Inactive)
REMARK    1  A    between atoms: C2_2  and  N1_3 
REMARK    2  A    between atoms: C2_2  and  C7_17 
REMARK    3  A    between atoms: N1_3  and  C3_5 
REMARK    4  A    between atoms: C3_5  and  N2_7 
REMARK    5  A    between atoms: N2_7  and  C4_9 
ROOT
HETATM    1  C3  UNL     1      42.405  -1.075  30.021  1.00  0.00     0.169 C 
HETATM    2  S1  UNL     1      43.229  -1.544  31.363  1.00  0.00    -0.041 SA
ENDROOT
BRANCH   1   3
HETATM    3  N1  UNL     1      41.047  -0.725  30.036  1.00  0.00    -0.361 N 
ATOM      4  H1  UNL     1      40.662  -0.321  29.182  1.00  0.00     0.162 HD
BRANCH   3   5
HETATM    5  C2  UNL     1      40.156  -0.885  31.137  1.00  0.00     0.102 C 
HETATM    6  C1  UNL     1      39.327   0.334  31.448  1.00  0.00     0.034 C 
BRANCH   5   7
HETATM    7  C7  UNL     1      39.183  -2.027  30.944  1.00  0.00     0.050 C 
HETATM    8  C8  UNL     1      39.310  -3.057  32.034  1.00  0.00     0.034 C 
HETATM    9  C9  UNL     1      37.762  -1.566  30.788  1.00  0.00     0.034 C 
HETATM   10 CL1  UNL     1      39.636  -2.825  29.401  1.00  0.00    -0.118 Cl
ENDBRANCH   5   7
ENDBRANCH   3   5
ENDBRANCH   1   3
BRANCH   1  11
HETATM   11  N2  UNL     1      43.169  -1.047  28.826  1.00  0.00    -0.344 N 
ATOM     12  H2  UNL     1      42.861  -0.480  28.037  1.00  0.00     0.164 HD
BRANCH  11  13
HETATM   13  C4  UNL     1      44.406  -1.837  28.726  1.00  0.00     0.205 C 
HETATM   14  C5  UNL     1      44.104  -3.239  28.222  1.00  0.00     0.171 C 
HETATM   15  N3  UNL     1      43.694  -2.991  26.866  1.00  0.00    -0.339 N 
HETATM   16  C6  UNL     1      44.341  -1.807  26.446  1.00  0.00     0.317 C 
ATOM     17  H3  UNL     1      43.056  -3.562  26.312  1.00  0.00     0.164 HD
HETATM   18  O1  UNL     1      44.316  -1.227  25.314  1.00  0.00    -0.247 OA
HETATM   19  N4  UNL     1      45.106  -1.281  27.556  1.00  0.00    -0.320 N 
ATOM     20  H4  UNL     1      45.927  -0.675  27.533  1.00  0.00     0.166 HD
ENDBRANCH  11  13
ENDBRANCH   1  11
TORSDOF 5
ENDMDL
MODEL 5
REMARK VINA RESULT: -5.348409610      2.386      3.156
REMARK  5 active torsions:
REMARK  status: ('A' for Active; 'I' for Inactive)
REMARK    1  A    between atoms: C2_2  and  N1_3 
REMARK    2  A    between atoms: C2_2  and  C7_17 
REMARK    3  A    between atoms: N1_3  and  C3_5 
REMARK    4  A    between atoms: C3_5  and  N2_7 
REMARK    5  A    between atoms: N2_7  and  C4_9 
ROOT
HETATM    1  C3  UNL     1      42.317  -1.003  30.088  1.00  0.00     0.169 C 
HETATM    2  S1  UNL     1      43.119  -1.382  31.470  1.00  0.00    -0.041 SA
ENDROOT
BRANCH   1   3
HETATM    3  N1  UNL     1      40.938  -0.749  30.043  1.00  0.00    -0.361 N 
ATOM      4  H1  UNL     1      40.554  -0.428  29.154  1.00  0.00     0.162 HD
BRANCH   3   5
HETATM    5  C2  UNL     1      40.026  -0.902  31.127  1.00  0.00     0.102 C 
HETATM    6  C1  UNL     1      39.251   0.344  31.468  1.00  0.00     0.034 C 
BRANCH   5   7
HETATM    7  C7  UNL     1      39.003  -1.990  30.886  1.00  0.00     0.050 C 
HETATM    8  C8  UNL     1      37.605  -1.438  30.825  1.00  0.00     0.034 C 
HETATM    9  C9  UNL     1      39.315  -2.830  29.681  1.00  0.00     0.034 C 
HETATM   10 CL1  UNL     1      39.082  -3.084  32.308  1.00  0.00    -0.118 Cl
ENDBRANCH   5   7
ENDBRANCH   3   5
ENDBRANCH   1   3
BRANCH   1  11
HETATM   11  N2  UNL     1      43.123  -0.948  28.921  1.00  0.00    -0.344 N 
ATOM     12  H2  UNL     1      42.844  -0.360  28.136  1.00  0.00     0.164 HD
BRANCH  11  13
HETATM   13  C4  UNL     1      44.362  -1.739  28.846  1.00  0.00     0.205 C 
HETATM   14  C5  UNL     1      44.064  -3.151  28.368  1.00  0.00     0.171 C 
HETATM   15  N3  UNL     1      43.664  -2.929  27.005  1.00  0.00    -0.339 N 
HETATM   16  C6  UNL     1      44.313  -1.753  26.565  1.00  0.00     0.317 C 
ATOM     17  H3  UNL     1      43.030  -3.513  26.458  1.00  0.00     0.164 HD
HETATM   18  O1  UNL     1      44.296  -1.197  25.422  1.00  0.00    -0.247 OA
HETATM   19  N4  UNL     1      45.070  -1.205  27.670  1.00  0.00    -0.320 N 
ATOM     20  H4  UNL     1      45.890  -0.600  27.641  1.00  0.00     0.166 HD
ENDBRANCH  11  13
ENDBRANCH   1  11
TORSDOF 5
ENDMDL
