MODEL 1
REMARK VINA RESULT: -6.522316265      0.000      0.000
REMARK  2 active torsions:
REMARK  status: ('A' for Active; 'I' for Inactive)
REMARK    1  A    between atoms: C2_2  and  C3_3 
REMARK    2  A    between atoms: C5_5  and  N1_6 
REMARK       I    between atoms: N1_6  and  C6_8 
REMARK       I    between atoms: N3_10  and  C7_12 
REMARK       I    between atoms: C7_12  and  N4_14 
REMARK       I    between atoms: N4_14  and  C8_16 
ROOT
HETATM    1  N1  UNL     1      42.836  -0.735  30.841  1.00  0.00    -0.360 N 
ATOM      2  H1  UNL     1      43.486   0.007  31.101  1.00  0.00     0.162 HD
HETATM    3  C6  UNL     1      43.222  -1.764  29.932  1.00  0.00     0.192 C 
HETATM    4  N2  UNL     1      43.775  -2.990  30.388  1.00  0.00    -0.063 NA
HETATM    5  N3  UNL     1      43.078  -1.606  28.663  1.00  0.00    -0.283 N 
ATOM      6  H3  UNL     1      42.682  -0.733  28.315  1.00  0.00     0.173 HD
HETATM    7  C7  UNL     1      43.446  -2.597  27.745  1.00  0.00     0.329 C 
HETATM    8  O1  UNL     1      43.377  -3.811  28.076  1.00  0.00    -0.247 OA
HETATM    9  N4  UNL     1      43.899  -2.268  26.440  1.00  0.00    -0.283 N 
ATOM     10  H4  UNL     1      43.956  -1.288  26.163  1.00  0.00     0.173 HD
HETATM   11  C8  UNL     1      44.275  -3.284  25.506  1.00  0.00     0.189 C 
HETATM   12  N5  UNL     1      44.672  -2.912  24.350  1.00  0.00    -0.373 N 
ATOM     13  H51 UNL     1      44.940  -3.636  23.684  1.00  0.00     0.158 HD
ATOM     14  H52 UNL     1      44.730  -1.931  24.075  1.00  0.00     0.158 HD
HETATM   15  N6  UNL     1      44.194  -4.645  25.887  1.00  0.00    -0.064 NA
ENDROOT
BRANCH   1  16
HETATM   16  C5  UNL     1      41.516  -0.774  31.378  1.00  0.00     0.086 C 
HETATM   17  C4  UNL     1      41.074  -2.113  31.850  1.00  0.00     0.035 C 
HETATM   18  C3  UNL     1      39.689  -2.325  31.230  1.00  0.00     0.028 C 
HETATM   19  C10 UNL     1      39.244  -0.923  30.848  1.00  0.00     0.092 C 
HETATM   20  C9  UNL     1      40.528  -0.315  30.316  1.00  0.00     0.046 C 
HETATM   21 CL1  UNL     1      38.818  -0.037  32.333  1.00  0.00    -0.124 Cl
BRANCH  18  22
HETATM   22  C2  UNL     1      39.876  -3.165  30.028  1.00  0.00    -0.031 C 
HETATM   23  C1  UNL     1      40.458  -4.346  30.113  1.00  0.00     0.007 C 
ENDBRANCH  18  22
ENDBRANCH   1  16
TORSDOF 2
ENDMDL
MODEL 2
REMARK VINA RESULT: -6.332713164      3.190      4.217
REMARK  2 active torsions:
REMARK  status: ('A' for Active; 'I' for Inactive)
REMARK    1  A    between atoms: C2_2  and  C3_3 
REMARK    2  A    between atoms: C5_5  and  N1_6 
REMARK       I    between atoms: N1_6  and  C6_8 
REMARK       I    between atoms: N3_10  and  C7_12 
REMARK       I    between atoms: C7_12  and  N4_14 
REMARK       I    between atoms: N4_14  and  C8_16 
ROOT
HETATM    1  N1  UNL     1      40.972  -5.525  29.682  1.00  0.00    -0.360 N 
ATOM      2  H1  UNL     1      40.102  -5.890  29.296  1.00  0.00     0.162 HD
HETATM    3  C6  UNL     1      41.691  -4.487  29.018  1.00  0.00     0.192 C 
HETATM    4  N2  UNL     1      41.476  -3.118  29.327  1.00  0.00    -0.063 NA
HETATM    5  N3  UNL     1      42.562  -4.768  28.113  1.00  0.00    -0.283 N 
ATOM      6  H3  UNL     1      42.731  -5.746  27.876  1.00  0.00     0.173 HD
HETATM    7  C7  UNL     1      43.284  -3.773  27.444  1.00  0.00     0.329 C 
HETATM    8  O1  UNL     1      43.556  -2.694  28.035  1.00  0.00    -0.247 OA
HETATM    9  N4  UNL     1      43.722  -3.949  26.104  1.00  0.00    -0.283 N 
ATOM     10  H4  UNL     1      43.507  -4.819  25.617  1.00  0.00     0.173 HD
HETATM   11  C8  UNL     1      44.459  -2.929  25.423  1.00  0.00     0.189 C 
HETATM   12  N5  UNL     1      44.819  -3.158  24.220  1.00  0.00    -0.373 N 
ATOM     13  H51 UNL     1      45.345  -2.431  23.735  1.00  0.00     0.158 HD
ATOM     14  H52 UNL     1      44.602  -4.029  23.734  1.00  0.00     0.158 HD
HETATM   15  N6  UNL     1      44.760  -1.720  26.097  1.00  0.00    -0.064 NA
ENDROOT
BRANCH   1  16
HETATM   16  C5  UNL     1      41.505  -6.036  30.902  1.00  0.00     0.086 C 
HETATM   17  C4  UNL     1      41.147  -5.253  32.115  1.00  0.00     0.035 C 
HETATM   18  C3  UNL     1      42.467  -5.038  32.863  1.00  0.00     0.028 C 
HETATM   19  C10 UNL     1      43.389  -6.098  32.283  1.00  0.00     0.092 C 
HETATM   20  C9  UNL     1      43.024  -6.070  30.812  1.00  0.00     0.046 C 
HETATM   21 CL1  UNL     1      42.898  -7.688  32.918  1.00  0.00    -0.124 Cl
BRANCH  18  22
HETATM   22  C2  UNL     1      42.942  -3.680  32.519  1.00  0.00    -0.031 C 
HETATM   23  C1  UNL     1      42.584  -2.637  33.241  1.00  0.00     0.007 C 
ENDBRANCH  18  22
ENDBRANCH   1  16
TORSDOF 2
ENDMDL
MODEL 3
REMARK VINA RESULT: -6.276699531      3.554      4.711
REMARK  2 active torsions:
REMARK  status: ('A' for Active; 'I' for Inactive)
REMARK    1  A    between atoms: C2_2  and  C3_3 
REMARK    2  A    between atoms: C5_5  and  N1_6 
REMARK       I    between atoms: N1_6  and  C6_8 
REMARK       I    between atoms: N3_10  and  C7_12 
REMARK       I    between atoms: C7_12  and  N4_14 
REMARK       I    between atoms: N4_14  and  C8_16 
ROOT
HETATM    1  N1  UNL     1      41.287  -5.587  29.777  1.00  0.00    -0.360 N 
ATOM      2  H1  UNL     1      40.535  -6.180  29.430  1.00  0.00     0.162 HD
HETATM    3  C6  UNL     1      41.801  -4.515  28.988  1.00  0.00     0.192 C 
HETATM    4  N2  UNL     1      41.284  -3.196  29.100  1.00  0.00    -0.063 NA
HETATM    5  N3  UNL     1      42.755  -4.716  28.148  1.00  0.00    -0.283 N 
ATOM      6  H3  UNL     1      43.140  -5.656  28.054  1.00  0.00     0.173 HD
HETATM    7  C7  UNL     1      43.280  -3.685  27.361  1.00  0.00     0.329 C 
HETATM    8  O1  UNL     1      43.287  -2.505  27.801  1.00  0.00    -0.247 OA
HETATM    9  N4  UNL     1      43.810  -3.936  26.067  1.00  0.00    -0.283 N 
ATOM     10  H4  UNL     1      43.810  -4.889  25.703  1.00  0.00     0.173 HD
HETATM   11  C8  UNL     1      44.345  -2.880  25.265  1.00  0.00     0.189 C 
HETATM   12  N5  UNL     1      44.805  -3.182  24.112  1.00  0.00    -0.373 N 
ATOM     13  H51 UNL     1      45.187  -2.429  23.541  1.00  0.00     0.158 HD
ATOM     14  H52 UNL     1      44.802  -4.135  23.749  1.00  0.00     0.158 HD
HETATM   15  N6  UNL     1      44.349  -1.556  25.769  1.00  0.00    -0.064 NA
ENDROOT
BRANCH   1  16
HETATM   16  C5  UNL     1      41.857  -5.803  31.066  1.00  0.00     0.086 C 
HETATM   17  C4  UNL     1      43.344  -5.827  31.095  1.00  0.00     0.035 C 
HETATM   18  C3  UNL     1      43.714  -7.085  31.888  1.00  0.00     0.028 C 
HETATM   19  C10 UNL     1      42.442  -7.422  32.647  1.00  0.00     0.092 C 
HETATM   20  C9  UNL     1      41.368  -7.135  31.615  1.00  0.00     0.046 C 
HETATM   21 CL1  UNL     1      42.235  -6.242  33.964  1.00  0.00    -0.124 Cl
BRANCH  18  22
HETATM   22  C2  UNL     1      44.036  -8.139  30.902  1.00  0.00    -0.031 C 
HETATM   23  C1  UNL     1      44.829  -9.143  31.222  1.00  0.00     0.007 C 
ENDBRANCH  18  22
ENDBRANCH   1  16
TORSDOF 2
ENDMDL
MODEL 4
REMARK VINA RESULT: -6.273810070      4.069      7.022
REMARK  2 active torsions:
REMARK  status: ('A' for Active; 'I' for Inactive)
REMARK    1  A    between atoms: C2_2  and  C3_3 
REMARK    2  A    between atoms: C5_5  and  N1_6 
REMARK       I    between atoms: N1_6  and  C6_8 
REMARK       I    between atoms: N3_10  and  C7_12 
REMARK       I    between atoms: C7_12  and  N4_14 
REMARK       I    between atoms: N4_14  and  C8_16 
ROOT
HETATM    1  N1  UNL     1      42.470  -0.640  30.863  1.00  0.00    -0.360 N 
ATOM      2  H1  UNL     1      41.984   0.068  30.312  1.00  0.00     0.162 HD
HETATM    3  C6  UNL     1      42.679  -0.465  32.263  1.00  0.00     0.192 C 
HETATM    4  N2  UNL     1      41.757  -0.965  33.220  1.00  0.00    -0.063 NA
HETATM    5  N3  UNL     1      43.720   0.155  32.698  1.00  0.00    -0.283 N 
ATOM      6  H3  UNL     1      44.394   0.521  32.027  1.00  0.00     0.173 HD
HETATM    7  C7  UNL     1      43.954   0.341  34.066  1.00  0.00     0.329 C 
HETATM    8  O1  UNL     1      43.539  -0.514  34.893  1.00  0.00    -0.247 OA
HETATM    9  N4  UNL     1      44.652   1.480  34.550  1.00  0.00    -0.283 N 
ATOM     10  H4  UNL     1      44.992   2.177  33.888  1.00  0.00     0.173 HD
HETATM   11  C8  UNL     1      44.888   1.667  35.948  1.00  0.00     0.189 C 
HETATM   12  N5  UNL     1      45.523   2.715  36.309  1.00  0.00    -0.373 N 
ATOM     13  H51 UNL     1      45.692   2.848  37.306  1.00  0.00     0.158 HD
ATOM     14  H52 UNL     1      45.862   3.412  35.645  1.00  0.00     0.158 HD
HETATM   15  N6  UNL     1      44.419   0.700  36.870  1.00  0.00    -0.064 NA
ENDROOT
BRANCH   1  16
HETATM   16  C5  UNL     1      42.959  -1.833  30.255  1.00  0.00     0.086 C 
HETATM   17  C4  UNL     1      44.299  -1.707  29.622  1.00  0.00     0.035 C 
HETATM   18  C3  UNL     1      44.148  -2.319  28.226  1.00  0.00     0.028 C 
HETATM   19  C10 UNL     1      42.890  -3.165  28.336  1.00  0.00     0.092 C 
HETATM   20  C9  UNL     1      41.985  -2.285  29.177  1.00  0.00     0.046 C 
HETATM   21 CL1  UNL     1      43.260  -4.614  29.302  1.00  0.00    -0.124 Cl
BRANCH  18  22
HETATM   22  C2  UNL     1      43.951  -1.199  27.281  1.00  0.00    -0.031 C 
HETATM   23  C1  UNL     1      44.217  -1.344  25.998  1.00  0.00     0.007 C 
ENDBRANCH  18  22
ENDBRANCH   1  16
TORSDOF 2
ENDMDL
MODEL 5
REMARK VINA RESULT: -6.195162824      2.813      3.622
REMARK  2 active torsions:
REMARK  status: ('A' for Active; 'I' for Inactive)
REMARK    1  A    between atoms: C2_2  and  C3_3 
REMARK    2  A    between atoms: C5_5  and  N1_6 
REMARK       I    between atoms: N1_6  and  C6_8 
REMARK       I    between atoms: N3_10  and  C7_12 
REMARK       I    between atoms: C7_12  and  N4_14 
REMARK       I    between atoms: N4_14  and  C8_16 
ROOT
HETATM    1  N1  UNL     1      40.588  -3.687  30.326  1.00  0.00    -0.360 N 
ATOM      2  H1  UNL     1      39.630  -3.795  29.992  1.00  0.00     0.162 HD
HETATM    3  C6  UNL     1      41.571  -3.024  29.534  1.00  0.00     0.192 C 
HETATM    4  N2  UNL     1      41.820  -1.632  29.668  1.00  0.00    -0.063 NA
HETATM    5  N3  UNL     1      42.267  -3.677  28.669  1.00  0.00    -0.283 N 
ATOM      6  H3  UNL     1      42.104  -4.678  28.558  1.00  0.00     0.173 HD
HETATM    7  C7  UNL     1      43.239  -3.056  27.877  1.00  0.00     0.329 C 
HETATM    8  O1  UNL     1      43.868  -2.061  28.327  1.00  0.00    -0.247 OA
HETATM    9  N4  UNL     1      43.539  -3.522  26.570  1.00  0.00    -0.283 N 
ATOM     10  H4  UNL     1      43.036  -4.328  26.198  1.00  0.00     0.173 HD
HETATM   11  C8  UNL     1      44.534  -2.883  25.763  1.00  0.00     0.189 C 
HETATM   12  N5  UNL     1      44.749  -3.358  24.598  1.00  0.00    -0.373 N 
ATOM     13  H51 UNL     1      45.459  -2.904  24.023  1.00  0.00     0.158 HD
ATOM     14  H52 UNL     1      44.244  -4.164  24.227  1.00  0.00     0.158 HD
HETATM   15  N6  UNL     1      45.235  -1.766  26.277  1.00  0.00    -0.064 NA
ENDROOT
BRANCH   1  16
HETATM   16  C5  UNL     1      40.982  -4.193  31.599  1.00  0.00     0.086 C 
HETATM   17  C4  UNL     1      42.373  -3.856  32.001  1.00  0.00     0.035 C 
HETATM   18  C3  UNL     1      42.993  -5.178  32.466  1.00  0.00     0.028 C 
HETATM   19  C10 UNL     1      41.791  -6.065  32.742  1.00  0.00     0.092 C 
HETATM   20  C9  UNL     1      40.862  -5.710  31.597  1.00  0.00     0.046 C 
HETATM   21 CL1  UNL     1      41.009  -5.513  34.244  1.00  0.00    -0.124 Cl
BRANCH  18  22
HETATM   22  C2  UNL     1      43.789  -5.704  31.335  1.00  0.00    -0.031 C 
HETATM   23  C1  UNL     1      44.538  -6.779  31.480  1.00  0.00     0.007 C 
ENDBRANCH  18  22
ENDBRANCH   1  16
TORSDOF 2
ENDMDL
