MODEL 1
REMARK VINA RESULT: -6.616575683      0.000      0.000
REMARK  7 active torsions:
REMARK  status: ('A' for Active; 'I' for Inactive)
REMARK       I    between atoms: N1_2  and  C2_4 
REMARK    1  A    between atoms: C2_4  and  C3_6 
REMARK    2  A    between atoms: C3_6  and  C4_7 
REMARK    3  A    between atoms: C4_7  and  C5_8 
REMARK    4  A    between atoms: C5_8  and  C6_9 
REMARK    5  A    between atoms: C6_9  and  C8_11 
REMARK    6  A    between atoms: C14_20  and  O2_21 
REMARK    7  A    between atoms: C15_23  and  C16_24 
ROOT
HETATM    1  C8  UNL     1      40.832  -4.209  30.351  1.00  0.00     0.197 C 
HETATM    2  N2  UNL     1      39.802  -5.194  30.103  1.00  0.00    -0.070 N 
ATOM      3  H21 UNL     1      39.714  -5.874  30.858  1.00  0.00     0.277 HD
ATOM      4  H22 UNL     1      40.050  -5.847  29.360  1.00  0.00     0.277 HD
HETATM    5  C9  UNL     1      38.570  -4.487  29.839  1.00  0.00     0.233 C 
HETATM    6  C10 UNL     1      38.555  -3.104  30.391  1.00  0.00     0.038 C 
HETATM    7  C11 UNL     1      39.295  -2.956  31.718  1.00  0.00    -0.027 C 
HETATM    8  C12 UNL     1      38.412  -3.698  32.725  1.00  0.00     0.016 C 
HETATM    9  C13 UNL     1      40.636  -3.696  31.709  1.00  0.00     0.055 C 
HETATM   10  C14 UNL     1      41.671  -2.808  32.320  1.00  0.00     0.139 C 
HETATM   11  C15 UNL     1      41.783  -1.568  31.510  1.00  0.00     0.120 C 
HETATM   12  C17 UNL     1      40.538  -0.756  31.806  1.00  0.00     0.011 C 
HETATM   13  C18 UNL     1      39.894  -0.049  30.665  1.00  0.00     0.007 C 
HETATM   14  C19 UNL     1      38.571  -0.535  31.263  1.00  0.00     0.011 C 
HETATM   15  C20 UNL     1      39.332  -1.544  32.137  1.00  0.00    -0.032 C 
HETATM   16  C21 UNL     1      38.841  -1.301  33.575  1.00  0.00     0.016 C 
ENDROOT
BRANCH   1  17
HETATM   17  C6  UNL     1      42.156  -4.791  29.959  1.00  0.00     0.013 C 
HETATM   18  C7  UNL     1      42.212  -6.272  30.171  1.00  0.00     0.012 C 
BRANCH  17  19
HETATM   19  C5  UNL     1      42.551  -4.320  28.592  1.00  0.00     0.006 C 
BRANCH  19  20
HETATM   20  C4  UNL     1      42.629  -2.852  28.375  1.00  0.00     0.010 C 
BRANCH  20  21
HETATM   21  C3  UNL     1      43.913  -2.193  28.087  1.00  0.00     0.103 C 
BRANCH  21  22
HETATM   22  C2  UNL     1      44.363  -2.307  26.665  1.00  0.00     0.217 C 
HETATM   23  N1  UNL     1      43.720  -3.206  25.786  1.00  0.00    -0.365 N 
HETATM   24  C1  UNL     1      44.086  -3.381  24.405  1.00  0.00     0.149 C 
ATOM     25  H1  UNL     1      42.950  -3.765  26.152  1.00  0.00     0.161 HD
HETATM   26  O1  UNL     1      45.307  -1.614  26.236  1.00  0.00    -0.274 OA
ENDBRANCH  21  22
ENDBRANCH  20  21
ENDBRANCH  19  20
ENDBRANCH  17  19
ENDBRANCH   1  17
BRANCH  10  27
HETATM   27  O2  UNL     1      42.827  -3.389  32.743  1.00  0.00    -0.394 OA
ATOM     28  H2  UNL     1      43.298  -2.965  33.450  1.00  0.00     0.210 HD
ENDBRANCH  10  27
BRANCH  11  29
HETATM   29  C16 UNL     1      42.983  -0.739  31.792  1.00  0.00     0.179 C 
HETATM   30  O3  UNL     1      44.105  -0.914  31.306  1.00  0.00    -0.648 OA
HETATM   31  O4  UNL     1      42.844   0.333  32.683  1.00  0.00    -0.648 OA
ENDBRANCH  11  29
TORSDOF 7
ENDMDL
MODEL 2
REMARK VINA RESULT: -6.581340690      1.202      1.423
REMARK  7 active torsions:
REMARK  status: ('A' for Active; 'I' for Inactive)
REMARK       I    between atoms: N1_2  and  C2_4 
REMARK    1  A    between atoms: C2_4  and  C3_6 
REMARK    2  A    between atoms: C3_6  and  C4_7 
REMARK    3  A    between atoms: C4_7  and  C5_8 
REMARK    4  A    between atoms: C5_8  and  C6_9 
REMARK    5  A    between atoms: C6_9  and  C8_11 
REMARK    6  A    between atoms: C14_20  and  O2_21 
REMARK    7  A    between atoms: C15_23  and  C16_24 
ROOT
HETATM    1  C8  UNL     1      40.627  -2.867  30.093  1.00  0.00     0.197 C 
HETATM    2  N2  UNL     1      39.770  -3.782  29.373  1.00  0.00    -0.070 N 
ATOM      3  H21 UNL     1      39.767  -4.721  29.773  1.00  0.00     0.277 HD
ATOM      4  H22 UNL     1      40.137  -4.029  28.453  1.00  0.00     0.277 HD
HETATM    5  C9  UNL     1      38.451  -3.196  29.310  1.00  0.00     0.233 C 
HETATM    6  C10 UNL     1      38.205  -2.184  30.375  1.00  0.00     0.038 C 
HETATM    7  C11 UNL     1      38.877  -2.509  31.707  1.00  0.00    -0.027 C 
HETATM    8  C12 UNL     1      38.091  -3.711  32.239  1.00  0.00     0.016 C 
HETATM    9  C13 UNL     1      40.316  -2.998  31.518  1.00  0.00     0.055 C 
HETATM   10  C14 UNL     1      41.183  -2.320  32.529  1.00  0.00     0.139 C 
HETATM   11  C15 UNL     1      41.124  -0.851  32.310  1.00  0.00     0.120 C 
HETATM   12  C17 UNL     1      39.759  -0.406  32.798  1.00  0.00     0.011 C 
HETATM   13  C18 UNL     1      39.047   0.623  31.993  1.00  0.00     0.007 C 
HETATM   14  C19 UNL     1      37.799  -0.235  32.218  1.00  0.00     0.011 C 
HETATM   15  C20 UNL     1      38.682  -1.409  32.668  1.00  0.00    -0.032 C 
HETATM   16  C21 UNL     1      38.119  -1.854  34.029  1.00  0.00     0.016 C 
ENDROOT
BRANCH   1  17
HETATM   17  C6  UNL     1      42.035  -3.055  29.619  1.00  0.00     0.013 C 
HETATM   18  C7  UNL     1      42.184  -4.260  28.740  1.00  0.00     0.012 C 
BRANCH  17  19
HETATM   19  C5  UNL     1      42.573  -1.776  29.054  1.00  0.00     0.006 C 
BRANCH  19  20
HETATM   20  C4  UNL     1      43.991  -1.773  28.607  1.00  0.00     0.010 C 
BRANCH  20  21
HETATM   21  C3  UNL     1      44.426  -0.959  27.461  1.00  0.00     0.103 C 
BRANCH  21  22
HETATM   22  C2  UNL     1      44.217  -1.602  26.128  1.00  0.00     0.217 C 
HETATM   23  N1  UNL     1      44.129  -3.008  26.023  1.00  0.00    -0.365 N 
HETATM   24  C1  UNL     1      43.929  -3.712  24.783  1.00  0.00     0.149 C 
ATOM     25  H1  UNL     1      44.212  -3.558  26.878  1.00  0.00     0.161 HD
HETATM   26  O1  UNL     1      44.118  -0.913  25.094  1.00  0.00    -0.274 OA
ENDBRANCH  21  22
ENDBRANCH  20  21
ENDBRANCH  19  20
ENDBRANCH  17  19
ENDBRANCH   1  17
BRANCH  10  27
HETATM   27  O2  UNL     1      42.403  -2.869  32.780  1.00  0.00    -0.394 OA
ATOM     28  H2  UNL     1      43.125  -2.608  32.222  1.00  0.00     0.210 HD
ENDBRANCH  10  27
BRANCH  11  29
HETATM   29  C16 UNL     1      42.172  -0.068  33.013  1.00  0.00     0.179 C 
HETATM   30  O3  UNL     1      43.273   0.238  32.544  1.00  0.00    -0.648 OA
HETATM   31  O4  UNL     1      41.903   0.364  34.318  1.00  0.00    -0.648 OA
ENDBRANCH  11  29
TORSDOF 7
ENDMDL
MODEL 3
REMARK VINA RESULT: -6.499850943      1.328      1.786
REMARK  7 active torsions:
REMARK  status: ('A' for Active; 'I' for Inactive)
REMARK       I    between atoms: N1_2  and  C2_4 
REMARK    1  A    between atoms: C2_4  and  C3_6 
REMARK    2  A    between atoms: C3_6  and  C4_7 
REMARK    3  A    between atoms: C4_7  and  C5_8 
REMARK    4  A    between atoms: C5_8  and  C6_9 
REMARK    5  A    between atoms: C6_9  and  C8_11 
REMARK    6  A    between atoms: C14_20  and  O2_21 
REMARK    7  A    between atoms: C15_23  and  C16_24 
ROOT
HETATM    1  C8  UNL     1      41.636  -4.903  30.684  1.00  0.00     0.197 C 
HETATM    2  N2  UNL     1      41.462  -6.336  30.771  1.00  0.00    -0.070 N 
ATOM      3  H21 UNL     1      41.688  -6.708  31.694  1.00  0.00     0.277 HD
ATOM      4  H22 UNL     1      42.163  -6.854  30.241  1.00  0.00     0.277 HD
HETATM    5  C9  UNL     1      40.111  -6.642  30.360  1.00  0.00     0.233 C 
HETATM    6  C10 UNL     1      39.181  -5.487  30.487  1.00  0.00     0.038 C 
HETATM    7  C11 UNL     1      39.470  -4.585  31.685  1.00  0.00    -0.027 C 
HETATM    8  C12 UNL     1      39.073  -5.434  32.897  1.00  0.00     0.016 C 
HETATM    9  C13 UNL     1      40.968  -4.305  31.841  1.00  0.00     0.055 C 
HETATM   10  C14 UNL     1      41.149  -2.850  32.129  1.00  0.00     0.139 C 
HETATM   11  C15 UNL     1      40.612  -2.061  30.990  1.00  0.00     0.120 C 
HETATM   12  C17 UNL     1      39.102  -2.157  31.084  1.00  0.00     0.011 C 
HETATM   13  C18 UNL     1      38.345  -2.316  29.813  1.00  0.00     0.007 C 
HETATM   14  C19 UNL     1      37.512  -3.350  30.575  1.00  0.00     0.011 C 
HETATM   15  C20 UNL     1      38.583  -3.409  31.675  1.00  0.00    -0.032 C 
HETATM   16  C21 UNL     1      37.833  -3.173  32.998  1.00  0.00     0.016 C 
ENDROOT
BRANCH   1  17
HETATM   17  C6  UNL     1      43.083  -4.612  30.428  1.00  0.00     0.013 C 
HETATM   18  C7  UNL     1      43.988  -5.637  31.040  1.00  0.00     0.012 C 
BRANCH  17  19
HETATM   19  C5  UNL     1      43.313  -4.337  28.972  1.00  0.00     0.006 C 
BRANCH  19  20
HETATM   20  C4  UNL     1      42.867  -3.019  28.451  1.00  0.00     0.010 C 
BRANCH  20  21
HETATM   21  C3  UNL     1      43.839  -2.005  28.013  1.00  0.00     0.103 C 
BRANCH  21  22
HETATM   22  C2  UNL     1      44.344  -2.192  26.618  1.00  0.00     0.217 C 
HETATM   23  N1  UNL     1      43.676  -3.063  25.731  1.00  0.00    -0.365 N 
HETATM   24  C1  UNL     1      44.090  -3.303  24.373  1.00  0.00     0.149 C 
ATOM     25  H1  UNL     1      42.849  -3.553  26.073  1.00  0.00     0.161 HD
HETATM   26  O1  UNL     1      45.356  -1.584  26.219  1.00  0.00    -0.274 OA
ENDBRANCH  21  22
ENDBRANCH  20  21
ENDBRANCH  19  20
ENDBRANCH  17  19
ENDBRANCH   1  17
BRANCH  10  27
HETATM   27  O2  UNL     1      42.340  -2.458  32.658  1.00  0.00    -0.394 OA
ATOM     28  H2  UNL     1      42.527  -2.711  33.554  1.00  0.00     0.210 HD
ENDBRANCH  10  27
BRANCH  11  29
HETATM   29  C16 UNL     1      41.008  -0.629  30.974  1.00  0.00     0.179 C 
HETATM   30  O3  UNL     1      42.143  -0.203  30.739  1.00  0.00    -0.648 OA
HETATM   31  O4  UNL     1      40.022   0.327  31.249  1.00  0.00    -0.648 OA
ENDBRANCH  11  29
TORSDOF 7
ENDMDL
MODEL 4
REMARK VINA RESULT: -6.363564175      2.620      4.321
REMARK  7 active torsions:
REMARK  status: ('A' for Active; 'I' for Inactive)
REMARK       I    between atoms: N1_2  and  C2_4 
REMARK    1  A    between atoms: C2_4  and  C3_6 
REMARK    2  A    between atoms: C3_6  and  C4_7 
REMARK    3  A    between atoms: C4_7  and  C5_8 
REMARK    4  A    between atoms: C5_8  and  C6_9 
REMARK    5  A    between atoms: C6_9  and  C8_11 
REMARK    6  A    between atoms: C14_20  and  O2_21 
REMARK    7  A    between atoms: C15_23  and  C16_24 
ROOT
HETATM    1  C8  UNL     1      40.920  -0.572  33.061  1.00  0.00     0.197 C 
HETATM    2  N2  UNL     1      41.048   0.238  34.252  1.00  0.00    -0.070 N 
ATOM      3  H21 UNL     1      41.079   1.238  34.049  1.00  0.00     0.277 HD
ATOM      4  H22 UNL     1      41.967   0.160  34.688  1.00  0.00     0.277 HD
HETATM    5  C9  UNL     1      39.971  -0.119  35.146  1.00  0.00     0.233 C 
HETATM    6  C10 UNL     1      38.812  -0.745  34.452  1.00  0.00     0.038 C 
HETATM    7  C11 UNL     1      38.544  -0.182  33.058  1.00  0.00    -0.027 C 
HETATM    8  C12 UNL     1      38.017   1.231  33.321  1.00  0.00     0.016 C 
HETATM    9  C13 UNL     1      39.836  -0.007  32.255  1.00  0.00     0.055 C 
HETATM   10  C14 UNL     1      39.604  -0.513  30.868  1.00  0.00     0.139 C 
HETATM   11  C15 UNL     1      39.252  -1.956  30.934  1.00  0.00     0.120 C 
HETATM   12  C17 UNL     1      37.837  -2.021  31.474  1.00  0.00     0.011 C 
HETATM   13  C18 UNL     1      37.526  -3.100  32.451  1.00  0.00     0.007 C 
HETATM   14  C19 UNL     1      36.759  -2.021  33.220  1.00  0.00     0.011 C 
HETATM   15  C20 UNL     1      37.461  -0.930  32.397  1.00  0.00    -0.032 C 
HETATM   16  C21 UNL     1      36.334  -0.043  31.838  1.00  0.00     0.016 C 
ENDROOT
BRANCH   1  17
HETATM   17  C6  UNL     1      42.279  -0.754  32.457  1.00  0.00     0.013 C 
HETATM   18  C7  UNL     1      43.319   0.089  33.129  1.00  0.00     0.012 C 
BRANCH  17  19
HETATM   19  C5  UNL     1      42.609  -2.211  32.339  1.00  0.00     0.006 C 
BRANCH  19  20
HETATM   20  C4  UNL     1      43.067  -2.699  31.012  1.00  0.00     0.010 C 
BRANCH  20  21
HETATM   21  C3  UNL     1      43.481  -1.761  29.957  1.00  0.00     0.103 C 
BRANCH  21  22
HETATM   22  C2  UNL     1      43.849  -2.408  28.661  1.00  0.00     0.217 C 
HETATM   23  N1  UNL     1      43.891  -1.646  27.472  1.00  0.00    -0.365 N 
HETATM   24  C1  UNL     1      44.235  -2.184  26.182  1.00  0.00     0.149 C 
ATOM     25  H1  UNL     1      43.663  -0.654  27.532  1.00  0.00     0.161 HD
HETATM   26  O1  UNL     1      44.125  -3.622  28.608  1.00  0.00    -0.274 OA
ENDBRANCH  21  22
ENDBRANCH  20  21
ENDBRANCH  19  20
ENDBRANCH  17  19
ENDBRANCH   1  17
BRANCH  10  27
HETATM   27  O2  UNL     1      40.479  -0.124  29.902  1.00  0.00    -0.394 OA
ATOM     28  H2  UNL     1      41.015  -0.796  29.498  1.00  0.00     0.210 HD
ENDBRANCH  10  27
BRANCH  11  29
HETATM   29  C16 UNL     1      39.311  -2.677  29.636  1.00  0.00     0.179 C 
HETATM   30  O3  UNL     1      40.340  -2.918  28.998  1.00  0.00    -0.648 OA
HETATM   31  O4  UNL     1      38.106  -3.124  29.079  1.00  0.00    -0.648 OA
ENDBRANCH  11  29
TORSDOF 7
ENDMDL
MODEL 5
REMARK VINA RESULT: -6.177805126      0.919      1.143
REMARK  7 active torsions:
REMARK  status: ('A' for Active; 'I' for Inactive)
REMARK       I    between atoms: N1_2  and  C2_4 
REMARK    1  A    between atoms: C2_4  and  C3_6 
REMARK    2  A    between atoms: C3_6  and  C4_7 
REMARK    3  A    between atoms: C4_7  and  C5_8 
REMARK    4  A    between atoms: C5_8  and  C6_9 
REMARK    5  A    between atoms: C6_9  and  C8_11 
REMARK    6  A    between atoms: C14_20  and  O2_21 
REMARK    7  A    between atoms: C15_23  and  C16_24 
ROOT
HETATM    1  C8  UNL     1      40.610  -4.728  30.566  1.00  0.00     0.197 C 
HETATM    2  N2  UNL     1      39.897  -5.981  30.453  1.00  0.00    -0.070 N 
ATOM      3  H21 UNL     1      40.051  -6.597  31.251  1.00  0.00     0.277 HD
ATOM      4  H22 UNL     1      40.282  -6.593  29.734  1.00  0.00     0.277 HD
HETATM    5  C9  UNL     1      38.501  -5.677  30.241  1.00  0.00     0.233 C 
HETATM    6  C10 UNL     1      38.116  -4.317  30.711  1.00  0.00     0.038 C 
HETATM    7  C11 UNL     1      38.855  -3.862  31.968  1.00  0.00    -0.027 C 
HETATM    8  C12 UNL     1      38.280  -4.745  33.079  1.00  0.00     0.016 C 
HETATM    9  C13 UNL     1      40.350  -4.189  31.902  1.00  0.00     0.055 C 
HETATM   10  C14 UNL     1      41.115  -2.999  32.381  1.00  0.00     0.139 C 
HETATM   11  C15 UNL     1      40.820  -1.844  31.494  1.00  0.00     0.120 C 
HETATM   12  C17 UNL     1      39.411  -1.400  31.834  1.00  0.00     0.011 C 
HETATM   13  C18 UNL     1      38.529  -0.995  30.705  1.00  0.00     0.007 C 
HETATM   14  C19 UNL     1      37.438  -1.790  31.427  1.00  0.00     0.011 C 
HETATM   15  C20 UNL     1      38.505  -2.470  32.299  1.00  0.00    -0.032 C 
HETATM   16  C21 UNL     1      38.044  -2.266  33.753  1.00  0.00     0.016 C 
ENDROOT
BRANCH   1  17
HETATM   17  C6  UNL     1      42.022  -4.937  30.111  1.00  0.00     0.013 C 
HETATM   18  C7  UNL     1      42.375  -6.389  29.998  1.00  0.00     0.012 C 
BRANCH  17  19
HETATM   19  C5  UNL     1      42.309  -4.109  28.895  1.00  0.00     0.006 C 
BRANCH  19  20
HETATM   20  C4  UNL     1      43.703  -3.625  28.716  1.00  0.00     0.010 C 
BRANCH  20  21
HETATM   21  C3  UNL     1      43.981  -2.312  28.113  1.00  0.00     0.103 C 
BRANCH  21  22
HETATM   22  C2  UNL     1      44.378  -2.363  26.672  1.00  0.00     0.217 C 
HETATM   23  N1  UNL     1      43.766  -3.288  25.798  1.00  0.00    -0.365 N 
HETATM   24  C1  UNL     1      44.086  -3.406  24.399  1.00  0.00     0.149 C 
ATOM     25  H1  UNL     1      43.055  -3.909  26.181  1.00  0.00     0.161 HD
HETATM   26  O1  UNL     1      45.251  -1.594  26.223  1.00  0.00    -0.274 OA
ENDBRANCH  21  22
ENDBRANCH  20  21
ENDBRANCH  19  20
ENDBRANCH  17  19
ENDBRANCH   1  17
BRANCH  10  27
HETATM   27  O2  UNL     1      42.411  -3.192  32.750  1.00  0.00    -0.394 OA
ATOM     28  H2  UNL     1      43.082  -3.028  32.098  1.00  0.00     0.210 HD
ENDBRANCH  10  27
BRANCH  11  29
HETATM   29  C16 UNL     1      41.742  -0.688  31.637  1.00  0.00     0.179 C 
HETATM   30  O3  UNL     1      42.022  -0.123  32.698  1.00  0.00    -0.648 OA
HETATM   31  O4  UNL     1      42.351  -0.188  30.479  1.00  0.00    -0.648 OA
ENDBRANCH  11  29
TORSDOF 7
ENDMDL
