MODEL 1
REMARK VINA RESULT: -6.701845797      0.000      0.000
REMARK  6 active torsions:
REMARK  status: ('A' for Active; 'I' for Inactive)
REMARK       I    between atoms: N1_2  and  C2_4 
REMARK       I    between atoms: C2_4  and  N3_8 
REMARK    1  A    between atoms: N3_8  and  C3_10 
REMARK    2  A    between atoms: C3_10  and  C17_29 
REMARK    3  A    between atoms: C6_13  and  C7_14 
REMARK    4  A    between atoms: C7_14  and  C8_15 
REMARK    5  A    between atoms: C8_15  and  N4_16 
REMARK    6  A    between atoms: N5_20  and  C11_23 
ROOT
HETATM    1  C3  UNL     1      41.756  -2.437  30.560  1.00  0.00     0.053 C 
HETATM    2  C4  UNL     1      41.909  -1.549  29.381  1.00  0.00     0.038 C 
HETATM    3  C5  UNL     1      43.210  -1.557  28.681  1.00  0.00     0.059 C 
HETATM    4  C6  UNL     1      43.675  -2.901  28.056  1.00  0.00     0.009 C 
HETATM    5  N5  UNL     1      42.986  -3.868  28.680  1.00  0.00    -0.357 N 
HETATM    6  C9  UNL     1      43.618  -4.105  29.992  1.00  0.00     0.131 C 
HETATM    7  C10 UNL     1      43.089  -3.114  30.900  1.00  0.00     0.052 C 
ENDROOT
BRANCH   1   8
HETATM    8  N3  UNL     1      41.684  -1.496  31.700  1.00  0.00    -0.217 N 
HETATM    9  C2  UNL     1      42.792  -0.822  32.226  1.00  0.00     0.667 C 
HETATM   10  N1  UNL     1      42.716  -0.290  33.540  1.00  0.00    -0.231 N 
HETATM   11  N2  UNL     1      43.877  -0.664  31.569  1.00  0.00    -0.235 N 
HETATM   12  C1  UNL     1      42.912  -1.189  34.650  1.00  0.00     0.165 C 
ATOM     13  H1  UNL     1      42.527   0.700  33.695  1.00  0.00     0.177 HD
ATOM     14  H22 UNL     1      44.685  -0.173  31.952  1.00  0.00     0.174 HD
ATOM     15  H21 UNL     1      43.932  -1.046  30.624  1.00  0.00     0.174 HD
ATOM     16  H3  UNL     1      40.773  -1.328  32.127  1.00  0.00     0.178 HD
ENDBRANCH   1   8
BRANCH   1  17
HETATM   17  C17 UNL     1      40.614  -3.384  30.590  1.00  0.00     0.019 C 
HETATM   18  C16 UNL     1      39.568  -3.046  29.511  1.00  0.00     0.018 C 
HETATM   19  C15 UNL     1      38.599  -2.057  29.943  1.00  0.00     0.032 C 
HETATM   20  C11 UNL     1      38.964  -1.003  31.002  1.00  0.00    -0.006 C 
HETATM   21  C14 UNL     1      37.606  -2.891  30.802  1.00  0.00     0.015 C 
HETATM   22  C12 UNL     1      38.606  -1.568  32.321  1.00  0.00     0.058 C 
HETATM   23  C13 UNL     1      38.502  -3.054  31.995  1.00  0.00    -0.004 C 
HETATM   24  C18 UNL     1      39.830  -3.712  31.776  1.00  0.00    -0.008 C 
HETATM   25  C19 UNL     1      39.449  -5.219  31.780  1.00  0.00     0.011 C 
ENDBRANCH   1  17
BRANCH   4  26
HETATM   26  C7  UNL     1      44.059  -2.691  26.668  1.00  0.00     0.025 C 
BRANCH  26  27
HETATM   27  C8  UNL     1      44.082  -3.763  25.654  1.00  0.00     0.259 C 
BRANCH  27  28
HETATM   28  N4  UNL     1      44.570  -3.488  24.345  1.00  0.00    -0.076 N 
ATOM     29  H43 UNL     1      44.205  -4.194  23.707  1.00  0.00     0.274 HD
ATOM     30  H42 UNL     1      44.111  -2.645  23.999  1.00  0.00     0.274 HD
ATOM     31  H41 UNL     1      45.574  -3.398  24.189  1.00  0.00     0.274 HD
ENDBRANCH  27  28
ENDBRANCH  26  27
ENDBRANCH   4  26
TORSDOF 6
ENDMDL
MODEL 2
REMARK VINA RESULT: -6.359881013      1.460      1.604
REMARK  6 active torsions:
REMARK  status: ('A' for Active; 'I' for Inactive)
REMARK       I    between atoms: N1_2  and  C2_4 
REMARK       I    between atoms: C2_4  and  N3_8 
REMARK    1  A    between atoms: N3_8  and  C3_10 
REMARK    2  A    between atoms: C3_10  and  C17_29 
REMARK    3  A    between atoms: C6_13  and  C7_14 
REMARK    4  A    between atoms: C7_14  and  C8_15 
REMARK    5  A    between atoms: C8_15  and  N4_16 
REMARK    6  A    between atoms: N5_20  and  C11_23 
ROOT
HETATM    1  C3  UNL     1      42.068  -3.000  30.755  1.00  0.00     0.053 C 
HETATM    2  C4  UNL     1      42.577  -1.841  29.981  1.00  0.00     0.038 C 
HETATM    3  C5  UNL     1      43.781  -2.047  29.150  1.00  0.00     0.059 C 
HETATM    4  C6  UNL     1      43.688  -3.099  28.011  1.00  0.00     0.009 C 
HETATM    5  N5  UNL     1      42.664  -3.906  28.322  1.00  0.00    -0.357 N 
HETATM    6  C9  UNL     1      43.130  -4.860  29.347  1.00  0.00     0.131 C 
HETATM    7  C10 UNL     1      43.021  -4.194  30.625  1.00  0.00     0.052 C 
ENDROOT
BRANCH   1   8
HETATM    8  N3  UNL     1      42.354  -2.636  32.160  1.00  0.00    -0.217 N 
HETATM    9  C2  UNL     1      42.488  -3.567  33.196  1.00  0.00     0.667 C 
HETATM   10  N1  UNL     1      42.339  -3.131  34.539  1.00  0.00    -0.231 N 
HETATM   11  N2  UNL     1      42.739  -4.803  32.983  1.00  0.00    -0.235 N 
HETATM   12  C1  UNL     1      41.003  -2.960  35.055  1.00  0.00     0.165 C 
ATOM     13  H1  UNL     1      43.154  -2.945  35.123  1.00  0.00     0.177 HD
ATOM     14  H22 UNL     1      42.837  -5.482  33.738  1.00  0.00     0.174 HD
ATOM     15  H21 UNL     1      42.846  -5.115  32.017  1.00  0.00     0.174 HD
ATOM     16  H3  UNL     1      42.461  -1.647  32.388  1.00  0.00     0.178 HD
ENDBRANCH   1   8
BRANCH   1  17
HETATM   17  C17 UNL     1      40.645  -3.389  30.594  1.00  0.00     0.019 C 
HETATM   18  C16 UNL     1      39.942  -2.538  29.519  1.00  0.00     0.018 C 
HETATM   19  C15 UNL     1      39.416  -1.288  30.030  1.00  0.00     0.032 C 
HETATM   20  C11 UNL     1      40.061  -0.595  31.243  1.00  0.00    -0.006 C 
HETATM   21  C14 UNL     1      38.087  -1.722  30.714  1.00  0.00     0.015 C 
HETATM   22  C12 UNL     1      39.370  -1.096  32.450  1.00  0.00     0.058 C 
HETATM   23  C13 UNL     1      38.711  -2.363  31.918  1.00  0.00    -0.004 C 
HETATM   24  C18 UNL     1      39.676  -3.485  31.681  1.00  0.00    -0.008 C 
HETATM   25  C19 UNL     1      38.721  -4.691  31.458  1.00  0.00     0.011 C 
ENDBRANCH   1  17
BRANCH   4  26
HETATM   26  C7  UNL     1      44.147  -2.511  26.761  1.00  0.00     0.025 C 
BRANCH  26  27
HETATM   27  C8  UNL     1      44.115  -3.217  25.465  1.00  0.00     0.259 C 
BRANCH  27  28
HETATM   28  N4  UNL     1      44.476  -4.593  25.401  1.00  0.00    -0.076 N 
ATOM     29  H43 UNL     1      45.480  -4.672  25.562  1.00  0.00     0.274 HD
ATOM     30  H42 UNL     1      44.100  -5.065  26.223  1.00  0.00     0.274 HD
ATOM     31  H41 UNL     1      44.237  -5.141  24.574  1.00  0.00     0.274 HD
ENDBRANCH  27  28
ENDBRANCH  26  27
ENDBRANCH   4  26
TORSDOF 6
ENDMDL
MODEL 3
REMARK VINA RESULT: -5.889629229      1.330      1.667
REMARK  6 active torsions:
REMARK  status: ('A' for Active; 'I' for Inactive)
REMARK       I    between atoms: N1_2  and  C2_4 
REMARK       I    between atoms: C2_4  and  N3_8 
REMARK    1  A    between atoms: N3_8  and  C3_10 
REMARK    2  A    between atoms: C3_10  and  C17_29 
REMARK    3  A    between atoms: C6_13  and  C7_14 
REMARK    4  A    between atoms: C7_14  and  C8_15 
REMARK    5  A    between atoms: C8_15  and  N4_16 
REMARK    6  A    between atoms: N5_20  and  C11_23 
ROOT
HETATM    1  C3  UNL     1      41.776  -1.794  31.416  1.00  0.00     0.053 C 
HETATM    2  C4  UNL     1      42.045  -1.223  30.073  1.00  0.00     0.038 C 
HETATM    3  C5  UNL     1      43.222  -1.728  29.337  1.00  0.00     0.059 C 
HETATM    4  C6  UNL     1      43.247  -3.240  28.985  1.00  0.00     0.009 C 
HETATM    5  N5  UNL     1      42.389  -3.839  29.823  1.00  0.00    -0.357 N 
HETATM    6  C9  UNL     1      43.059  -3.995  31.128  1.00  0.00     0.131 C 
HETATM    7  C10 UNL     1      42.907  -2.743  31.833  1.00  0.00     0.052 C 
ENDROOT
BRANCH   1   8
HETATM    8  N3  UNL     1      42.070  -0.675  32.338  1.00  0.00    -0.217 N 
HETATM    9  C2  UNL     1      42.338  -0.837  33.702  1.00  0.00     0.667 C 
HETATM   10  N1  UNL     1      42.189   0.276  34.571  1.00  0.00    -0.231 N 
HETATM   11  N2  UNL     1      42.711  -1.953  34.203  1.00  0.00    -0.235 N 
HETATM   12  C1  UNL     1      40.861   0.620  35.015  1.00  0.00     0.165 C 
ATOM     13  H1  UNL     1      42.999   0.817  34.873  1.00  0.00     0.177 HD
ATOM     14  H22 UNL     1      42.906  -2.071  35.197  1.00  0.00     0.174 HD
ATOM     15  H21 UNL     1      42.818  -2.752  33.578  1.00  0.00     0.174 HD
ATOM     16  H3  UNL     1      42.079   0.272  31.957  1.00  0.00     0.178 HD
ENDBRANCH   1   8
BRANCH   1  17
HETATM   17  C17 UNL     1      40.431  -2.358  31.689  1.00  0.00     0.019 C 
HETATM   18  C16 UNL     1      39.561  -2.391  30.419  1.00  0.00     0.018 C 
HETATM   19  C15 UNL     1      38.855  -1.149  30.175  1.00  0.00     0.032 C 
HETATM   20  C11 UNL     1      39.422   0.193  30.671  1.00  0.00    -0.006 C 
HETATM   21  C14 UNL     1      37.641  -1.241  31.143  1.00  0.00     0.015 C 
HETATM   22  C12 UNL     1      38.866   0.428  32.020  1.00  0.00     0.058 C 
HETATM   23  C13 UNL     1      38.405  -0.973  32.406  1.00  0.00    -0.004 C 
HETATM   24  C18 UNL     1      39.531  -1.901  32.743  1.00  0.00    -0.008 C 
HETATM   25  C19 UNL     1      38.780  -3.104  33.379  1.00  0.00     0.011 C 
ENDBRANCH   1  17
BRANCH   4  26
HETATM   26  C7  UNL     1      43.537  -3.411  27.568  1.00  0.00     0.025 C 
BRANCH  26  27
HETATM   27  C8  UNL     1      44.123  -2.354  26.720  1.00  0.00     0.259 C 
BRANCH  27  28
HETATM   28  N4  UNL     1      44.711  -2.697  25.470  1.00  0.00    -0.076 N 
ATOM     29  H43 UNL     1      45.676  -2.983  25.633  1.00  0.00     0.274 HD
ATOM     30  H42 UNL     1      44.294  -3.569  25.144  1.00  0.00     0.274 HD
ATOM     31  H41 UNL     1      44.697  -2.024  24.703  1.00  0.00     0.274 HD
ENDBRANCH  27  28
ENDBRANCH  26  27
ENDBRANCH   4  26
TORSDOF 6
ENDMDL
MODEL 4
REMARK VINA RESULT: -5.873188357      2.341      4.411
REMARK  6 active torsions:
REMARK  status: ('A' for Active; 'I' for Inactive)
REMARK       I    between atoms: N1_2  and  C2_4 
REMARK       I    between atoms: C2_4  and  N3_8 
REMARK    1  A    between atoms: N3_8  and  C3_10 
REMARK    2  A    between atoms: C3_10  and  C17_29 
REMARK    3  A    between atoms: C6_13  and  C7_14 
REMARK    4  A    between atoms: C7_14  and  C8_15 
REMARK    5  A    between atoms: C8_15  and  N4_16 
REMARK    6  A    between atoms: N5_20  and  C11_23 
ROOT
HETATM    1  C3  UNL     1      41.829  -3.765  30.023  1.00  0.00     0.053 C 
HETATM    2  C4  UNL     1      42.605  -4.067  28.794  1.00  0.00     0.038 C 
HETATM    3  C5  UNL     1      42.818  -2.967  27.831  1.00  0.00     0.059 C 
HETATM    4  C6  UNL     1      43.601  -1.723  28.334  1.00  0.00     0.009 C 
HETATM    5  N5  UNL     1      43.525  -1.741  29.672  1.00  0.00    -0.357 N 
HETATM    6  C9  UNL     1      42.197  -1.228  30.060  1.00  0.00     0.131 C 
HETATM    7  C10 UNL     1      41.274  -2.337  29.972  1.00  0.00     0.052 C 
ENDROOT
BRANCH   1   8
HETATM    8  N3  UNL     1      40.563  -4.506  29.829  1.00  0.00    -0.217 N 
HETATM    9  C2  UNL     1      39.298  -3.972  30.095  1.00  0.00     0.667 C 
HETATM   10  N1  UNL     1      38.203  -4.855  30.287  1.00  0.00    -0.231 N 
HETATM   11  N2  UNL     1      39.084  -2.714  30.176  1.00  0.00    -0.235 N 
HETATM   12  C1  UNL     1      38.054  -5.485  31.576  1.00  0.00     0.165 C 
ATOM     13  H1  UNL     1      37.540  -5.039  29.534  1.00  0.00     0.177 HD
ATOM     14  H22 UNL     1      38.162  -2.325  30.370  1.00  0.00     0.174 HD
ATOM     15  H21 UNL     1      39.872  -2.080  30.037  1.00  0.00     0.174 HD
ATOM     16  H3  UNL     1      40.616  -5.463  29.479  1.00  0.00     0.178 HD
ENDBRANCH   1   8
BRANCH   1  17
HETATM   17  C17 UNL     1      42.432  -4.094  31.339  1.00  0.00     0.019 C 
HETATM   18  C16 UNL     1      43.751  -4.873  31.180  1.00  0.00     0.018 C 
HETATM   19  C15 UNL     1      43.559  -6.304  31.050  1.00  0.00     0.032 C 
HETATM   20  C11 UNL     1      42.263  -6.876  30.449  1.00  0.00    -0.006 C 
HETATM   21  C14 UNL     1      43.335  -6.763  32.520  1.00  0.00     0.015 C 
HETATM   22  C12 UNL     1      41.325  -7.102  31.570  1.00  0.00     0.058 C 
HETATM   23  C13 UNL     1      41.939  -6.229  32.658  1.00  0.00    -0.004 C 
HETATM   24  C18 UNL     1      41.736  -4.761  32.434  1.00  0.00    -0.008 C 
HETATM   25  C19 UNL     1      42.167  -4.162  33.802  1.00  0.00     0.011 C 
ENDBRANCH   1  17
BRANCH   4  26
HETATM   26  C7  UNL     1      44.676  -1.410  27.403  1.00  0.00     0.025 C 
BRANCH  26  27
HETATM   27  C8  UNL     1      44.723  -1.902  26.012  1.00  0.00     0.259 C 
BRANCH  27  28
HETATM   28  N4  UNL     1      44.115  -1.143  24.972  1.00  0.00    -0.076 N 
ATOM     29  H43 UNL     1      44.729  -0.362  24.740  1.00  0.00     0.274 HD
ATOM     30  H42 UNL     1      44.147  -1.689  24.111  1.00  0.00     0.274 HD
ATOM     31  H41 UNL     1      43.168  -0.785  25.095  1.00  0.00     0.274 HD
ENDBRANCH  27  28
ENDBRANCH  26  27
ENDBRANCH   4  26
TORSDOF 6
ENDMDL
MODEL 5
REMARK VINA RESULT: -5.562405445      2.392      4.821
REMARK  6 active torsions:
REMARK  status: ('A' for Active; 'I' for Inactive)
REMARK       I    between atoms: N1_2  and  C2_4 
REMARK       I    between atoms: C2_4  and  N3_8 
REMARK    1  A    between atoms: N3_8  and  C3_10 
REMARK    2  A    between atoms: C3_10  and  C17_29 
REMARK    3  A    between atoms: C6_13  and  C7_14 
REMARK    4  A    between atoms: C7_14  and  C8_15 
REMARK    5  A    between atoms: C8_15  and  N4_16 
REMARK    6  A    between atoms: N5_20  and  C11_23 
ROOT
HETATM    1  C3  UNL     1      42.358  -3.615  30.180  1.00  0.00     0.053 C 
HETATM    2  C4  UNL     1      41.201  -4.505  29.908  1.00  0.00     0.038 C 
HETATM    3  C5  UNL     1      41.477  -5.941  29.694  1.00  0.00     0.059 C 
HETATM    4  C6  UNL     1      42.137  -6.722  30.863  1.00  0.00     0.009 C 
HETATM    5  N5  UNL     1      42.715  -5.806  31.653  1.00  0.00    -0.357 N 
HETATM    6  C9  UNL     1      43.989  -5.402  31.027  1.00  0.00     0.131 C 
HETATM    7  C10 UNL     1      43.675  -4.389  30.046  1.00  0.00     0.052 C 
ENDROOT
BRANCH   1   8
HETATM    8  N3  UNL     1      42.457  -2.788  28.957  1.00  0.00    -0.217 N 
HETATM    9  C2  UNL     1      43.165  -3.170  27.813  1.00  0.00     0.667 C 
HETATM   10  N1  UNL     1      43.558  -2.174  26.880  1.00  0.00    -0.231 N 
HETATM   11  N2  UNL     1      43.478  -4.386  27.570  1.00  0.00    -0.235 N 
HETATM   12  C1  UNL     1      44.732  -1.390  27.175  1.00  0.00     0.165 C 
ATOM     13  H1  UNL     1      43.024  -2.017  26.026  1.00  0.00     0.177 HD
ATOM     14  H22 UNL     1      43.994  -4.664  26.735  1.00  0.00     0.174 HD
ATOM     15  H21 UNL     1      43.195  -5.101  28.240  1.00  0.00     0.174 HD
ATOM     16  H3  UNL     1      41.981  -1.886  28.948  1.00  0.00     0.178 HD
ENDBRANCH   1   8
BRANCH   1  17
HETATM   17  C17 UNL     1      42.323  -2.759  31.391  1.00  0.00     0.019 C 
HETATM   18  C16 UNL     1      41.119  -3.097  32.291  1.00  0.00     0.018 C 
HETATM   19  C15 UNL     1      39.906  -2.398  31.912  1.00  0.00     0.032 C 
HETATM   20  C11 UNL     1      39.666  -1.964  30.455  1.00  0.00    -0.006 C 
HETATM   21  C14 UNL     1      40.110  -0.984  32.527  1.00  0.00     0.015 C 
HETATM   22  C12 UNL     1      40.205  -0.595  30.314  1.00  0.00     0.058 C 
HETATM   23  C13 UNL     1      41.122  -0.504  31.528  1.00  0.00    -0.004 C 
HETATM   24  C18 UNL     1      42.383  -1.301  31.386  1.00  0.00    -0.008 C 
HETATM   25  C19 UNL     1      43.229  -0.785  32.584  1.00  0.00     0.011 C 
ENDBRANCH   1  17
BRANCH   4  26
HETATM   26  C7  UNL     1      41.377  -7.933  31.136  1.00  0.00     0.025 C 
BRANCH  26  27
HETATM   27  C8  UNL     1      41.989  -9.269  31.278  1.00  0.00     0.259 C 
BRANCH  27  28
HETATM   28  N4  UNL     1      43.405  -9.405  31.227  1.00  0.00    -0.076 N 
ATOM     29  H43 UNL     1      43.635 -10.399  31.225  1.00  0.00     0.274 HD
ATOM     30  H42 UNL     1      43.725  -9.121  30.301  1.00  0.00     0.274 HD
ATOM     31  H41 UNL     1      43.984  -8.940  31.927  1.00  0.00     0.274 HD
ENDBRANCH  27  28
ENDBRANCH  26  27
ENDBRANCH   4  26
TORSDOF 6
ENDMDL
