MODEL 1
REMARK VINA RESULT: -6.448747491      0.000      0.000
REMARK  4 active torsions:
REMARK  status: ('A' for Active; 'I' for Inactive)
REMARK       I    between atoms: N1_2  and  C2_4 
REMARK       I    between atoms: C2_4  and  N2_6 
REMARK    1  A    between atoms: N2_6  and  C3_7 
REMARK    2  A    between atoms: C3_7  and  C5_9 
REMARK    3  A    between atoms: C5_9  and  N3_12 
REMARK       I    between atoms: N3_12  and  C8_14 
REMARK       I    between atoms: C8_14  and  N4_16 
REMARK    4  A    between atoms: N4_16  and  C9_18 
ROOT
HETATM    1  N3  UNL     1      41.550  -3.010  30.037  1.00  0.00    -0.332 N 
ATOM      2  H3  UNL     1      41.183  -3.428  29.182  1.00  0.00     0.165 HD
HETATM    3  C8  UNL     1      40.718  -2.187  30.861  1.00  0.00     0.317 C 
HETATM    4  O2  UNL     1      41.181  -1.679  31.931  1.00  0.00    -0.247 OA
HETATM    5  N4  UNL     1      39.373  -1.906  30.532  1.00  0.00    -0.333 N 
ATOM      6  H4  UNL     1      38.971  -2.293  29.678  1.00  0.00     0.165 HD
ENDROOT
BRANCH   1   7
HETATM    7  C5  UNL     1      42.898  -3.235  30.432  1.00  0.00     0.059 C 
HETATM    8  C6  UNL     1      42.949  -3.773  31.831  1.00  0.00     0.041 C 
HETATM    9  C7  UNL     1      43.626  -1.898  30.308  1.00  0.00     0.041 C 
BRANCH   7  10
HETATM   10  C3  UNL     1      43.635  -4.225  29.505  1.00  0.00     0.192 C 
HETATM   11  C4  UNL     1      42.675  -5.441  29.413  1.00  0.00     0.050 C 
BRANCH  10  12
HETATM   12  N2  UNL     1      43.775  -3.726  28.216  1.00  0.00    -0.389 NA
HETATM   13  C2  UNL     1      43.911  -3.246  26.977  1.00  0.00     0.388 C 
HETATM   14  N1  UNL     1      43.890  -4.130  25.798  1.00  0.00    -0.336 N 
HETATM   15  O1  UNL     1      44.068  -2.030  26.640  1.00  0.00    -0.231 OA
HETATM   16  C1  UNL     1      44.041  -3.639  24.468  1.00  0.00     0.152 C 
ATOM     17  H1  UNL     1      43.763  -5.133  25.939  1.00  0.00     0.164 HD
ENDBRANCH  10  12
ENDBRANCH   7  10
ENDBRANCH   1   7
BRANCH   5  18
HETATM   18  C9  UNL     1      38.578  -1.091  31.376  1.00  0.00     0.039 C 
HETATM   19  C10 UNL     1      39.026   0.370  31.413  1.00  0.00     0.036 C 
HETATM   20  C11 UNL     1      38.425   0.787  32.761  1.00  0.00    -0.011 C 
HETATM   21  C12 UNL     1      36.929   0.721  32.584  1.00  0.00     0.009 C 
HETATM   22  C16 UNL     1      38.937  -0.335  33.643  1.00  0.00     0.012 C 
HETATM   23  C13 UNL     1      36.450  -0.648  32.230  1.00  0.00    -0.011 C 
HETATM   24  C14 UNL     1      37.029  -1.730  33.122  1.00  0.00     0.012 C 
HETATM   25  C17 UNL     1      37.117  -1.021  30.898  1.00  0.00     0.036 C 
HETATM   26  C15 UNL     1      38.519  -1.548  32.801  1.00  0.00     0.014 C 
ENDBRANCH   5  18
TORSDOF 4
ENDMDL
MODEL 2
REMARK VINA RESULT: -6.424391199      5.167      7.493
REMARK  4 active torsions:
REMARK  status: ('A' for Active; 'I' for Inactive)
REMARK       I    between atoms: N1_2  and  C2_4 
REMARK       I    between atoms: C2_4  and  N2_6 
REMARK    1  A    between atoms: N2_6  and  C3_7 
REMARK    2  A    between atoms: C3_7  and  C5_9 
REMARK    3  A    between atoms: C5_9  and  N3_12 
REMARK       I    between atoms: N3_12  and  C8_14 
REMARK       I    between atoms: C8_14  and  N4_16 
REMARK    4  A    between atoms: N4_16  and  C9_18 
ROOT
HETATM    1  N3  UNL     1      44.469   0.659  33.769  1.00  0.00    -0.332 N 
ATOM      2  H3  UNL     1      45.296   1.083  33.349  1.00  0.00     0.165 HD
HETATM    3  C8  UNL     1      43.626  -0.209  33.002  1.00  0.00     0.317 C 
HETATM    4  O2  UNL     1      42.604  -0.742  33.538  1.00  0.00    -0.247 OA
HETATM    5  N4  UNL     1      43.885  -0.506  31.646  1.00  0.00    -0.333 N 
ATOM      6  H4  UNL     1      44.695  -0.091  31.184  1.00  0.00     0.165 HD
ENDROOT
BRANCH   1   7
HETATM    7  C5  UNL     1      44.132   0.918  35.127  1.00  0.00     0.059 C 
HETATM    8  C6  UNL     1      43.756  -0.357  35.823  1.00  0.00     0.041 C 
HETATM    9  C7  UNL     1      42.982   1.923  35.115  1.00  0.00     0.041 C 
BRANCH   7  10
HETATM   10  C3  UNL     1      45.285   1.577  35.913  1.00  0.00     0.192 C 
HETATM   11  C4  UNL     1      44.693   1.809  37.329  1.00  0.00     0.050 C 
BRANCH  10  12
HETATM   12  N2  UNL     1      46.367   0.719  36.066  1.00  0.00    -0.389 NA
HETATM   13  C2  UNL     1      47.407  -0.107  36.212  1.00  0.00     0.388 C 
HETATM   14  N1  UNL     1      48.762   0.269  35.770  1.00  0.00    -0.336 N 
HETATM   15  O1  UNL     1      47.394  -1.271  36.722  1.00  0.00    -0.231 OA
HETATM   16  C1  UNL     1      49.883  -0.601  35.910  1.00  0.00     0.152 C 
ATOM     17  H1  UNL     1      48.903   1.187  35.348  1.00  0.00     0.164 HD
ENDBRANCH  10  12
ENDBRANCH   7  10
ENDBRANCH   1   7
BRANCH   5  18
HETATM   18  C9  UNL     1      43.031  -1.374  30.922  1.00  0.00     0.039 C 
HETATM   19  C10 UNL     1      41.603  -0.849  30.781  1.00  0.00     0.036 C 
HETATM   20  C11 UNL     1      40.867  -2.173  30.535  1.00  0.00    -0.011 C 
HETATM   21  C12 UNL     1      41.356  -2.674  29.199  1.00  0.00     0.009 C 
HETATM   22  C16 UNL     1      41.414  -3.002  31.680  1.00  0.00     0.012 C 
HETATM   23  C13 UNL     1      42.829  -2.913  29.177  1.00  0.00    -0.011 C 
HETATM   24  C14 UNL     1      43.320  -3.712  30.369  1.00  0.00     0.012 C 
HETATM   25  C17 UNL     1      43.502  -1.565  29.469  1.00  0.00     0.036 C 
HETATM   26  C15 UNL     1      42.917  -2.752  31.496  1.00  0.00     0.014 C 
ENDBRANCH   5  18
TORSDOF 4
ENDMDL
MODEL 3
REMARK VINA RESULT: -6.346567805      3.634      7.414
REMARK  4 active torsions:
REMARK  status: ('A' for Active; 'I' for Inactive)
REMARK       I    between atoms: N1_2  and  C2_4 
REMARK       I    between atoms: C2_4  and  N2_6 
REMARK    1  A    between atoms: N2_6  and  C3_7 
REMARK    2  A    between atoms: C3_7  and  C5_9 
REMARK    3  A    between atoms: C5_9  and  N3_12 
REMARK       I    between atoms: N3_12  and  C8_14 
REMARK       I    between atoms: C8_14  and  N4_16 
REMARK    4  A    between atoms: N4_16  and  C9_18 
ROOT
HETATM    1  N3  UNL     1      43.461  -4.012  30.912  1.00  0.00    -0.332 N 
ATOM      2  H3  UNL     1      44.301  -3.498  30.646  1.00  0.00     0.165 HD
HETATM    3  C8  UNL     1      43.542  -5.382  31.319  1.00  0.00     0.317 C 
HETATM    4  O2  UNL     1      42.491  -6.010  31.660  1.00  0.00    -0.247 OA
HETATM    5  N4  UNL     1      44.767  -6.084  31.361  1.00  0.00    -0.333 N 
ATOM      6  H4  UNL     1      45.630  -5.612  31.090  1.00  0.00     0.165 HD
ENDROOT
BRANCH   1   7
HETATM    7  C5  UNL     1      42.187  -3.379  30.885  1.00  0.00     0.059 C 
HETATM    8  C6  UNL     1      41.517  -3.497  32.223  1.00  0.00     0.041 C 
HETATM    9  C7  UNL     1      41.378  -4.057  29.780  1.00  0.00     0.041 C 
BRANCH   7  10
HETATM   10  C3  UNL     1      42.270  -1.883  30.515  1.00  0.00     0.192 C 
HETATM   11  C4  UNL     1      43.086  -1.253  31.676  1.00  0.00     0.050 C 
BRANCH  10  12
HETATM   12  N2  UNL     1      43.000  -1.675  29.352  1.00  0.00    -0.389 NA
HETATM   13  C2  UNL     1      43.703  -1.475  28.233  1.00  0.00     0.388 C 
HETATM   14  N1  UNL     1      43.741  -2.478  27.154  1.00  0.00    -0.336 N 
HETATM   15  O1  UNL     1      44.404  -0.456  27.941  1.00  0.00    -0.231 OA
HETATM   16  C1  UNL     1      44.491  -2.287  25.956  1.00  0.00     0.152 C 
ATOM     17  H1  UNL     1      43.211  -3.342  27.268  1.00  0.00     0.164 HD
ENDBRANCH  10  12
ENDBRANCH   7  10
ENDBRANCH   1   7
BRANCH   5  18
HETATM   18  C9  UNL     1      44.809  -7.439  31.775  1.00  0.00     0.039 C 
HETATM   19  C10 UNL     1      44.032  -7.708  33.063  1.00  0.00     0.036 C 
HETATM   20  C11 UNL     1      44.739  -8.989  33.525  1.00  0.00    -0.011 C 
HETATM   21  C12 UNL     1      44.399 -10.041  32.500  1.00  0.00     0.009 C 
HETATM   22  C16 UNL     1      46.187  -8.550  33.421  1.00  0.00     0.012 C 
HETATM   23  C13 UNL     1      44.867  -9.682  31.129  1.00  0.00    -0.011 C 
HETATM   24  C14 UNL     1      46.309  -9.212  31.096  1.00  0.00     0.012 C 
HETATM   25  C17 UNL     1      44.157  -8.376  30.744  1.00  0.00     0.036 C 
HETATM   26  C15 UNL     1      46.189  -7.976  31.997  1.00  0.00     0.014 C 
ENDBRANCH   5  18
TORSDOF 4
ENDMDL
MODEL 4
REMARK VINA RESULT: -6.308908899      3.692      4.929
REMARK  4 active torsions:
REMARK  status: ('A' for Active; 'I' for Inactive)
REMARK       I    between atoms: N1_2  and  C2_4 
REMARK       I    between atoms: C2_4  and  N2_6 
REMARK    1  A    between atoms: N2_6  and  C3_7 
REMARK    2  A    between atoms: C3_7  and  C5_9 
REMARK    3  A    between atoms: C5_9  and  N3_12 
REMARK       I    between atoms: N3_12  and  C8_14 
REMARK       I    between atoms: C8_14  and  N4_16 
REMARK    4  A    between atoms: N4_16  and  C9_18 
ROOT
HETATM    1  N3  UNL     1      42.244  -2.294  31.878  1.00  0.00    -0.332 N 
ATOM      2  H3  UNL     1      41.811  -3.085  32.355  1.00  0.00     0.165 HD
HETATM    3  C8  UNL     1      42.809  -1.212  32.627  1.00  0.00     0.317 C 
HETATM    4  O2  UNL     1      43.358  -0.237  32.024  1.00  0.00    -0.247 OA
HETATM    5  N4  UNL     1      42.783  -1.179  34.039  1.00  0.00    -0.333 N 
ATOM      6  H4  UNL     1      42.347  -1.943  34.554  1.00  0.00     0.165 HD
ENDROOT
BRANCH   1   7
HETATM    7  C5  UNL     1      42.299  -2.247  30.457  1.00  0.00     0.059 C 
HETATM    8  C6  UNL     1      42.013  -0.857  29.971  1.00  0.00     0.041 C 
HETATM    9  C7  UNL     1      41.275  -3.255  29.939  1.00  0.00     0.041 C 
BRANCH   7  10
HETATM   10  C3  UNL     1      43.670  -2.683  29.897  1.00  0.00     0.192 C 
HETATM   11  C4  UNL     1      43.679  -4.224  30.080  1.00  0.00     0.050 C 
BRANCH  10  12
HETATM   12  N2  UNL     1      43.775  -2.440  28.534  1.00  0.00    -0.389 NA
HETATM   13  C2  UNL     1      43.877  -2.205  27.223  1.00  0.00     0.388 C 
HETATM   14  N1  UNL     1      43.991  -3.305  26.247  1.00  0.00    -0.336 N 
HETATM   15  O1  UNL     1      43.892  -1.073  26.646  1.00  0.00    -0.231 OA
HETATM   16  C1  UNL     1      44.109  -3.075  24.844  1.00  0.00     0.152 C 
ATOM     17  H1  UNL     1      43.985  -4.266  26.587  1.00  0.00     0.164 HD
ENDBRANCH  10  12
ENDBRANCH   7  10
ENDBRANCH   1   7
BRANCH   5  18
HETATM   18  C9  UNL     1      43.358  -0.093  34.745  1.00  0.00     0.039 C 
HETATM   19  C10 UNL     1      42.450   1.133  34.826  1.00  0.00     0.036 C 
HETATM   20  C11 UNL     1      43.507   2.219  35.066  1.00  0.00    -0.011 C 
HETATM   21  C12 UNL     1      44.091   1.932  36.426  1.00  0.00     0.009 C 
HETATM   22  C16 UNL     1      44.484   1.894  33.954  1.00  0.00     0.012 C 
HETATM   23  C13 UNL     1      44.734   0.587  36.506  1.00  0.00    -0.011 C 
HETATM   24  C14 UNL     1      45.669   0.305  35.344  1.00  0.00     0.012 C 
HETATM   25  C17 UNL     1      43.637  -0.447  36.216  1.00  0.00     0.036 C 
HETATM   26  C15 UNL     1      44.663   0.387  34.188  1.00  0.00     0.014 C 
ENDBRANCH   5  18
TORSDOF 4
ENDMDL
MODEL 5
REMARK VINA RESULT: -6.308015050      4.471      5.629
REMARK  4 active torsions:
REMARK  status: ('A' for Active; 'I' for Inactive)
REMARK       I    between atoms: N1_2  and  C2_4 
REMARK       I    between atoms: C2_4  and  N2_6 
REMARK    1  A    between atoms: N2_6  and  C3_7 
REMARK    2  A    between atoms: C3_7  and  C5_9 
REMARK    3  A    between atoms: C5_9  and  N3_12 
REMARK       I    between atoms: N3_12  and  C8_14 
REMARK       I    between atoms: C8_14  and  N4_16 
REMARK    4  A    between atoms: N4_16  and  C9_18 
ROOT
HETATM    1  N3  UNL     1      43.689  -0.507  32.075  1.00  0.00    -0.332 N 
ATOM      2  H3  UNL     1      44.502  -0.232  31.524  1.00  0.00     0.165 HD
HETATM    3  C8  UNL     1      43.484   0.027  33.389  1.00  0.00     0.317 C 
HETATM    4  O2  UNL     1      42.461  -0.313  34.063  1.00  0.00    -0.247 OA
HETATM    5  N4  UNL     1      44.388   0.935  33.982  1.00  0.00    -0.333 N 
ATOM      6  H4  UNL     1      45.222   1.225  33.471  1.00  0.00     0.165 HD
ENDROOT
BRANCH   1   7
HETATM    7  C5  UNL     1      42.738  -1.427  31.553  1.00  0.00     0.059 C 
HETATM    8  C6  UNL     1      41.674  -0.698  30.785  1.00  0.00     0.041 C 
HETATM    9  C7  UNL     1      42.160  -2.192  32.742  1.00  0.00     0.041 C 
BRANCH   7  10
HETATM   10  C3  UNL     1      43.374  -2.478  30.619  1.00  0.00     0.192 C 
HETATM   11  C4  UNL     1      42.228  -3.490  30.352  1.00  0.00     0.050 C 
BRANCH  10  12
HETATM   12  N2  UNL     1      43.726  -1.936  29.389  1.00  0.00    -0.389 NA
HETATM   13  C2  UNL     1      44.064  -1.415  28.207  1.00  0.00     0.388 C 
HETATM   14  N1  UNL     1      44.001  -2.207  26.965  1.00  0.00    -0.336 N 
HETATM   15  O1  UNL     1      44.468  -0.231  27.979  1.00  0.00    -0.231 OA
HETATM   16  C1  UNL     1      44.366  -1.672  25.695  1.00  0.00     0.152 C 
ATOM     17  H1  UNL     1      43.684  -3.175  27.017  1.00  0.00     0.164 HD
ENDBRANCH  10  12
ENDBRANCH   7  10
ENDBRANCH   1   7
BRANCH   5  18
HETATM   18  C9  UNL     1      44.148   1.446  35.282  1.00  0.00     0.039 C 
HETATM   19  C10 UNL     1      43.647   0.393  36.270  1.00  0.00     0.036 C 
HETATM   20  C11 UNL     1      42.952   1.308  37.287  1.00  0.00    -0.011 C 
HETATM   21  C12 UNL     1      44.048   2.121  37.928  1.00  0.00     0.009 C 
HETATM   22  C16 UNL     1      42.100   2.147  36.356  1.00  0.00     0.012 C 
HETATM   23  C13 UNL     1      44.799   2.954  36.943  1.00  0.00    -0.011 C 
HETATM   24  C14 UNL     1      43.892   3.738  36.013  1.00  0.00     0.012 C 
HETATM   25  C17 UNL     1      45.433   1.986  35.934  1.00  0.00     0.036 C 
HETATM   26  C15 UNL     1      43.162   2.572  35.333  1.00  0.00     0.014 C 
ENDBRANCH   5  18
TORSDOF 4
ENDMDL
