MODEL 1
REMARK VINA RESULT: -7.410166168      0.000      0.000
REMARK  6 active torsions:
REMARK  status: ('A' for Active; 'I' for Inactive)
REMARK    1  A    between atoms: C2_2  and  C3_3 
REMARK    2  A    between atoms: C3_3  and  C4_4 
REMARK       I    between atoms: C4_4  and  N1_6 
REMARK    3  A    between atoms: N1_6  and  C5_8 
REMARK    4  A    between atoms: C5_8  and  N2_10 
REMARK    5  A    between atoms: N2_10  and  N3_12 
REMARK       I    between atoms: N3_12  and  C6_14 
REMARK       I    between atoms: C6_14  and  N4_16 
REMARK    6  A    between atoms: N4_16  and  C7_18 
ROOT
HETATM    1  N3  UNL     1      43.184  -0.575  31.747  1.00  0.00    -0.249 N 
ATOM      2  H3  UNL     1      42.198  -0.699  31.979  1.00  0.00     0.192 HD
HETATM    3  C6  UNL     1      44.068   0.101  32.622  1.00  0.00     0.335 C 
HETATM    4  O2  UNL     1      45.278   0.264  32.351  1.00  0.00    -0.246 OA
HETATM    5  N4  UNL     1      43.554   0.607  33.846  1.00  0.00    -0.337 N 
ATOM      6  H4  UNL     1      42.566   0.471  34.061  1.00  0.00     0.164 HD
ENDROOT
BRANCH   1   7
HETATM    7  N2  UNL     1      43.718  -1.065  30.548  1.00  0.00    -0.272 N 
ATOM      8  H2  UNL     1      44.724  -1.060  30.381  1.00  0.00     0.189 HD
BRANCH   7   9
HETATM    9  C5  UNL     1      42.826  -1.567  29.577  1.00  0.00     0.193 C 
HETATM   10  S1  UNL     1      41.239  -1.604  29.905  1.00  0.00    -0.039 SA
BRANCH   9  11
HETATM   11  N1  UNL     1      43.308  -2.024  28.339  1.00  0.00    -0.302 N 
HETATM   12  C4  UNL     1      44.272  -1.299  27.539  1.00  0.00     0.227 C 
HETATM   13  O1  UNL     1      44.652  -0.226  28.027  1.00  0.00    -0.273 OA
ATOM     14  H1  UNL     1      42.960  -2.916  27.986  1.00  0.00     0.171 HD
BRANCH  12  15
HETATM   15  C3  UNL     1      44.706  -1.861  26.272  1.00  0.00     0.129 C 
BRANCH  15  16
HETATM   16  C2  UNL     1      44.091  -3.105  25.875  1.00  0.00    -0.028 C 
HETATM   17  C1  UNL     1      44.044  -3.714  24.744  1.00  0.00     0.007 C 
ENDBRANCH  15  16
ENDBRANCH  12  15
ENDBRANCH   9  11
ENDBRANCH   7   9
ENDBRANCH   1   7
BRANCH   5  18
HETATM   18  C7  UNL     1      44.390   1.309  34.796  1.00  0.00     0.091 C 
HETATM   19  C8  UNL     1      44.737   0.381  35.901  1.00  0.00     0.030 C 
HETATM   20  C9  UNL     1      44.792   1.138  37.212  1.00  0.00    -0.012 C 
HETATM   21  C10 UNL     1      43.439   1.252  37.850  1.00  0.00     0.009 C 
HETATM   22  C14 UNL     1      45.481   2.434  36.957  1.00  0.00     0.010 C 
HETATM   23  C11 UNL     1      42.622   2.402  37.323  1.00  0.00    -0.013 C 
HETATM   24  C12 UNL     1      43.449   3.672  37.341  1.00  0.00     0.010 C 
HETATM   25  C16 UNL     1      42.329   2.272  35.842  1.00  0.00     0.011 C 
HETATM   26  C13 UNL     1      44.458   3.344  36.258  1.00  0.00    -0.008 C 
HETATM   27  C15 UNL     1      43.671   2.549  35.235  1.00  0.00     0.013 C 
ENDBRANCH   5  18
TORSDOF 6
ENDMDL
MODEL 2
REMARK VINA RESULT: -7.284003989      1.187      2.133
REMARK  6 active torsions:
REMARK  status: ('A' for Active; 'I' for Inactive)
REMARK    1  A    between atoms: C2_2  and  C3_3 
REMARK    2  A    between atoms: C3_3  and  C4_4 
REMARK       I    between atoms: C4_4  and  N1_6 
REMARK    3  A    between atoms: N1_6  and  C5_8 
REMARK    4  A    between atoms: C5_8  and  N2_10 
REMARK    5  A    between atoms: N2_10  and  N3_12 
REMARK       I    between atoms: N3_12  and  C6_14 
REMARK       I    between atoms: C6_14  and  N4_16 
REMARK    6  A    between atoms: N4_16  and  C7_18 
ROOT
HETATM    1  N3  UNL     1      43.789  -0.543  31.398  1.00  0.00    -0.249 N 
ATOM      2  H3  UNL     1      44.801  -0.536  31.266  1.00  0.00     0.192 HD
HETATM    3  C6  UNL     1      43.205  -0.170  32.632  1.00  0.00     0.335 C 
HETATM    4  O2  UNL     1      41.967  -0.174  32.811  1.00  0.00    -0.246 OA
HETATM    5  N4  UNL     1      44.061   0.223  33.695  1.00  0.00    -0.337 N 
ATOM      6  H4  UNL     1      45.070   0.225  33.544  1.00  0.00     0.164 HD
ENDROOT
BRANCH   1   7
HETATM    7  N2  UNL     1      42.922  -0.924  30.366  1.00  0.00    -0.272 N 
ATOM      8  H2  UNL     1      42.164  -0.311  30.066  1.00  0.00     0.189 HD
BRANCH   7   9
HETATM    9  C5  UNL     1      43.127  -2.177  29.751  1.00  0.00     0.193 C 
HETATM   10  S1  UNL     1      43.095  -3.518  30.660  1.00  0.00    -0.039 SA
BRANCH   9  11
HETATM   11  N1  UNL     1      43.349  -2.260  28.366  1.00  0.00    -0.302 N 
HETATM   12  C4  UNL     1      44.256  -1.389  27.648  1.00  0.00     0.227 C 
HETATM   13  O1  UNL     1      44.835  -0.548  28.350  1.00  0.00    -0.273 OA
ATOM     14  H1  UNL     1      42.845  -2.972  27.839  1.00  0.00     0.171 HD
BRANCH  12  15
HETATM   15  C3  UNL     1      44.414  -1.559  26.214  1.00  0.00     0.129 C 
BRANCH  15  16
HETATM   16  C2  UNL     1      44.156  -2.879  25.690  1.00  0.00    -0.028 C 
HETATM   17  C1  UNL     1      44.139  -3.334  24.488  1.00  0.00     0.007 C 
ENDBRANCH  15  16
ENDBRANCH  12  15
ENDBRANCH   9  11
ENDBRANCH   7   9
ENDBRANCH   1   7
BRANCH   5  18
HETATM   18  C7  UNL     1      43.544   0.620  34.988  1.00  0.00     0.091 C 
HETATM   19  C8  UNL     1      43.467   2.102  35.034  1.00  0.00     0.030 C 
HETATM   20  C9  UNL     1      43.801   2.592  36.428  1.00  0.00    -0.012 C 
HETATM   21  C10 UNL     1      45.279   2.752  36.625  1.00  0.00     0.009 C 
HETATM   22  C14 UNL     1      43.128   1.686  37.400  1.00  0.00     0.010 C 
HETATM   23  C11 UNL     1      45.975   1.471  37.006  1.00  0.00    -0.013 C 
HETATM   24  C12 UNL     1      45.242   0.808  38.155  1.00  0.00     0.010 C 
HETATM   25  C16 UNL     1      45.852   0.407  35.934  1.00  0.00     0.011 C 
HETATM   26  C13 UNL     1      43.966   0.397  37.449  1.00  0.00    -0.008 C 
HETATM   27  C15 UNL     1      44.410   0.015  36.051  1.00  0.00     0.013 C 
ENDBRANCH   5  18
TORSDOF 6
ENDMDL
MODEL 3
REMARK VINA RESULT: -6.917666172      1.257      2.037
REMARK  6 active torsions:
REMARK  status: ('A' for Active; 'I' for Inactive)
REMARK    1  A    between atoms: C2_2  and  C3_3 
REMARK    2  A    between atoms: C3_3  and  C4_4 
REMARK       I    between atoms: C4_4  and  N1_6 
REMARK    3  A    between atoms: N1_6  and  C5_8 
REMARK    4  A    between atoms: C5_8  and  N2_10 
REMARK    5  A    between atoms: N2_10  and  N3_12 
REMARK       I    between atoms: N3_12  and  C6_14 
REMARK       I    between atoms: C6_14  and  N4_16 
REMARK    6  A    between atoms: N4_16  and  C7_18 
ROOT
HETATM    1  N3  UNL     1      43.843  -0.108  32.109  1.00  0.00    -0.249 N 
ATOM      2  H3  UNL     1      44.388   0.676  31.748  1.00  0.00     0.192 HD
HETATM    3  C6  UNL     1      43.394  -0.137  33.451  1.00  0.00     0.335 C 
HETATM    4  O2  UNL     1      42.727  -1.090  33.909  1.00  0.00    -0.246 OA
HETATM    5  N4  UNL     1      43.715   0.959  34.295  1.00  0.00    -0.337 N 
ATOM      6  H4  UNL     1      44.259   1.734  33.916  1.00  0.00     0.164 HD
ENDROOT
BRANCH   1   7
HETATM    7  N2  UNL     1      43.511  -1.200  31.296  1.00  0.00    -0.272 N 
ATOM      8  H2  UNL     1      43.943  -2.112  31.442  1.00  0.00     0.189 HD
BRANCH   7   9
HETATM    9  C5  UNL     1      42.562  -1.004  30.272  1.00  0.00     0.193 C 
HETATM   10  S1  UNL     1      40.986  -0.960  30.650  1.00  0.00    -0.039 SA
BRANCH   9  11
HETATM   11  N1  UNL     1      42.978  -0.844  28.940  1.00  0.00    -0.302 N 
HETATM   12  C4  UNL     1      43.817  -1.797  28.243  1.00  0.00     0.227 C 
HETATM   13  O1  UNL     1      44.149  -2.785  28.913  1.00  0.00    -0.273 OA
ATOM     14  H1  UNL     1      42.674  -0.010  28.436  1.00  0.00     0.171 HD
BRANCH  12  15
HETATM   15  C3  UNL     1      44.191  -1.535  26.865  1.00  0.00     0.129 C 
BRANCH  15  16
HETATM   16  C2  UNL     1      44.506  -2.686  26.053  1.00  0.00    -0.028 C 
HETATM   17  C1  UNL     1      44.135  -3.028  24.871  1.00  0.00     0.007 C 
ENDBRANCH  15  16
ENDBRANCH  12  15
ENDBRANCH   9  11
ENDBRANCH   7   9
ENDBRANCH   1   7
BRANCH   5  18
HETATM   18  C7  UNL     1      43.293   1.008  35.680  1.00  0.00     0.091 C 
HETATM   19  C8  UNL     1      42.266   2.069  35.826  1.00  0.00     0.030 C 
HETATM   20  C9  UNL     1      42.422   2.756  37.166  1.00  0.00    -0.012 C 
HETATM   21  C10 UNL     1      43.431   3.865  37.113  1.00  0.00     0.009 C 
HETATM   22  C14 UNL     1      42.693   1.704  38.185  1.00  0.00     0.010 C 
HETATM   23  C11 UNL     1      44.851   3.393  37.291  1.00  0.00    -0.013 C 
HETATM   24  C12 UNL     1      44.946   2.496  38.508  1.00  0.00     0.010 C 
HETATM   25  C16 UNL     1      45.283   2.438  36.196  1.00  0.00     0.011 C 
HETATM   26  C13 UNL     1      44.164   1.296  38.012  1.00  0.00    -0.008 C 
HETATM   27  C15 UNL     1      44.507   1.202  36.538  1.00  0.00     0.013 C 
ENDBRANCH   5  18
TORSDOF 6
ENDMDL
MODEL 4
REMARK VINA RESULT: -6.634833878      4.303      5.018
REMARK  6 active torsions:
REMARK  status: ('A' for Active; 'I' for Inactive)
REMARK    1  A    between atoms: C2_2  and  C3_3 
REMARK    2  A    between atoms: C3_3  and  C4_4 
REMARK       I    between atoms: C4_4  and  N1_6 
REMARK    3  A    between atoms: N1_6  and  C5_8 
REMARK    4  A    between atoms: C5_8  and  N2_10 
REMARK    5  A    between atoms: N2_10  and  N3_12 
REMARK       I    between atoms: N3_12  and  C6_14 
REMARK       I    between atoms: C6_14  and  N4_16 
REMARK    6  A    between atoms: N4_16  and  C7_18 
ROOT
HETATM    1  N3  UNL     1      40.945  -0.489  30.241  1.00  0.00    -0.249 N 
ATOM      2  H3  UNL     1      40.191  -0.577  29.558  1.00  0.00     0.192 HD
HETATM    3  C6  UNL     1      40.674  -0.306  31.618  1.00  0.00     0.335 C 
HETATM    4  O2  UNL     1      41.586  -0.195  32.467  1.00  0.00    -0.246 OA
HETATM    5  N4  UNL     1      39.319  -0.250  32.039  1.00  0.00    -0.337 N 
ATOM      6  H4  UNL     1      38.579  -0.341  31.342  1.00  0.00     0.164 HD
ENDROOT
BRANCH   1   7
HETATM    7  N2  UNL     1      42.290  -0.543  29.852  1.00  0.00    -0.272 N 
ATOM      8  H2  UNL     1      42.868   0.297  29.848  1.00  0.00     0.189 HD
BRANCH   7   9
HETATM    9  C5  UNL     1      42.823  -1.791  29.467  1.00  0.00     0.193 C 
HETATM   10  S1  UNL     1      42.997  -2.955  30.582  1.00  0.00    -0.039 SA
BRANCH   9  11
HETATM   11  N1  UNL     1      43.194  -2.023  28.132  1.00  0.00    -0.302 N 
HETATM   12  C4  UNL     1      44.258  -1.306  27.461  1.00  0.00     0.227 C 
HETATM   13  O1  UNL     1      44.833  -0.457  28.157  1.00  0.00    -0.273 OA
ATOM     14  H1  UNL     1      42.685  -2.734  27.607  1.00  0.00     0.171 HD
BRANCH  12  15
HETATM   15  C3  UNL     1      44.561  -1.623  26.077  1.00  0.00     0.129 C 
BRANCH  15  16
HETATM   16  C2  UNL     1      44.128  -2.915  25.602  1.00  0.00    -0.028 C 
HETATM   17  C1  UNL     1      44.113  -3.434  24.426  1.00  0.00     0.007 C 
ENDBRANCH  15  16
ENDBRANCH  12  15
ENDBRANCH   9  11
ENDBRANCH   7   9
ENDBRANCH   1   7
BRANCH   5  18
HETATM   18  C7  UNL     1      38.956  -0.066  33.429  1.00  0.00     0.091 C 
HETATM   19  C8  UNL     1      37.943  -1.087  33.795  1.00  0.00     0.030 C 
HETATM   20  C9  UNL     1      36.944  -0.497  34.768  1.00  0.00    -0.012 C 
HETATM   21  C10 UNL     1      35.834   0.224  34.062  1.00  0.00     0.009 C 
HETATM   22  C14 UNL     1      37.703   0.323  35.753  1.00  0.00     0.010 C 
HETATM   23  C11 UNL     1      36.179   1.643  33.694  1.00  0.00    -0.013 C 
HETATM   24  C12 UNL     1      36.748   2.364  34.900  1.00  0.00     0.010 C 
HETATM   25  C16 UNL     1      37.348   1.723  32.734  1.00  0.00     0.011 C 
HETATM   26  C13 UNL     1      38.069   1.635  35.042  1.00  0.00    -0.008 C 
HETATM   27  C15 UNL     1      38.500   1.349  33.617  1.00  0.00     0.013 C 
ENDBRANCH   5  18
TORSDOF 6
ENDMDL
MODEL 5
REMARK VINA RESULT: -6.615509735      3.036      8.214
REMARK  6 active torsions:
REMARK  status: ('A' for Active; 'I' for Inactive)
REMARK    1  A    between atoms: C2_2  and  C3_3 
REMARK    2  A    between atoms: C3_3  and  C4_4 
REMARK       I    between atoms: C4_4  and  N1_6 
REMARK    3  A    between atoms: N1_6  and  C5_8 
REMARK    4  A    between atoms: C5_8  and  N2_10 
REMARK    5  A    between atoms: N2_10  and  N3_12 
REMARK       I    between atoms: N3_12  and  C6_14 
REMARK       I    between atoms: C6_14  and  N4_16 
REMARK    6  A    between atoms: N4_16  and  C7_18 
ROOT
HETATM    1  N3  UNL     1      43.650   0.969  33.889  1.00  0.00    -0.249 N 
ATOM      2  H3  UNL     1      42.742   0.897  34.347  1.00  0.00     0.192 HD
HETATM    3  C6  UNL     1      44.002   0.119  32.813  1.00  0.00     0.335 C 
HETATM    4  O2  UNL     1      45.113   0.194  32.241  1.00  0.00    -0.246 OA
HETATM    5  N4  UNL     1      43.056  -0.846  32.375  1.00  0.00    -0.337 N 
ATOM      6  H4  UNL     1      42.153  -0.902  32.845  1.00  0.00     0.164 HD
ENDROOT
BRANCH   1   7
HETATM    7  N2  UNL     1      44.601   1.913  34.299  1.00  0.00    -0.272 N 
ATOM      8  H2  UNL     1      45.189   2.394  33.618  1.00  0.00     0.189 HD
BRANCH   7   9
HETATM    9  C5  UNL     1      44.722   2.182  35.678  1.00  0.00     0.193 C 
HETATM   10  S1  UNL     1      43.491   2.893  36.457  1.00  0.00    -0.039 SA
BRANCH   9  11
HETATM   11  N1  UNL     1      45.894   1.831  36.369  1.00  0.00    -0.302 N 
HETATM   12  C4  UNL     1      46.344   0.466  36.539  1.00  0.00     0.227 C 
HETATM   13  O1  UNL     1      45.613  -0.391  36.023  1.00  0.00    -0.273 OA
ATOM     14  H1  UNL     1      46.457   2.579  36.773  1.00  0.00     0.171 HD
BRANCH  12  15
HETATM   15  C3  UNL     1      47.572   0.212  37.272  1.00  0.00     0.129 C 
BRANCH  15  16
HETATM   16  C2  UNL     1      48.739  -0.103  36.484  1.00  0.00    -0.028 C 
HETATM   17  C1  UNL     1      48.996  -1.076  35.686  1.00  0.00     0.007 C 
ENDBRANCH  15  16
ENDBRANCH  12  15
ENDBRANCH   9  11
ENDBRANCH   7   9
ENDBRANCH   1   7
BRANCH   5  18
HETATM   18  C7  UNL     1      43.337  -1.752  31.281  1.00  0.00     0.091 C 
HETATM   19  C8  UNL     1      42.696  -1.225  30.051  1.00  0.00     0.030 C 
HETATM   20  C9  UNL     1      42.186  -2.373  29.204  1.00  0.00    -0.012 C 
HETATM   21  C10 UNL     1      40.815  -2.812  29.623  1.00  0.00     0.009 C 
HETATM   22  C14 UNL     1      43.224  -3.441  29.218  1.00  0.00     0.010 C 
HETATM   23  C11 UNL     1      40.823  -3.784  30.775  1.00  0.00    -0.013 C 
HETATM   24  C12 UNL     1      41.799  -4.908  30.493  1.00  0.00     0.010 C 
HETATM   25  C16 UNL     1      41.426  -3.187  32.030  1.00  0.00     0.011 C 
HETATM   26  C13 UNL     1      43.107  -4.147  30.578  1.00  0.00    -0.008 C 
HETATM   27  C15 UNL     1      42.881  -3.125  31.675  1.00  0.00     0.013 C 
ENDBRANCH   5  18
TORSDOF 6
ENDMDL
