MODEL 1
REMARK VINA RESULT: -5.582444092      0.000      0.000
REMARK  6 active torsions:
REMARK  status: ('A' for Active; 'I' for Inactive)
REMARK       I    between atoms: C2_4  and  N2_5 
REMARK       I    between atoms: C2_4  and  N3_11 
REMARK    1  A    between atoms: N2_5  and  C3_7 
REMARK    2  A    between atoms: C9_14  and  C10_15 
REMARK    3  A    between atoms: C10_15  and  N4_16 
REMARK    4  A    between atoms: N4_16  and  C11_18 
REMARK    5  A    between atoms: C11_18  and  N5_20 
REMARK    6  A    between atoms: N5_20  and  C12_22 
ROOT
HETATM    1  C1  UNL     1      44.522  -0.824  38.368  1.00  0.00     0.165 C 
HETATM    2  N1  UNL     1      44.037  -0.480  37.072  1.00  0.00    -0.231 N 
ATOM      3  H1  UNL     1      43.569  -1.224  36.555  1.00  0.00     0.177 HD
HETATM    4  C2  UNL     1      44.117   0.643  36.483  1.00  0.00     0.672 C 
HETATM    5  N2  UNL     1      44.746   1.729  37.118  1.00  0.00    -0.218 N 
ATOM      6  H2  UNL     1      45.761   1.691  37.213  1.00  0.00     0.178 HD
HETATM    7  N3  UNL     1      43.580   0.798  35.194  1.00  0.00    -0.218 N 
HETATM    8  C7  UNL     1      42.157   0.712  34.941  1.00  0.00     0.141 C 
HETATM    9  C8  UNL     1      41.851  -0.086  33.696  1.00  0.00     0.027 C 
HETATM   10  C9  UNL     1      43.134  -0.733  33.241  1.00  0.00     0.006 C 
HETATM   11  C15 UNL     1      44.084   0.352  32.838  1.00  0.00     0.027 C 
HETATM   12  C16 UNL     1      44.539   1.051  34.110  1.00  0.00     0.141 C 
ENDROOT
BRANCH   5  13
HETATM   13  C3  UNL     1      44.076   2.890  37.646  1.00  0.00     0.036 C 
HETATM   14  C4  UNL     1      42.679   2.640  38.120  1.00  0.00     0.038 C 
HETATM   15  C5  UNL     1      44.038   3.956  36.575  1.00  0.00     0.038 C 
HETATM   16  C6  UNL     1      44.915   3.397  38.825  1.00  0.00     0.038 C 
ENDBRANCH   5  13
BRANCH  10  17
HETATM   17  C10 UNL     1      42.929  -1.780  32.198  1.00  0.00     0.126 C 
BRANCH  17  18
HETATM   18  N4  UNL     1      43.488  -1.267  30.943  1.00  0.00    -0.367 N 
ATOM     19  H4  UNL     1      44.456  -0.947  30.887  1.00  0.00     0.161 HD
BRANCH  18  20
HETATM   20  C11 UNL     1      42.639  -1.232  29.816  1.00  0.00     0.167 C 
HETATM   21  S1  UNL     1      41.025  -1.354  30.054  1.00  0.00    -0.041 SA
BRANCH  20  22
HETATM   22  N5  UNL     1      43.159  -1.096  28.517  1.00  0.00    -0.363 N 
ATOM     23  H5  UNL     1      42.892  -0.300  27.938  1.00  0.00     0.162 HD
BRANCH  22  24
HETATM   24  C12 UNL     1      44.071  -2.091  28.008  1.00  0.00     0.075 C 
HETATM   25  C13 UNL     1      44.691  -1.557  26.737  1.00  0.00     0.032 C 
HETATM   26  C14 UNL     1      43.301  -3.368  27.759  1.00  0.00     0.032 C 
ENDBRANCH  22  24
ENDBRANCH  20  22
ENDBRANCH  18  20
ENDBRANCH  17  18
ENDBRANCH  10  17
TORSDOF 6
ENDMDL
MODEL 2
REMARK VINA RESULT: -5.365051548      1.740      2.708
REMARK  6 active torsions:
REMARK  status: ('A' for Active; 'I' for Inactive)
REMARK       I    between atoms: C2_4  and  N2_5 
REMARK       I    between atoms: C2_4  and  N3_11 
REMARK    1  A    between atoms: N2_5  and  C3_7 
REMARK    2  A    between atoms: C9_14  and  C10_15 
REMARK    3  A    between atoms: C10_15  and  N4_16 
REMARK    4  A    between atoms: N4_16  and  C11_18 
REMARK    5  A    between atoms: C11_18  and  N5_20 
REMARK    6  A    between atoms: N5_20  and  C12_22 
ROOT
HETATM    1  C1  UNL     1      40.030   3.144  37.028  1.00  0.00     0.165 C 
HETATM    2  N1  UNL     1      41.190   2.612  36.391  1.00  0.00    -0.231 N 
ATOM      3  H1  UNL     1      41.093   2.378  35.403  1.00  0.00     0.177 HD
HETATM    4  C2  UNL     1      42.331   2.393  36.906  1.00  0.00     0.672 C 
HETATM    5  N2  UNL     1      42.559   2.684  38.263  1.00  0.00    -0.218 N 
ATOM      6  H2  UNL     1      42.116   2.076  38.952  1.00  0.00     0.178 HD
HETATM    7  N3  UNL     1      43.364   1.857  36.119  1.00  0.00    -0.218 N 
HETATM    8  C7  UNL     1      43.948   2.591  35.017  1.00  0.00     0.141 C 
HETATM    9  C8  UNL     1      44.164   1.717  33.805  1.00  0.00     0.027 C 
HETATM   10  C9  UNL     1      43.481   0.398  34.066  1.00  0.00     0.006 C 
HETATM   11  C15 UNL     1      44.180  -0.267  35.210  1.00  0.00     0.027 C 
HETATM   12  C16 UNL     1      43.822   0.506  36.470  1.00  0.00     0.141 C 
ENDROOT
BRANCH   5  13
HETATM   13  C3  UNL     1      43.365   3.769  38.761  1.00  0.00     0.036 C 
HETATM   14  C4  UNL     1      43.365   4.991  37.897  1.00  0.00     0.038 C 
HETATM   15  C5  UNL     1      44.790   3.285  38.910  1.00  0.00     0.038 C 
HETATM   16  C6  UNL     1      42.817   4.141  40.143  1.00  0.00     0.038 C 
ENDBRANCH   5  13
BRANCH  10  17
HETATM   17  C10 UNL     1      43.362  -0.455  32.847  1.00  0.00     0.126 C 
BRANCH  17  18
HETATM   18  N4  UNL     1      41.944  -0.492  32.474  1.00  0.00    -0.367 N 
ATOM     19  H4  UNL     1      41.210  -0.472  33.182  1.00  0.00     0.161 HD
BRANCH  18  20
HETATM   20  C11 UNL     1      41.634  -0.555  31.098  1.00  0.00     0.167 C 
HETATM   21  S1  UNL     1      40.059  -0.591  30.656  1.00  0.00    -0.041 SA
BRANCH  20  22
HETATM   22  N5  UNL     1      42.648  -0.586  30.124  1.00  0.00    -0.363 N 
ATOM     23  H5  UNL     1      43.300   0.193  30.038  1.00  0.00     0.162 HD
BRANCH  22  24
HETATM   24  C12 UNL     1      42.759  -1.726  29.249  1.00  0.00     0.075 C 
HETATM   25  C13 UNL     1      43.231  -2.906  30.068  1.00  0.00     0.032 C 
HETATM   26  C14 UNL     1      43.732  -1.392  28.143  1.00  0.00     0.032 C 
ENDBRANCH  22  24
ENDBRANCH  20  22
ENDBRANCH  18  20
ENDBRANCH  17  18
ENDBRANCH  10  17
TORSDOF 6
ENDMDL
MODEL 3
REMARK VINA RESULT: -5.201758514      2.652      7.937
REMARK  6 active torsions:
REMARK  status: ('A' for Active; 'I' for Inactive)
REMARK       I    between atoms: C2_4  and  N2_5 
REMARK       I    between atoms: C2_4  and  N3_11 
REMARK    1  A    between atoms: N2_5  and  C3_7 
REMARK    2  A    between atoms: C9_14  and  C10_15 
REMARK    3  A    between atoms: C10_15  and  N4_16 
REMARK    4  A    between atoms: N4_16  and  C11_18 
REMARK    5  A    between atoms: C11_18  and  N5_20 
REMARK    6  A    between atoms: N5_20  and  C12_22 
ROOT
HETATM    1  C1  UNL     1      39.638  -0.038  30.485  1.00  0.00     0.165 C 
HETATM    2  N1  UNL     1      40.579  -0.366  31.505  1.00  0.00    -0.231 N 
ATOM      3  H1  UNL     1      40.233  -0.327  32.464  1.00  0.00     0.177 HD
HETATM    4  C2  UNL     1      41.796  -0.701  31.363  1.00  0.00     0.672 C 
HETATM    5  N2  UNL     1      42.360  -0.781  30.078  1.00  0.00    -0.218 N 
ATOM      6  H2  UNL     1      42.531   0.097  29.587  1.00  0.00     0.178 HD
HETATM    7  N3  UNL     1      42.580  -0.988  32.494  1.00  0.00    -0.218 N 
HETATM    8  C7  UNL     1      42.312  -2.131  33.342  1.00  0.00     0.141 C 
HETATM    9  C8  UNL     1      42.424  -1.787  34.808  1.00  0.00     0.027 C 
HETATM   10  C9  UNL     1      42.556  -0.289  34.917  1.00  0.00     0.006 C 
HETATM   11  C15 UNL     1      43.851   0.109  34.278  1.00  0.00     0.027 C 
HETATM   12  C16 UNL     1      43.687  -0.065  32.776  1.00  0.00     0.141 C 
ENDROOT
BRANCH   5  13
HETATM   13  C3  UNL     1      42.717  -1.999  29.397  1.00  0.00     0.036 C 
HETATM   14  C4  UNL     1      43.602  -2.915  30.182  1.00  0.00     0.038 C 
HETATM   15  C5  UNL     1      43.418  -1.644  28.105  1.00  0.00     0.038 C 
HETATM   16  C6  UNL     1      41.411  -2.733  29.071  1.00  0.00     0.038 C 
ENDBRANCH   5  13
BRANCH  10  17
HETATM   17  C10 UNL     1      42.383   0.218  36.309  1.00  0.00     0.126 C 
BRANCH  17  18
HETATM   18  N4  UNL     1      41.274   1.178  36.293  1.00  0.00    -0.367 N 
ATOM     19  H4  UNL     1      40.370   0.934  35.889  1.00  0.00     0.161 HD
BRANCH  18  20
HETATM   20  C11 UNL     1      41.506   2.451  36.857  1.00  0.00     0.167 C 
HETATM   21  S1  UNL     1      40.531   2.954  38.071  1.00  0.00    -0.041 SA
BRANCH  20  22
HETATM   22  N5  UNL     1      42.548   3.274  36.393  1.00  0.00    -0.363 N 
ATOM     23  H5  UNL     1      42.501   3.683  35.460  1.00  0.00     0.162 HD
BRANCH  22  24
HETATM   24  C12 UNL     1      43.681   3.535  37.245  1.00  0.00     0.075 C 
HETATM   25  C13 UNL     1      43.728   5.019  37.528  1.00  0.00     0.032 C 
HETATM   26  C14 UNL     1      44.932   3.062  36.541  1.00  0.00     0.032 C 
ENDBRANCH  22  24
ENDBRANCH  20  22
ENDBRANCH  18  20
ENDBRANCH  17  18
ENDBRANCH  10  17
TORSDOF 6
ENDMDL
MODEL 4
REMARK VINA RESULT: -5.197751626      2.831      7.805
REMARK  6 active torsions:
REMARK  status: ('A' for Active; 'I' for Inactive)
REMARK       I    between atoms: C2_4  and  N2_5 
REMARK       I    between atoms: C2_4  and  N3_11 
REMARK    1  A    between atoms: N2_5  and  C3_7 
REMARK    2  A    between atoms: C9_14  and  C10_15 
REMARK    3  A    between atoms: C10_15  and  N4_16 
REMARK    4  A    between atoms: N4_16  and  C11_18 
REMARK    5  A    between atoms: C11_18  and  N5_20 
REMARK    6  A    between atoms: N5_20  and  C12_22 
ROOT
HETATM    1  C1  UNL     1      39.664  -0.086  30.445  1.00  0.00     0.165 C 
HETATM    2  N1  UNL     1      40.695  -0.309  31.406  1.00  0.00    -0.231 N 
ATOM      3  H1  UNL     1      40.451  -0.124  32.378  1.00  0.00     0.177 HD
HETATM    4  C2  UNL     1      41.882  -0.709  31.195  1.00  0.00     0.672 C 
HETATM    5  N2  UNL     1      42.310  -0.989  29.885  1.00  0.00    -0.218 N 
ATOM      6  H2  UNL     1      42.454  -0.194  29.261  1.00  0.00     0.178 HD
HETATM    7  N3  UNL     1      42.769  -0.870  32.273  1.00  0.00    -0.218 N 
HETATM    8  C7  UNL     1      42.559  -1.874  33.295  1.00  0.00     0.141 C 
HETATM    9  C8  UNL     1      42.828  -1.336  34.681  1.00  0.00     0.027 C 
HETATM   10  C9  UNL     1      43.011   0.156  34.564  1.00  0.00     0.006 C 
HETATM   11  C15 UNL     1      44.244   0.409  33.753  1.00  0.00     0.027 C 
HETATM   12  C16 UNL     1      43.924   0.037  32.314  1.00  0.00     0.141 C 
ENDROOT
BRANCH   5  13
HETATM   13  C3  UNL     1      42.563  -2.302  29.351  1.00  0.00     0.036 C 
HETATM   14  C4  UNL     1      43.455  -3.156  30.196  1.00  0.00     0.038 C 
HETATM   15  C5  UNL     1      43.192  -2.156  27.983  1.00  0.00     0.038 C 
HETATM   16  C6  UNL     1      41.205  -2.998  29.204  1.00  0.00     0.038 C 
ENDBRANCH   5  13
BRANCH  10  17
HETATM   17  C10 UNL     1      42.995   0.856  35.881  1.00  0.00     0.126 C 
BRANCH  17  18
HETATM   18  N4  UNL     1      43.844   2.045  35.758  1.00  0.00    -0.367 N 
ATOM     19  H4  UNL     1      43.721   2.706  34.990  1.00  0.00     0.161 HD
BRANCH  18  20
HETATM   20  C11 UNL     1      44.837   2.242  36.741  1.00  0.00     0.167 C 
HETATM   21  S1  UNL     1      44.416   2.981  38.138  1.00  0.00    -0.041 SA
BRANCH  20  22
HETATM   22  N5  UNL     1      46.161   1.814  36.533  1.00  0.00    -0.363 N 
ATOM     23  H5  UNL     1      46.848   2.449  36.127  1.00  0.00     0.162 HD
BRANCH  22  24
HETATM   24  C12 UNL     1      46.540   0.472  36.899  1.00  0.00     0.075 C 
HETATM   25  C13 UNL     1      47.339   0.538  38.181  1.00  0.00     0.032 C 
HETATM   26  C14 UNL     1      47.349  -0.125  35.770  1.00  0.00     0.032 C 
ENDBRANCH  22  24
ENDBRANCH  20  22
ENDBRANCH  18  20
ENDBRANCH  17  18
ENDBRANCH  10  17
TORSDOF 6
ENDMDL
MODEL 5
REMARK VINA RESULT: -5.187618317      0.708      1.010
REMARK  6 active torsions:
REMARK  status: ('A' for Active; 'I' for Inactive)
REMARK       I    between atoms: C2_4  and  N2_5 
REMARK       I    between atoms: C2_4  and  N3_11 
REMARK    1  A    between atoms: N2_5  and  C3_7 
REMARK    2  A    between atoms: C9_14  and  C10_15 
REMARK    3  A    between atoms: C10_15  and  N4_16 
REMARK    4  A    between atoms: N4_16  and  C11_18 
REMARK    5  A    between atoms: C11_18  and  N5_20 
REMARK    6  A    between atoms: N5_20  and  C12_22 
ROOT
HETATM    1  C1  UNL     1      44.233  -1.471  38.723  1.00  0.00     0.165 C 
HETATM    2  N1  UNL     1      43.838  -0.914  37.470  1.00  0.00    -0.231 N 
ATOM      3  H1  UNL     1      43.234  -1.497  36.891  1.00  0.00     0.177 HD
HETATM    4  C2  UNL     1      44.148   0.220  36.990  1.00  0.00     0.672 C 
HETATM    5  N2  UNL     1      44.977   1.092  37.718  1.00  0.00    -0.218 N 
ATOM      6  H2  UNL     1      45.963   0.842  37.797  1.00  0.00     0.178 HD
HETATM    7  N3  UNL     1      43.663   0.601  35.727  1.00  0.00    -0.218 N 
HETATM    8  C7  UNL     1      42.254   0.828  35.483  1.00  0.00     0.141 C 
HETATM    9  C8  UNL     1      41.804   0.230  34.171  1.00  0.00     0.027 C 
HETATM   10  C9  UNL     1      42.934  -0.616  33.643  1.00  0.00     0.006 C 
HETATM   11  C15 UNL     1      44.086   0.289  33.334  1.00  0.00     0.027 C 
HETATM   12  C16 UNL     1      44.662   0.758  34.661  1.00  0.00     0.141 C 
ENDROOT
BRANCH   5  13
HETATM   13  C3  UNL     1      44.550   2.308  38.360  1.00  0.00     0.036 C 
HETATM   14  C4  UNL     1      43.172   2.255  38.941  1.00  0.00     0.038 C 
HETATM   15  C5  UNL     1      44.604   3.434  37.352  1.00  0.00     0.038 C 
HETATM   16  C6  UNL     1      45.550   2.598  39.485  1.00  0.00     0.038 C 
ENDBRANCH   5  13
BRANCH  10  17
HETATM   17  C10 UNL     1      42.530  -1.497  32.508  1.00  0.00     0.126 C 
BRANCH  17  18
HETATM   18  N4  UNL     1      43.319  -1.096  31.339  1.00  0.00    -0.367 N 
ATOM     19  H4  UNL     1      44.291  -0.800  31.432  1.00  0.00     0.161 HD
BRANCH  18  20
HETATM   20  C11 UNL     1      42.684  -1.137  30.079  1.00  0.00     0.167 C 
HETATM   21  S1  UNL     1      41.092  -1.511  30.021  1.00  0.00    -0.041 SA
BRANCH  20  22
HETATM   22  N5  UNL     1      43.395  -0.865  28.896  1.00  0.00    -0.363 N 
ATOM     23  H5  UNL     1      43.900   0.015  28.793  1.00  0.00     0.162 HD
BRANCH  22  24
HETATM   24  C12 UNL     1      43.403  -1.837  27.831  1.00  0.00     0.075 C 
HETATM   25  C13 UNL     1      43.924  -3.143  28.387  1.00  0.00     0.032 C 
HETATM   26  C14 UNL     1      44.279  -1.319  26.713  1.00  0.00     0.032 C 
ENDBRANCH  22  24
ENDBRANCH  20  22
ENDBRANCH  18  20
ENDBRANCH  17  18
ENDBRANCH  10  17
TORSDOF 6
ENDMDL
