MODEL 1
REMARK VINA RESULT: -7.196648028      0.000      0.000
REMARK  4 active torsions:
REMARK  status: ('A' for Active; 'I' for Inactive)
REMARK    1  A    between atoms: C2_2  and  C4_4 
REMARK    2  A    between atoms: C4_4  and  N1_5 
REMARK       I    between atoms: N1_5  and  C5_7 
REMARK       I    between atoms: C5_7  and  N2_9 
REMARK    3  A    between atoms: N2_9  and  C6_11 
REMARK    4  A    between atoms: C9_18  and  C10_19 
ROOT
HETATM    1  C6  UNL     1      43.063  -1.627  31.794  1.00  0.00     0.134 A 
HETATM    2  N3  UNL     1      41.990  -1.387  32.594  1.00  0.00    -0.285 N 
ATOM      3  H3  UNL     1      41.941  -0.692  33.339  1.00  0.00     0.188 HD
HETATM    4  N4  UNL     1      41.006  -2.224  32.232  1.00  0.00    -0.303 N 
ATOM      5  H4  UNL     1      40.079  -2.275  32.654  1.00  0.00     0.186 HD
HETATM    6  C7  UNL     1      41.459  -2.995  31.203  1.00  0.00     0.038 A 
HETATM    7  C8  UNL     1      42.753  -2.637  30.909  1.00  0.00     0.042 A 
HETATM    8  C9  UNL     1      43.677  -3.168  29.885  1.00  0.00     0.228 C 
HETATM    9  N5  UNL     1      43.660  -4.615  29.831  1.00  0.00    -0.066 N 
ATOM     10  H51 UNL     1      43.873  -5.006  30.749  1.00  0.00     0.278 HD
ATOM     11  H52 UNL     1      44.462  -4.958  29.303  1.00  0.00     0.278 HD
HETATM   12  C15 UNL     1      42.458  -5.178  29.324  1.00  0.00     0.237 C 
HETATM   13  C16 UNL     1      41.357  -5.320  30.349  1.00  0.00     0.013 C 
HETATM   14  C17 UNL     1      41.820  -5.954  31.628  1.00  0.00     0.012 C 
HETATM   15  C18 UNL     1      40.627  -4.021  30.569  1.00  0.00     0.065 C 
ENDROOT
BRANCH   1  16
HETATM   16  N2  UNL     1      44.199  -1.026  31.835  1.00  0.00    -0.293 N 
HETATM   17  C5  UNL     1      44.487  -0.192  32.950  1.00  0.00     0.321 C 
HETATM   18  N1  UNL     1      45.496  -0.490  33.896  1.00  0.00    -0.342 N 
HETATM   19  O1  UNL     1      43.768   0.859  33.047  1.00  0.00    -0.247 OA
ATOM     20  H1  UNL     1      46.061  -1.334  33.804  1.00  0.00     0.164 HD
ATOM     21  H2  UNL     1      44.879  -1.145  31.084  1.00  0.00     0.172 HD
BRANCH  18  22
HETATM   22  C4  UNL     1      45.709   0.418  34.989  1.00  0.00     0.128 C 
BRANCH  22  23
HETATM   23  C2  UNL     1      46.526  -0.165  36.097  1.00  0.00    -0.005 C 
HETATM   24  C1  UNL     1      47.847  -0.691  35.630  1.00  0.00     0.011 C 
HETATM   25  C3  UNL     1      46.668   0.865  37.194  1.00  0.00     0.011 C 
ENDBRANCH  22  23
ENDBRANCH  18  22
ENDBRANCH   1  16
BRANCH   8  26
HETATM   26  C10 UNL     1      43.421  -2.630  28.515  1.00  0.00     0.021 C 
HETATM   27  C11 UNL     1      44.176  -3.492  27.523  1.00  0.00     0.007 C 
HETATM   28  C12 UNL     1      44.669  -2.592  26.434  1.00  0.00     0.000 C 
HETATM   29  C13 UNL     1      44.070  -1.236  26.750  1.00  0.00     0.000 C 
HETATM   30  C14 UNL     1      44.112  -1.280  28.283  1.00  0.00     0.007 C 
ENDBRANCH   8  26
TORSDOF 4
ENDMDL
MODEL 2
REMARK VINA RESULT: -7.154669820      3.879      6.103
REMARK  4 active torsions:
REMARK  status: ('A' for Active; 'I' for Inactive)
REMARK    1  A    between atoms: C2_2  and  C4_4 
REMARK    2  A    between atoms: C4_4  and  N1_5 
REMARK       I    between atoms: N1_5  and  C5_7 
REMARK       I    between atoms: C5_7  and  N2_9 
REMARK    3  A    between atoms: N2_9  and  C6_11 
REMARK    4  A    between atoms: C9_18  and  C10_19 
ROOT
HETATM    1  C6  UNL     1      41.161  -2.155  29.752  1.00  0.00     0.134 A 
HETATM    2  N3  UNL     1      41.411  -0.847  30.025  1.00  0.00    -0.285 N 
ATOM      3  H3  UNL     1      40.756  -0.187  30.444  1.00  0.00     0.188 HD
HETATM    4  N4  UNL     1      42.669  -0.576  29.649  1.00  0.00    -0.303 N 
ATOM      5  H4  UNL     1      43.137   0.326  29.733  1.00  0.00     0.186 HD
HETATM    6  C7  UNL     1      43.215  -1.715  29.136  1.00  0.00     0.038 A 
HETATM    7  C8  UNL     1      42.283  -2.724  29.190  1.00  0.00     0.042 A 
HETATM    8  C9  UNL     1      42.384  -4.135  28.761  1.00  0.00     0.228 C 
HETATM    9  N5  UNL     1      43.016  -4.268  27.465  1.00  0.00    -0.066 N 
ATOM     10  H51 UNL     1      42.518  -3.713  26.769  1.00  0.00     0.278 HD
ATOM     11  H52 UNL     1      42.859  -5.204  27.090  1.00  0.00     0.278 HD
HETATM   12  C15 UNL     1      44.402  -3.956  27.444  1.00  0.00     0.237 C 
HETATM   13  C16 UNL     1      44.705  -2.482  27.309  1.00  0.00     0.013 C 
HETATM   14  C17 UNL     1      43.926  -1.818  26.212  1.00  0.00     0.012 C 
HETATM   15  C18 UNL     1      44.589  -1.764  28.628  1.00  0.00     0.065 C 
ENDROOT
BRANCH   1  16
HETATM   16  N2  UNL     1      40.063  -2.787  29.969  1.00  0.00    -0.293 N 
HETATM   17  C5  UNL     1      39.225  -2.350  31.032  1.00  0.00     0.321 C 
HETATM   18  N1  UNL     1      37.944  -1.787  30.823  1.00  0.00    -0.342 N 
HETATM   19  O1  UNL     1      39.708  -2.498  32.205  1.00  0.00    -0.247 OA
ATOM     20  H1  UNL     1      37.574  -1.675  29.879  1.00  0.00     0.164 HD
ATOM     21  H2  UNL     1      39.798  -3.585  29.391  1.00  0.00     0.172 HD
BRANCH  18  22
HETATM   22  C4  UNL     1      37.175  -1.376  31.964  1.00  0.00     0.128 C 
BRANCH  22  23
HETATM   23  C2  UNL     1      36.956   0.102  32.035  1.00  0.00    -0.005 C 
HETATM   24  C1  UNL     1      35.927   0.488  33.050  1.00  0.00     0.011 C 
HETATM   25  C3  UNL     1      38.285   0.782  32.269  1.00  0.00     0.011 C 
ENDBRANCH  22  23
ENDBRANCH  18  22
ENDBRANCH   1  16
BRANCH   8  26
HETATM   26  C10 UNL     1      43.100  -5.005  29.741  1.00  0.00     0.021 C 
HETATM   27  C11 UNL     1      42.282  -6.266  29.935  1.00  0.00     0.007 C 
HETATM   28  C12 UNL     1      42.413  -6.667  31.371  1.00  0.00     0.000 C 
HETATM   29  C13 UNL     1      43.421  -5.699  31.954  1.00  0.00     0.000 C 
HETATM   30  C14 UNL     1      43.059  -4.433  31.164  1.00  0.00     0.007 C 
ENDBRANCH   8  26
TORSDOF 4
ENDMDL
MODEL 3
REMARK VINA RESULT: -6.892910598      3.633      6.674
REMARK  4 active torsions:
REMARK  status: ('A' for Active; 'I' for Inactive)
REMARK    1  A    between atoms: C2_2  and  C4_4 
REMARK    2  A    between atoms: C4_4  and  N1_5 
REMARK       I    between atoms: N1_5  and  C5_7 
REMARK       I    between atoms: C5_7  and  N2_9 
REMARK    3  A    between atoms: N2_9  and  C6_11 
REMARK    4  A    between atoms: C9_18  and  C10_19 
ROOT
HETATM    1  C6  UNL     1      40.801  -2.023  29.973  1.00  0.00     0.134 A 
HETATM    2  N3  UNL     1      40.819  -3.191  29.280  1.00  0.00    -0.285 N 
ATOM      3  H3  UNL     1      41.576  -3.521  28.680  1.00  0.00     0.188 HD
HETATM    4  N4  UNL     1      39.669  -3.837  29.522  1.00  0.00    -0.303 N 
ATOM      5  H4  UNL     1      39.399  -4.743  29.138  1.00  0.00     0.186 HD
HETATM    6  C7  UNL     1      38.922  -3.073  30.369  1.00  0.00     0.038 A 
HETATM    7  C8  UNL     1      39.615  -1.924  30.668  1.00  0.00     0.042 A 
HETATM    8  C9  UNL     1      39.241  -0.787  31.534  1.00  0.00     0.228 C 
HETATM    9  N5  UNL     1      37.873  -0.363  31.318  1.00  0.00    -0.066 N 
ATOM     10  H51 UNL     1      37.725  -0.134  30.335  1.00  0.00     0.278 HD
ATOM     11  H52 UNL     1      37.718   0.554  31.739  1.00  0.00     0.278 HD
HETATM   12  C15 UNL     1      36.887  -1.283  31.764  1.00  0.00     0.237 C 
HETATM   13  C16 UNL     1      36.576  -2.386  30.779  1.00  0.00     0.013 C 
HETATM   14  C17 UNL     1      36.337  -1.883  29.386  1.00  0.00     0.012 C 
HETATM   15  C18 UNL     1      37.597  -3.491  30.837  1.00  0.00     0.065 C 
ENDROOT
BRANCH   1  16
HETATM   16  N2  UNL     1      41.727  -1.130  29.995  1.00  0.00    -0.293 N 
HETATM   17  C5  UNL     1      43.010  -1.468  29.485  1.00  0.00     0.321 C 
HETATM   18  N1  UNL     1      43.557  -0.879  28.320  1.00  0.00    -0.342 N 
HETATM   19  O1  UNL     1      43.649  -2.350  30.151  1.00  0.00    -0.247 OA
ATOM     20  H1  UNL     1      43.032  -0.176  27.799  1.00  0.00     0.164 HD
ATOM     21  H2  UNL     1      41.544  -0.199  30.371  1.00  0.00     0.172 HD
BRANCH  18  22
HETATM   22  C4  UNL     1      44.863  -1.290  27.885  1.00  0.00     0.128 C 
BRANCH  22  23
HETATM   23  C2  UNL     1      44.857  -2.004  26.572  1.00  0.00    -0.005 C 
HETATM   24  C1  UNL     1      44.252  -3.370  26.657  1.00  0.00     0.011 C 
HETATM   25  C3  UNL     1      44.175  -1.131  25.543  1.00  0.00     0.011 C 
ENDBRANCH  22  23
ENDBRANCH  18  22
ENDBRANCH   1  16
BRANCH   8  26
HETATM   26  C10 UNL     1      39.441  -1.056  32.990  1.00  0.00     0.021 C 
HETATM   27  C11 UNL     1      39.745   0.262  33.674  1.00  0.00     0.007 C 
HETATM   28  C12 UNL     1      40.739  -0.016  34.757  1.00  0.00     0.000 C 
HETATM   29  C13 UNL     1      40.891  -1.523  34.767  1.00  0.00     0.000 C 
HETATM   30  C14 UNL     1      40.746  -1.814  33.267  1.00  0.00     0.007 C 
ENDBRANCH   8  26
TORSDOF 4
ENDMDL
MODEL 4
REMARK VINA RESULT: -6.883752828      1.553      2.044
REMARK  4 active torsions:
REMARK  status: ('A' for Active; 'I' for Inactive)
REMARK    1  A    between atoms: C2_2  and  C4_4 
REMARK    2  A    between atoms: C4_4  and  N1_5 
REMARK       I    between atoms: N1_5  and  C5_7 
REMARK       I    between atoms: C5_7  and  N2_9 
REMARK    3  A    between atoms: N2_9  and  C6_11 
REMARK    4  A    between atoms: C9_18  and  C10_19 
ROOT
HETATM    1  C6  UNL     1      42.665  -1.254  32.598  1.00  0.00     0.134 A 
HETATM    2  N3  UNL     1      42.064  -0.230  33.260  1.00  0.00    -0.285 N 
ATOM      3  H3  UNL     1      42.456   0.285  34.049  1.00  0.00     0.188 HD
HETATM    4  N4  UNL     1      40.868  -0.014  32.694  1.00  0.00    -0.303 N 
ATOM      5  H4  UNL     1      40.191   0.695  32.979  1.00  0.00     0.186 HD
HETATM    6  C7  UNL     1      40.712  -0.904  31.673  1.00  0.00     0.038 A 
HETATM    7  C8  UNL     1      41.832  -1.697  31.593  1.00  0.00     0.042 A 
HETATM    8  C9  UNL     1      42.150  -2.801  30.664  1.00  0.00     0.228 C 
HETATM    9  N5  UNL     1      41.031  -3.702  30.481  1.00  0.00    -0.066 N 
ATOM     10  H51 UNL     1      40.719  -4.065  31.382  1.00  0.00     0.278 HD
ATOM     11  H52 UNL     1      41.343  -4.567  30.040  1.00  0.00     0.278 HD
HETATM   12  C15 UNL     1      39.934  -3.151  29.766  1.00  0.00     0.237 C 
HETATM   13  C16 UNL     1      38.987  -2.334  30.613  1.00  0.00     0.013 C 
HETATM   14  C17 UNL     1      38.585  -3.025  31.883  1.00  0.00     0.012 C 
HETATM   15  C18 UNL     1      39.504  -0.939  30.843  1.00  0.00     0.065 C 
ENDROOT
BRANCH   1  16
HETATM   16  N2  UNL     1      43.823  -1.754  32.848  1.00  0.00    -0.293 N 
HETATM   17  C5  UNL     1      44.840  -0.895  33.349  1.00  0.00     0.321 C 
HETATM   18  N1  UNL     1      45.376  -1.014  34.653  1.00  0.00    -0.342 N 
HETATM   19  O1  UNL     1      45.246   0.003  32.538  1.00  0.00    -0.247 OA
ATOM     20  H1  UNL     1      45.040  -1.738  35.289  1.00  0.00     0.164 HD
ATOM     21  H2  UNL     1      44.008  -2.745  32.690  1.00  0.00     0.172 HD
BRANCH  18  22
HETATM   22  C4  UNL     1      46.402  -0.097  35.065  1.00  0.00     0.128 C 
BRANCH  22  23
HETATM   23  C2  UNL     1      47.201  -0.582  36.232  1.00  0.00    -0.005 C 
HETATM   24  C1  UNL     1      48.512  -1.181  35.829  1.00  0.00     0.011 C 
HETATM   25  C3  UNL     1      47.362   0.551  37.220  1.00  0.00     0.011 C 
ENDBRANCH  22  23
ENDBRANCH  18  22
ENDBRANCH   1  16
BRANCH   8  26
HETATM   26  C10 UNL     1      42.620  -2.335  29.325  1.00  0.00     0.021 C 
HETATM   27  C11 UNL     1      42.835  -3.555  28.451  1.00  0.00     0.007 C 
HETATM   28  C12 UNL     1      44.021  -3.279  27.583  1.00  0.00     0.000 C 
HETATM   29  C13 UNL     1      44.391  -1.840  27.876  1.00  0.00     0.000 C 
HETATM   30  C14 UNL     1      44.049  -1.779  29.371  1.00  0.00     0.007 C 
ENDBRANCH   8  26
TORSDOF 4
ENDMDL
MODEL 5
REMARK VINA RESULT: -6.695784912      2.763      8.790
REMARK  4 active torsions:
REMARK  status: ('A' for Active; 'I' for Inactive)
REMARK    1  A    between atoms: C2_2  and  C4_4 
REMARK    2  A    between atoms: C4_4  and  N1_5 
REMARK       I    between atoms: N1_5  and  C5_7 
REMARK       I    between atoms: C5_7  and  N2_9 
REMARK    3  A    between atoms: N2_9  and  C6_11 
REMARK    4  A    between atoms: C9_18  and  C10_19 
ROOT
HETATM    1  C6  UNL     1      45.761   0.777  35.308  1.00  0.00     0.134 A 
HETATM    2  N3  UNL     1      47.048   0.505  34.967  1.00  0.00    -0.285 N 
ATOM      3  H3  UNL     1      47.403   0.382  34.018  1.00  0.00     0.188 HD
HETATM    4  N4  UNL     1      47.770   0.427  36.094  1.00  0.00    -0.303 N 
ATOM      5  H4  UNL     1      48.770   0.235  36.151  1.00  0.00     0.186 HD
HETATM    6  C7  UNL     1      46.937   0.649  37.150  1.00  0.00     0.038 A 
HETATM    7  C8  UNL     1      45.665   0.873  36.680  1.00  0.00     0.042 A 
HETATM    8  C9  UNL     1      44.416   1.159  37.417  1.00  0.00     0.228 C 
HETATM    9  N5  UNL     1      44.251   0.297  38.569  1.00  0.00    -0.066 N 
ATOM     10  H51 UNL     1      44.288  -0.682  38.286  1.00  0.00     0.278 HD
ATOM     11  H52 UNL     1      43.292   0.346  38.911  1.00  0.00     0.278 HD
HETATM   12  C15 UNL     1      45.166   0.539  39.629  1.00  0.00     0.237 C 
HETATM   13  C16 UNL     1      46.506  -0.139  39.461  1.00  0.00     0.013 C 
HETATM   14  C17 UNL     1      46.391  -1.588  39.089  1.00  0.00     0.012 C 
HETATM   15  C18 UNL     1      47.411   0.633  38.537  1.00  0.00     0.065 C 
ENDROOT
BRANCH   1  16
HETATM   16  N2  UNL     1      44.769   0.926  34.504  1.00  0.00    -0.293 N 
HETATM   17  C5  UNL     1      44.657   0.045  33.392  1.00  0.00     0.321 C 
HETATM   18  N1  UNL     1      43.611  -0.898  33.258  1.00  0.00    -0.342 N 
HETATM   19  O1  UNL     1      45.573   0.159  32.510  1.00  0.00    -0.247 OA
ATOM     20  H1  UNL     1      42.887  -0.976  33.973  1.00  0.00     0.164 HD
ATOM     21  H2  UNL     1      44.077   1.660  34.659  1.00  0.00     0.172 HD
BRANCH  18  22
HETATM   22  C4  UNL     1      43.587  -1.743  32.097  1.00  0.00     0.128 C 
BRANCH  22  23
HETATM   23  C2  UNL     1      42.290  -1.698  31.354  1.00  0.00    -0.005 C 
HETATM   24  C1  UNL     1      41.370  -0.630  31.856  1.00  0.00     0.011 C 
HETATM   25  C3  UNL     1      42.578  -1.567  29.876  1.00  0.00     0.011 C 
ENDBRANCH  22  23
ENDBRANCH  18  22
ENDBRANCH   1  16
BRANCH   8  26
HETATM   26  C10 UNL     1      44.296   2.582  37.855  1.00  0.00     0.021 C 
HETATM   27  C11 UNL     1      42.850   2.838  38.230  1.00  0.00     0.007 C 
HETATM   28  C12 UNL     1      42.523   4.238  37.816  1.00  0.00     0.000 C 
HETATM   29  C13 UNL     1      43.836   4.816  37.328  1.00  0.00     0.000 C 
HETATM   30  C14 UNL     1      44.453   3.565  36.687  1.00  0.00     0.007 C 
ENDBRANCH   8  26
TORSDOF 4
ENDMDL
