MODEL 1
REMARK VINA RESULT: -5.719625484      0.000      0.000
REMARK  4 active torsions:
REMARK  status: ('A' for Active; 'I' for Inactive)
REMARK    1  A    between atoms: C5_5  and  N1_6 
REMARK       I    between atoms: N1_6  and  C6_8 
REMARK    2  A    between atoms: N3_10  and  C7_12 
REMARK    3  A    between atoms: C7_12  and  C8_13 
REMARK    4  A    between atoms: C17_22  and  N4_23 
ROOT
HETATM    1  C1  UNL     1      40.146  -4.522  33.407  1.00  0.00     0.015 C 
HETATM    2  C2  UNL     1      41.138  -4.125  32.635  1.00  0.00    -0.084 C 
HETATM    3  C3  UNL     1      42.405  -3.903  33.391  1.00  0.00     0.039 C 
HETATM    4  C4  UNL     1      43.382  -2.989  32.699  1.00  0.00     0.058 C 
HETATM    5  C5  UNL     1      42.670  -1.971  31.829  1.00  0.00     0.003 C 
HETATM    6  C10 UNL     1      42.374  -2.455  30.457  1.00  0.00     0.028 C 
HETATM    7  C11 UNL     1      40.996  -1.961  30.049  1.00  0.00     0.030 C 
HETATM    8  C12 UNL     1      39.976  -2.872  30.757  1.00  0.00    -0.038 C 
HETATM    9  C13 UNL     1      39.120  -2.155  31.728  1.00  0.00     0.015 C 
HETATM   10  C14 UNL     1      38.978  -3.361  29.660  1.00  0.00     0.015 C 
HETATM   11  C15 UNL     1      40.784  -4.016  31.200  1.00  0.00     0.029 C 
HETATM   12  C16 UNL     1      42.100  -3.973  30.472  1.00  0.00     0.047 C 
HETATM   13  C17 UNL     1      42.078  -4.244  29.022  1.00  0.00     0.212 C 
HETATM   14  C18 UNL     1      43.243  -3.393  28.578  1.00  0.00     0.009 C 
HETATM   15  C19 UNL     1      43.391  -2.358  29.437  1.00  0.00    -0.071 C 
HETATM   16  C20 UNL     1      44.505  -1.371  29.202  1.00  0.00     0.044 C 
ENDROOT
BRANCH   5  17
HETATM   17  N1  UNL     1      43.160  -0.638  31.952  1.00  0.00    -0.337 N 
HETATM   18  C6  UNL     1      42.933   0.078  33.142  1.00  0.00     0.188 C 
HETATM   19  N2  UNL     1      41.616   0.330  33.563  1.00  0.00    -0.064 NA
HETATM   20  N3  UNL     1      43.921   0.492  33.830  1.00  0.00    -0.364 N 
ATOM     21  H3  UNL     1      43.732   1.009  34.689  1.00  0.00     0.162 HD
ATOM     22  H1  UNL     1      43.672  -0.207  31.183  1.00  0.00     0.168 HD
BRANCH  20  23
HETATM   23  C7  UNL     1      45.294   0.267  33.455  1.00  0.00     0.122 C 
BRANCH  23  24
HETATM   24  C8  UNL     1      45.980  -0.550  34.548  1.00  0.00     0.015 C 
HETATM   25  C9  UNL     1      45.582   0.075  35.871  1.00  0.00     0.006 C 
ENDBRANCH  23  24
ENDBRANCH  20  23
ENDBRANCH   5  17
BRANCH  13  26
HETATM   26  N4  UNL     1      42.330  -5.647  28.722  1.00  0.00    -0.071 N 
ATOM     27  H43 UNL     1      43.229  -5.949  29.097  1.00  0.00     0.275 HD
ATOM     28  H42 UNL     1      41.716  -6.257  29.262  1.00  0.00     0.275 HD
ATOM     29  H41 UNL     1      42.262  -5.844  27.723  1.00  0.00     0.275 HD
ENDBRANCH  13  26
TORSDOF 4
ENDMDL
MODEL 2
REMARK VINA RESULT: -5.674312148      1.821      5.204
REMARK  4 active torsions:
REMARK  status: ('A' for Active; 'I' for Inactive)
REMARK    1  A    between atoms: C5_5  and  N1_6 
REMARK       I    between atoms: N1_6  and  C6_8 
REMARK    2  A    between atoms: N3_10  and  C7_12 
REMARK    3  A    between atoms: C7_12  and  C8_13 
REMARK    4  A    between atoms: C17_22  and  N4_23 
ROOT
HETATM    1  C1  UNL     1      38.906  -2.955  31.349  1.00  0.00     0.015 C 
HETATM    2  C2  UNL     1      39.929  -2.202  31.700  1.00  0.00    -0.084 C 
HETATM    3  C3  UNL     1      40.209  -1.114  30.717  1.00  0.00     0.039 C 
HETATM    4  C4  UNL     1      41.615  -0.575  30.781  1.00  0.00     0.058 C 
HETATM    5  C5  UNL     1      42.596  -1.634  31.246  1.00  0.00     0.003 C 
HETATM    6  C10 UNL     1      42.721  -1.731  32.723  1.00  0.00     0.028 C 
HETATM    7  C11 UNL     1      42.830  -3.195  33.111  1.00  0.00     0.030 C 
HETATM    8  C12 UNL     1      41.404  -3.775  33.039  1.00  0.00    -0.038 C 
HETATM    9  C13 UNL     1      41.250  -4.834  32.017  1.00  0.00     0.015 C 
HETATM   10  C14 UNL     1      41.156  -4.514  34.393  1.00  0.00     0.015 C 
HETATM   11  C15 UNL     1      40.549  -2.583  32.992  1.00  0.00     0.029 C 
HETATM   12  C16 UNL     1      41.376  -1.393  33.397  1.00  0.00     0.047 C 
HETATM   13  C17 UNL     1      41.807  -1.321  34.806  1.00  0.00     0.212 C 
HETATM   14  C18 UNL     1      43.113  -0.581  34.644  1.00  0.00     0.009 C 
HETATM   15  C19 UNL     1      43.621  -0.840  33.416  1.00  0.00    -0.071 C 
HETATM   16  C20 UNL     1      44.925  -0.199  33.019  1.00  0.00     0.044 C 
ENDROOT
BRANCH   5  17
HETATM   17  N1  UNL     1      43.802  -1.699  30.490  1.00  0.00    -0.337 N 
HETATM   18  C6  UNL     1      43.979  -2.735  29.554  1.00  0.00     0.188 C 
HETATM   19  N2  UNL     1      43.962  -4.074  29.982  1.00  0.00    -0.064 NA
HETATM   20  N3  UNL     1      44.153  -2.453  28.324  1.00  0.00    -0.364 N 
ATOM     21  H3  UNL     1      44.280  -3.220  27.664  1.00  0.00     0.162 HD
ATOM     22  H1  UNL     1      44.532  -1.001  30.627  1.00  0.00     0.168 HD
BRANCH  20  23
HETATM   23  C7  UNL     1      44.181  -1.104  27.819  1.00  0.00     0.122 C 
BRANCH  23  24
HETATM   24  C8  UNL     1      44.177  -1.146  26.292  1.00  0.00     0.015 C 
HETATM   25  C9  UNL     1      44.551  -2.560  25.895  1.00  0.00     0.006 C 
ENDBRANCH  23  24
ENDBRANCH  20  23
ENDBRANCH   5  17
BRANCH  13  26
HETATM   26  N4  UNL     1      40.883  -0.545  35.624  1.00  0.00    -0.071 N 
ATOM     27  H43 UNL     1      40.105  -0.192  35.067  1.00  0.00     0.275 HD
ATOM     28  H42 UNL     1      40.364  -1.145  36.265  1.00  0.00     0.275 HD
ATOM     29  H41 UNL     1      41.353   0.210  36.122  1.00  0.00     0.275 HD
ENDBRANCH  13  26
TORSDOF 4
ENDMDL
MODEL 3
REMARK VINA RESULT: -5.490815859      3.183      8.680
REMARK  4 active torsions:
REMARK  status: ('A' for Active; 'I' for Inactive)
REMARK    1  A    between atoms: C5_5  and  N1_6 
REMARK       I    between atoms: N1_6  and  C6_8 
REMARK    2  A    between atoms: N3_10  and  C7_12 
REMARK    3  A    between atoms: C7_12  and  C8_13 
REMARK    4  A    between atoms: C17_22  and  N4_23 
ROOT
HETATM    1  C1  UNL     1      45.329  -2.656  38.863  1.00  0.00     0.015 C 
HETATM    2  C2  UNL     1      44.950  -1.424  38.591  1.00  0.00    -0.084 C 
HETATM    3  C3  UNL     1      43.596  -1.360  37.967  1.00  0.00     0.039 C 
HETATM    4  C4  UNL     1      43.338  -0.098  37.186  1.00  0.00     0.058 C 
HETATM    5  C5  UNL     1      44.620   0.467  36.603  1.00  0.00     0.003 C 
HETATM    6  C10 UNL     1      45.358   1.363  37.528  1.00  0.00     0.028 C 
HETATM    7  C11 UNL     1      46.847   1.095  37.386  1.00  0.00     0.030 C 
HETATM    8  C12 UNL     1      47.135  -0.203  38.165  1.00  0.00    -0.038 C 
HETATM    9  C13 UNL     1      47.618  -1.309  37.308  1.00  0.00     0.015 C 
HETATM   10  C14 UNL     1      48.341   0.103  39.108  1.00  0.00     0.015 C 
HETATM   11  C15 UNL     1      45.932  -0.386  38.987  1.00  0.00     0.029 C 
HETATM   12  C16 UNL     1      45.160   0.906  38.987  1.00  0.00     0.047 C 
HETATM   13  C17 UNL     1      45.762   2.050  39.698  1.00  0.00     0.212 C 
HETATM   14  C18 UNL     1      45.214   3.189  38.873  1.00  0.00     0.009 C 
HETATM   15  C19 UNL     1      44.987   2.755  37.611  1.00  0.00    -0.071 C 
HETATM   16  C20 UNL     1      44.426   3.721  36.600  1.00  0.00     0.044 C 
ENDROOT
BRANCH   5  17
HETATM   17  N1  UNL     1      44.520   0.883  35.243  1.00  0.00    -0.337 N 
HETATM   18  C6  UNL     1      45.047   0.064  34.226  1.00  0.00     0.188 C 
HETATM   19  N2  UNL     1      46.418  -0.245  34.220  1.00  0.00    -0.064 NA
HETATM   20  N3  UNL     1      44.279  -0.391  33.318  1.00  0.00    -0.364 N 
ATOM     21  H3  UNL     1      44.684  -0.982  32.592  1.00  0.00     0.162 HD
ATOM     22  H1  UNL     1      44.070   1.767  35.009  1.00  0.00     0.168 HD
BRANCH  20  23
HETATM   23  C7  UNL     1      42.866  -0.113  33.266  1.00  0.00     0.122 C 
BRANCH  23  24
HETATM   24  C8  UNL     1      42.277  -0.768  32.018  1.00  0.00     0.015 C 
HETATM   25  C9  UNL     1      43.342  -1.700  31.474  1.00  0.00     0.006 C 
ENDBRANCH  23  24
ENDBRANCH  20  23
ENDBRANCH   5  17
BRANCH  13  26
HETATM   26  N4  UNL     1      45.294   2.149  41.074  1.00  0.00    -0.071 N 
ATOM     27  H43 UNL     1      44.486   1.547  41.233  1.00  0.00     0.275 HD
ATOM     28  H42 UNL     1      45.951   1.713  41.721  1.00  0.00     0.275 HD
ATOM     29  H41 UNL     1      45.094   3.113  41.343  1.00  0.00     0.275 HD
ENDBRANCH  13  26
TORSDOF 4
ENDMDL
MODEL 4
REMARK VINA RESULT: -5.396286658      2.496      5.777
REMARK  4 active torsions:
REMARK  status: ('A' for Active; 'I' for Inactive)
REMARK    1  A    between atoms: C5_5  and  N1_6 
REMARK       I    between atoms: N1_6  and  C6_8 
REMARK    2  A    between atoms: N3_10  and  C7_12 
REMARK    3  A    between atoms: C7_12  and  C8_13 
REMARK    4  A    between atoms: C17_22  and  N4_23 
ROOT
HETATM    1  C1  UNL     1      43.085  -2.863  28.102  1.00  0.00     0.015 C 
HETATM    2  C2  UNL     1      43.272  -3.184  29.366  1.00  0.00    -0.084 C 
HETATM    3  C3  UNL     1      44.058  -4.442  29.532  1.00  0.00     0.039 C 
HETATM    4  C4  UNL     1      43.866  -5.116  30.865  1.00  0.00     0.058 C 
HETATM    5  C5  UNL     1      42.485  -4.843  31.431  1.00  0.00     0.003 C 
HETATM    6  C10 UNL     1      42.396  -3.587  32.218  1.00  0.00     0.028 C 
HETATM    7  C11 UNL     1      41.071  -2.909  31.911  1.00  0.00     0.030 C 
HETATM    8  C12 UNL     1      41.238  -2.223  30.541  1.00  0.00    -0.038 C 
HETATM    9  C13 UNL     1      40.342  -2.768  29.497  1.00  0.00     0.015 C 
HETATM   10  C14 UNL     1      40.757  -0.748  30.722  1.00  0.00     0.015 C 
HETATM   11  C15 UNL     1      42.690  -2.220  30.331  1.00  0.00     0.029 C 
HETATM   12  C16 UNL     1      43.357  -2.527  31.644  1.00  0.00     0.047 C 
HETATM   13  C17 UNL     1      43.268  -1.501  32.701  1.00  0.00     0.212 C 
HETATM   14  C18 UNL     1      43.291  -2.384  33.926  1.00  0.00     0.009 C 
HETATM   15  C19 UNL     1      42.776  -3.595  33.611  1.00  0.00    -0.071 C 
HETATM   16  C20 UNL     1      42.703  -4.655  34.678  1.00  0.00     0.044 C 
ENDROOT
BRANCH   5  17
HETATM   17  N1  UNL     1      41.826  -5.988  31.966  1.00  0.00    -0.337 N 
HETATM   18  C6  UNL     1      41.585  -7.101  31.138  1.00  0.00     0.188 C 
HETATM   19  N2  UNL     1      40.790  -6.955  29.988  1.00  0.00    -0.064 NA
HETATM   20  N3  UNL     1      42.089  -8.232  31.434  1.00  0.00    -0.364 N 
ATOM     21  H3  UNL     1      41.901  -9.023  30.819  1.00  0.00     0.162 HD
ATOM     22  H1  UNL     1      41.530  -6.001  32.942  1.00  0.00     0.168 HD
BRANCH  20  23
HETATM   23  C7  UNL     1      42.913  -8.449  32.596  1.00  0.00     0.122 C 
BRANCH  23  24
HETATM   24  C8  UNL     1      44.375  -8.520  32.162  1.00  0.00     0.015 C 
HETATM   25  C9  UNL     1      44.408  -9.326  30.878  1.00  0.00     0.006 C 
ENDBRANCH  23  24
ENDBRANCH  20  23
ENDBRANCH   5  17
BRANCH  13  26
HETATM   26  N4  UNL     1      44.420  -0.609  32.698  1.00  0.00    -0.071 N 
ATOM     27  H43 UNL     1      44.131   0.367  32.622  1.00  0.00     0.275 HD
ATOM     28  H42 UNL     1      44.864  -0.575  33.616  1.00  0.00     0.275 HD
ATOM     29  H41 UNL     1      45.092  -0.852  31.971  1.00  0.00     0.275 HD
ENDBRANCH  13  26
TORSDOF 4
ENDMDL
MODEL 5
REMARK VINA RESULT: -5.387598859      2.503      5.848
REMARK  4 active torsions:
REMARK  status: ('A' for Active; 'I' for Inactive)
REMARK    1  A    between atoms: C5_5  and  N1_6 
REMARK       I    between atoms: N1_6  and  C6_8 
REMARK    2  A    between atoms: N3_10  and  C7_12 
REMARK    3  A    between atoms: C7_12  and  C8_13 
REMARK    4  A    between atoms: C17_22  and  N4_23 
ROOT
HETATM    1  C1  UNL     1      39.541   0.132  31.622  1.00  0.00     0.015 C 
HETATM    2  C2  UNL     1      40.088  -0.866  30.958  1.00  0.00    -0.084 C 
HETATM    3  C3  UNL     1      39.084  -1.690  30.223  1.00  0.00     0.039 C 
HETATM    4  C4  UNL     1      39.554  -3.083  29.894  1.00  0.00     0.058 C 
HETATM    5  C5  UNL     1      40.549  -3.591  30.921  1.00  0.00     0.003 C 
HETATM    6  C10 UNL     1      41.954  -3.206  30.637  1.00  0.00     0.028 C 
HETATM    7  C11 UNL     1      42.638  -2.846  31.945  1.00  0.00     0.030 C 
HETATM    8  C12 UNL     1      42.161  -1.427  32.312  1.00  0.00    -0.038 C 
HETATM    9  C13 UNL     1      41.386  -1.374  33.572  1.00  0.00     0.015 C 
HETATM   10  C14 UNL     1      43.444  -0.592  32.620  1.00  0.00     0.015 C 
HETATM   11  C15 UNL     1      41.565  -0.930  31.066  1.00  0.00     0.029 C 
HETATM   12  C16 UNL     1      42.003  -1.830  29.942  1.00  0.00     0.047 C 
HETATM   13  C17 UNL     1      43.427  -1.787  29.560  1.00  0.00     0.212 C 
HETATM   14  C18 UNL     1      43.615  -3.208  29.086  1.00  0.00     0.009 C 
HETATM   15  C19 UNL     1      42.740  -4.012  29.732  1.00  0.00    -0.071 C 
HETATM   16  C20 UNL     1      42.733  -5.484  29.415  1.00  0.00     0.044 C 
ENDROOT
BRANCH   5  17
HETATM   17  N1  UNL     1      40.320  -4.928  31.357  1.00  0.00    -0.337 N 
HETATM   18  C6  UNL     1      39.074  -5.274  31.912  1.00  0.00     0.188 C 
HETATM   19  N2  UNL     1      38.623  -4.625  33.075  1.00  0.00    -0.064 NA
HETATM   20  N3  UNL     1      38.361  -6.172  31.357  1.00  0.00    -0.364 N 
ATOM     21  H3  UNL     1      37.462  -6.406  31.777  1.00  0.00     0.162 HD
ATOM     22  H1  UNL     1      41.055  -5.629  31.269  1.00  0.00     0.168 HD
BRANCH  20  23
HETATM   23  C7  UNL     1      38.763  -6.875  30.165  1.00  0.00     0.122 C 
BRANCH  23  24
HETATM   24  C8  UNL     1      37.532  -7.123  29.296  1.00  0.00     0.015 C 
HETATM   25  C9  UNL     1      37.002  -5.760  28.896  1.00  0.00     0.006 C 
ENDBRANCH  23  24
ENDBRANCH  20  23
ENDBRANCH   5  17
BRANCH  13  26
HETATM   26  N4  UNL     1      43.674  -0.852  28.470  1.00  0.00    -0.071 N 
ATOM     27  H43 UNL     1      43.733   0.107  28.813  1.00  0.00     0.275 HD
ATOM     28  H42 UNL     1      44.622  -0.951  28.105  1.00  0.00     0.275 HD
ATOM     29  H41 UNL     1      42.981  -0.937  27.727  1.00  0.00     0.275 HD
ENDBRANCH  13  26
TORSDOF 4
ENDMDL
