MODEL 1
REMARK VINA RESULT: -6.296428923      0.000      0.000
REMARK  4 active torsions:
REMARK  status: ('A' for Active; 'I' for Inactive)
REMARK    1  A    between atoms: C3_3  and  C4_4 
REMARK    2  A    between atoms: C4_4  and  C5_5 
REMARK       I    between atoms: N1_6  and  C6_8 
REMARK       I    between atoms: C6_8  and  N2_10 
REMARK       I    between atoms: N2_10  and  C7_12 
REMARK       I    between atoms: C7_12  and  N4_16 
REMARK    3  A    between atoms: N4_16  and  C8_18 
REMARK    4  A    between atoms: C14_24  and  C15_25 
ROOT
HETATM    1  C1  UNL     1      42.429  -6.187  32.662  1.00  0.00     0.112 C 
HETATM    2  C2  UNL     1      42.762  -4.805  33.008  1.00  0.00    -0.111 C 
HETATM    3  C3  UNL     1      43.051  -3.667  33.282  1.00  0.00    -0.102 C 
ENDROOT
BRANCH   3   4
HETATM    4  C4  UNL     1      43.427  -2.271  33.605  1.00  0.00     0.138 C 
BRANCH   4   5
HETATM    5  C5  UNL     1      42.965  -1.396  32.529  1.00  0.00     0.077 C 
HETATM    6  N1  UNL     1      43.408  -0.200  32.422  1.00  0.00    -0.321 N 
HETATM    7  C6  UNL     1      44.376   0.233  33.408  1.00  0.00     0.338 C 
ATOM      8  H1  UNL     1      43.094   0.419  31.675  1.00  0.00     0.169 HD
HETATM    9  O1  UNL     1      45.518  -0.220  33.335  1.00  0.00    -0.246 OA
HETATM   10  N2  UNL     1      43.997   1.154  34.418  1.00  0.00    -0.142 N 
HETATM   11  C7  UNL     1      44.926   1.579  35.380  1.00  0.00     0.676 C 
ATOM     12  H2  UNL     1      43.041   1.509  34.446  1.00  0.00     0.189 HD
HETATM   13  N3  UNL     1      44.537   2.421  36.277  1.00  0.00    -0.235 N 
HETATM   14  N4  UNL     1      46.255   1.121  35.393  1.00  0.00    -0.217 N 
ATOM     15  H32 UNL     1      43.573   2.754  36.268  1.00  0.00     0.174 HD
ATOM     16  H31 UNL     1      45.213   2.731  36.975  1.00  0.00     0.174 HD
ATOM     17  H4  UNL     1      46.833   1.291  34.570  1.00  0.00     0.178 HD
BRANCH  14  18
HETATM   18  C8  UNL     1      46.853   0.413  36.522  1.00  0.00     0.048 C 
HETATM   19  C9  UNL     1      46.788   1.300  37.743  1.00  0.00     0.036 C 
HETATM   20  C10 UNL     1      47.359   0.574  38.917  1.00  0.00    -0.011 C 
HETATM   21  C11 UNL     1      46.497  -0.630  39.239  1.00  0.00     0.009 C 
HETATM   22  C17 UNL     1      48.774   0.118  38.659  1.00  0.00     0.014 C 
HETATM   23  C12 UNL     1      46.466  -1.510  38.031  1.00  0.00    -0.011 C 
HETATM   24  C13 UNL     1      47.862  -2.004  37.668  1.00  0.00     0.014 C 
HETATM   25  C19 UNL     1      45.957  -0.789  36.825  1.00  0.00     0.036 C 
HETATM   26  C14 UNL     1      48.745  -0.810  37.476  1.00  0.00    -0.038 C 
HETATM   27  C18 UNL     1      48.269  -0.011  36.274  1.00  0.00     0.041 C 
BRANCH  26  28
HETATM   28  C15 UNL     1      50.137  -1.325  37.130  1.00  0.00     0.005 C 
HETATM   29  C16 UNL     1      50.765  -0.575  36.002  1.00  0.00     0.006 C 
ENDBRANCH  26  28
ENDBRANCH  14  18
ENDBRANCH   4   5
ENDBRANCH   3   4
TORSDOF 4
ENDMDL
MODEL 2
REMARK VINA RESULT: -6.275634888      3.120      6.603
REMARK  4 active torsions:
REMARK  status: ('A' for Active; 'I' for Inactive)
REMARK    1  A    between atoms: C3_3  and  C4_4 
REMARK    2  A    between atoms: C4_4  and  C5_5 
REMARK       I    between atoms: N1_6  and  C6_8 
REMARK       I    between atoms: C6_8  and  N2_10 
REMARK       I    between atoms: N2_10  and  C7_12 
REMARK       I    between atoms: C7_12  and  N4_16 
REMARK    3  A    between atoms: N4_16  and  C8_18 
REMARK    4  A    between atoms: C14_24  and  C15_25 
ROOT
HETATM    1  C1  UNL     1      49.593  -0.578  42.408  1.00  0.00     0.112 C 
HETATM    2  C2  UNL     1      49.051  -1.011  41.121  1.00  0.00    -0.111 C 
HETATM    3  C3  UNL     1      48.620  -1.371  40.054  1.00  0.00    -0.102 C 
ENDROOT
BRANCH   3   4
HETATM    4  C4  UNL     1      48.113  -1.816  38.735  1.00  0.00     0.138 C 
BRANCH   4   5
HETATM    5  C5  UNL     1      49.250  -2.130  37.872  1.00  0.00     0.077 C 
HETATM    6  N1  UNL     1      49.352  -1.612  36.706  1.00  0.00    -0.321 N 
HETATM    7  C6  UNL     1      48.295  -0.712  36.293  1.00  0.00     0.338 C 
ATOM      8  H1  UNL     1      50.141  -1.824  36.096  1.00  0.00     0.169 HD
HETATM    9  O1  UNL     1      48.253   0.404  36.809  1.00  0.00    -0.246 OA
HETATM   10  N2  UNL     1      47.350  -1.126  35.320  1.00  0.00    -0.142 N 
HETATM   11  C7  UNL     1      46.321  -0.262  34.913  1.00  0.00     0.676 C 
ATOM     12  H2  UNL     1      47.419  -2.058  34.913  1.00  0.00     0.189 HD
HETATM   13  N3  UNL     1      45.487  -0.680  34.022  1.00  0.00    -0.235 N 
HETATM   14  N4  UNL     1      46.176   1.032  35.443  1.00  0.00    -0.217 N 
ATOM     15  H32 UNL     1      45.592  -1.620  33.638  1.00  0.00     0.174 HD
ATOM     16  H31 UNL     1      44.740  -0.053  33.726  1.00  0.00     0.174 HD
ATOM     17  H4  UNL     1      46.948   1.689  35.332  1.00  0.00     0.178 HD
BRANCH  14  18
HETATM   18  C8  UNL     1      44.978   1.487  36.143  1.00  0.00     0.048 C 
HETATM   19  C9  UNL     1      43.835   1.562  35.157  1.00  0.00     0.036 C 
HETATM   20  C10 UNL     1      42.592   1.987  35.868  1.00  0.00    -0.011 C 
HETATM   21  C11 UNL     1      42.195   0.928  36.875  1.00  0.00     0.009 C 
HETATM   22  C17 UNL     1      42.776   3.305  36.579  1.00  0.00     0.014 C 
HETATM   23  C12 UNL     1      43.326   0.759  37.837  1.00  0.00    -0.011 C 
HETATM   24  C13 UNL     1      43.612   2.053  38.591  1.00  0.00     0.014 C 
HETATM   25  C19 UNL     1      44.600   0.394  37.145  1.00  0.00     0.036 C 
HETATM   26  C14 UNL     1      43.879   3.130  37.585  1.00  0.00    -0.038 C 
HETATM   27  C18 UNL     1      45.154   2.811  36.822  1.00  0.00     0.041 C 
BRANCH  26  28
HETATM   28  C15 UNL     1      44.146   4.416  38.358  1.00  0.00     0.005 C 
HETATM   29  C16 UNL     1      43.182   5.504  38.017  1.00  0.00     0.006 C 
ENDBRANCH  26  28
ENDBRANCH  14  18
ENDBRANCH   4   5
ENDBRANCH   3   4
TORSDOF 4
ENDMDL
MODEL 3
REMARK VINA RESULT: -6.262083030      3.222      4.575
REMARK  4 active torsions:
REMARK  status: ('A' for Active; 'I' for Inactive)
REMARK    1  A    between atoms: C3_3  and  C4_4 
REMARK    2  A    between atoms: C4_4  and  C5_5 
REMARK       I    between atoms: N1_6  and  C6_8 
REMARK       I    between atoms: C6_8  and  N2_10 
REMARK       I    between atoms: N2_10  and  C7_12 
REMARK       I    between atoms: C7_12  and  N4_16 
REMARK    3  A    between atoms: N4_16  and  C8_18 
REMARK    4  A    between atoms: C14_24  and  C15_25 
ROOT
HETATM    1  C1  UNL     1      37.533  -1.263  30.874  1.00  0.00     0.112 C 
HETATM    2  C2  UNL     1      38.936  -0.990  31.184  1.00  0.00    -0.111 C 
HETATM    3  C3  UNL     1      40.096  -0.781  31.438  1.00  0.00    -0.102 C 
ENDROOT
BRANCH   3   4
HETATM    4  C4  UNL     1      41.525  -0.549  31.751  1.00  0.00     0.138 C 
BRANCH   4   5
HETATM    5  C5  UNL     1      42.332  -1.540  31.041  1.00  0.00     0.077 C 
HETATM    6  N1  UNL     1      43.501  -1.853  31.458  1.00  0.00    -0.321 N 
HETATM    7  C6  UNL     1      43.975  -1.183  32.651  1.00  0.00     0.338 C 
ATOM      8  H1  UNL     1      44.073  -2.543  30.972  1.00  0.00     0.169 HD
HETATM    9  O1  UNL     1      43.479  -1.507  33.730  1.00  0.00    -0.246 OA
HETATM   10  N2  UNL     1      44.981  -0.188  32.556  1.00  0.00    -0.142 N 
HETATM   11  C7  UNL     1      45.446   0.468  33.706  1.00  0.00     0.676 C 
ATOM     12  H2  UNL     1      45.369   0.052  31.644  1.00  0.00     0.189 HD
HETATM   13  N3  UNL     1      46.366   1.363  33.570  1.00  0.00    -0.235 N 
HETATM   14  N4  UNL     1      44.945   0.181  34.987  1.00  0.00    -0.217 N 
ATOM     15  H32 UNL     1      46.729   1.572  32.640  1.00  0.00     0.174 HD
ATOM     16  H31 UNL     1      46.704   1.840  34.405  1.00  0.00     0.174 HD
ATOM     17  H4  UNL     1      45.033  -0.773  35.337  1.00  0.00     0.178 HD
BRANCH  14  18
HETATM   18  C8  UNL     1      44.305   1.175  35.845  1.00  0.00     0.048 C 
HETATM   19  C9  UNL     1      43.721   2.265  34.977  1.00  0.00     0.036 C 
HETATM   20  C10 UNL     1      43.026   3.268  35.838  1.00  0.00    -0.011 C 
HETATM   21  C11 UNL     1      41.845   2.616  36.526  1.00  0.00     0.009 C 
HETATM   22  C17 UNL     1      43.951   3.848  36.880  1.00  0.00     0.014 C 
HETATM   23  C12 UNL     1      42.360   1.477  37.346  1.00  0.00    -0.011 C 
HETATM   24  C13 UNL     1      43.332   1.959  38.417  1.00  0.00     0.014 C 
HETATM   25  C19 UNL     1      43.114   0.488  36.518  1.00  0.00     0.036 C 
HETATM   26  C14 UNL     1      44.434   2.715  37.741  1.00  0.00    -0.038 C 
HETATM   27  C18 UNL     1      45.233   1.771  36.858  1.00  0.00     0.041 C 
BRANCH  26  28
HETATM   28  C15 UNL     1      45.385   3.200  38.829  1.00  0.00     0.005 C 
HETATM   29  C16 UNL     1      45.907   2.087  39.677  1.00  0.00     0.006 C 
ENDBRANCH  26  28
ENDBRANCH  14  18
ENDBRANCH   4   5
ENDBRANCH   3   4
TORSDOF 4
ENDMDL
MODEL 4
REMARK VINA RESULT: -6.233657939      2.970      4.948
REMARK  4 active torsions:
REMARK  status: ('A' for Active; 'I' for Inactive)
REMARK    1  A    between atoms: C3_3  and  C4_4 
REMARK    2  A    between atoms: C4_4  and  C5_5 
REMARK       I    between atoms: N1_6  and  C6_8 
REMARK       I    between atoms: C6_8  and  N2_10 
REMARK       I    between atoms: N2_10  and  C7_12 
REMARK       I    between atoms: C7_12  and  N4_16 
REMARK    3  A    between atoms: N4_16  and  C8_18 
REMARK    4  A    between atoms: C14_24  and  C15_25 
ROOT
HETATM    1  C1  UNL     1      44.611  -2.271  26.223  1.00  0.00     0.112 C 
HETATM    2  C2  UNL     1      43.918  -2.096  27.499  1.00  0.00    -0.111 C 
HETATM    3  C3  UNL     1      43.332  -1.948  28.543  1.00  0.00    -0.102 C 
ENDROOT
BRANCH   3   4
HETATM    4  C4  UNL     1      42.593  -1.760  29.812  1.00  0.00     0.138 C 
BRANCH   4   5
HETATM    5  C5  UNL     1      41.362  -2.549  29.764  1.00  0.00     0.077 C 
HETATM    6  N1  UNL     1      40.719  -2.825  30.835  1.00  0.00    -0.321 N 
HETATM    7  C6  UNL     1      41.265  -2.323  32.078  1.00  0.00     0.338 C 
ATOM      8  H1  UNL     1      39.859  -3.373  30.813  1.00  0.00     0.169 HD
HETATM    9  O1  UNL     1      41.171  -1.117  32.306  1.00  0.00    -0.246 OA
HETATM   10  N2  UNL     1      41.886  -3.213  32.991  1.00  0.00    -0.142 N 
HETATM   11  C7  UNL     1      42.421  -2.737  34.199  1.00  0.00     0.676 C 
ATOM     12  H2  UNL     1      41.944  -4.206  32.769  1.00  0.00     0.189 HD
HETATM   13  N3  UNL     1      42.971  -3.585  35.001  1.00  0.00    -0.235 N 
HETATM   14  N4  UNL     1      42.373  -1.378  34.556  1.00  0.00    -0.217 N 
ATOM     15  H32 UNL     1      43.007  -4.571  34.741  1.00  0.00     0.174 HD
ATOM     16  H31 UNL     1      43.360  -3.239  35.878  1.00  0.00     0.174 HD
ATOM     17  H4  UNL     1      41.459  -0.931  34.634  1.00  0.00     0.178 HD
BRANCH  14  18
HETATM   18  C8  UNL     1      43.560  -0.572  34.823  1.00  0.00     0.048 C 
HETATM   19  C9  UNL     1      44.700  -1.086  33.974  1.00  0.00     0.036 C 
HETATM   20  C10 UNL     1      45.912  -0.244  34.206  1.00  0.00    -0.011 C 
HETATM   21  C11 UNL     1      45.649   1.168  33.725  1.00  0.00     0.009 C 
HETATM   22  C17 UNL     1      46.299  -0.209  35.664  1.00  0.00     0.014 C 
HETATM   23  C12 UNL     1      44.477   1.703  34.483  1.00  0.00    -0.011 C 
HETATM   24  C13 UNL     1      44.760   1.752  35.980  1.00  0.00     0.014 C 
HETATM   25  C19 UNL     1      43.265   0.843  34.319  1.00  0.00     0.036 C 
HETATM   26  C14 UNL     1      45.145   0.376  36.428  1.00  0.00    -0.038 C 
HETATM   27  C18 UNL     1      43.961  -0.563  36.266  1.00  0.00     0.041 C 
BRANCH  26  28
HETATM   28  C15 UNL     1      45.438   0.450  37.921  1.00  0.00     0.005 C 
HETATM   29  C16 UNL     1      46.866   0.775  38.213  1.00  0.00     0.006 C 
ENDBRANCH  26  28
ENDBRANCH  14  18
ENDBRANCH   4   5
ENDBRANCH   3   4
TORSDOF 4
ENDMDL
MODEL 5
REMARK VINA RESULT: -6.085289583      2.757      4.622
REMARK  4 active torsions:
REMARK  status: ('A' for Active; 'I' for Inactive)
REMARK    1  A    between atoms: C3_3  and  C4_4 
REMARK    2  A    between atoms: C4_4  and  C5_5 
REMARK       I    between atoms: N1_6  and  C6_8 
REMARK       I    between atoms: C6_8  and  N2_10 
REMARK       I    between atoms: N2_10  and  C7_12 
REMARK       I    between atoms: C7_12  and  N4_16 
REMARK    3  A    between atoms: N4_16  and  C8_18 
REMARK    4  A    between atoms: C14_24  and  C15_25 
ROOT
HETATM    1  C1  UNL     1      37.147  -0.171  31.926  1.00  0.00     0.112 C 
HETATM    2  C2  UNL     1      38.595  -0.209  32.130  1.00  0.00    -0.111 C 
HETATM    3  C3  UNL     1      39.786  -0.252  32.311  1.00  0.00    -0.102 C 
ENDROOT
BRANCH   3   4
HETATM    4  C4  UNL     1      41.246  -0.318  32.553  1.00  0.00     0.138 C 
BRANCH   4   5
HETATM    5  C5  UNL     1      41.856  -1.175  31.538  1.00  0.00     0.077 C 
HETATM    6  N1  UNL     1      43.074  -1.551  31.644  1.00  0.00    -0.321 N 
HETATM    7  C6  UNL     1      43.806  -1.090  32.805  1.00  0.00     0.338 C 
ATOM      8  H1  UNL     1      43.510  -2.150  30.942  1.00  0.00     0.169 HD
HETATM    9  O1  UNL     1      43.534  -1.591  33.896  1.00  0.00    -0.246 OA
HETATM   10  N2  UNL     1      44.803  -0.091  32.666  1.00  0.00    -0.142 N 
HETATM   11  C7  UNL     1      45.517   0.365  33.785  1.00  0.00     0.676 C 
ATOM     12  H2  UNL     1      45.002   0.299  31.745  1.00  0.00     0.189 HD
HETATM   13  N3  UNL     1      46.418   1.271  33.608  1.00  0.00    -0.235 N 
HETATM   14  N4  UNL     1      45.282  -0.134  35.078  1.00  0.00    -0.217 N 
ATOM     15  H32 UNL     1      46.588   1.633  32.670  1.00  0.00     0.174 HD
ATOM     16  H31 UNL     1      46.937   1.602  34.421  1.00  0.00     0.174 HD
ATOM     17  H4  UNL     1      45.409  -1.133  35.241  1.00  0.00     0.178 HD
BRANCH  14  18
HETATM   18  C8  UNL     1      44.867   0.701  36.202  1.00  0.00     0.048 C 
HETATM   19  C9  UNL     1      43.748   0.003  36.940  1.00  0.00     0.036 C 
HETATM   20  C10 UNL     1      43.340   0.827  38.118  1.00  0.00    -0.011 C 
HETATM   21  C11 UNL     1      44.489   0.912  39.101  1.00  0.00     0.009 C 
HETATM   22  C17 UNL     1      42.929   2.220  37.711  1.00  0.00     0.014 C 
HETATM   23  C12 UNL     1      45.653   1.530  38.397  1.00  0.00    -0.011 C 
HETATM   24  C13 UNL     1      45.327   2.940  37.918  1.00  0.00     0.014 C 
HETATM   25  C19 UNL     1      46.044   0.760  37.177  1.00  0.00     0.036 C 
HETATM   26  C14 UNL     1      44.111   2.869  37.047  1.00  0.00    -0.038 C 
HETATM   27  C18 UNL     1      44.430   2.074  35.792  1.00  0.00     0.041 C 
BRANCH  26  28
HETATM   28  C15 UNL     1      43.794   4.288  36.593  1.00  0.00     0.005 C 
HETATM   29  C16 UNL     1      43.446   5.193  37.728  1.00  0.00     0.006 C 
ENDBRANCH  26  28
ENDBRANCH  14  18
ENDBRANCH   4   5
ENDBRANCH   3   4
TORSDOF 4
ENDMDL
