MODEL 1
REMARK VINA RESULT: -5.297515022      0.000      0.000
REMARK  1 active torsions:
REMARK  status: ('A' for Active; 'I' for Inactive)
REMARK       I    between atoms: C2_4  and  N2_5 
REMARK       I    between atoms: C2_4  and  N5_12 
REMARK       I    between atoms: N2_5  and  C3_7 
REMARK    1  A    between atoms: N5_12  and  C4_14 
ROOT
HETATM    1  C1  UNL     1      47.806  -2.712  39.212  1.00  0.00     0.165 C 
HETATM    2  N1  UNL     1      47.034  -1.544  38.852  1.00  0.00    -0.231 N 
ATOM      3  H1  UNL     1      46.253  -1.247  39.437  1.00  0.00     0.177 HD
HETATM    4  C2  UNL     1      47.333  -0.881  37.797  1.00  0.00     0.676 C 
HETATM    5  N2  UNL     1      48.429  -1.309  36.990  1.00  0.00    -0.164 N 
ATOM      6  H2  UNL     1      48.321  -2.179  36.467  1.00  0.00     0.187 HD
HETATM    7  C3  UNL     1      49.654  -0.615  36.862  1.00  0.00     0.200 C 
HETATM    8  N3  UNL     1      50.206  -0.124  37.909  1.00  0.00    -0.373 N 
ATOM      9  H31 UNL     1      51.090   0.376  37.817  1.00  0.00     0.158 HD
ATOM     10  H32 UNL     1      49.732  -0.257  38.803  1.00  0.00     0.158 HD
HETATM   11  N4  UNL     1      50.309  -0.431  35.625  1.00  0.00    -0.063 NA
HETATM   12  N5  UNL     1      46.571   0.285  37.454  1.00  0.00    -0.219 N 
ATOM     13  H5  UNL     1      47.095   1.095  37.123  1.00  0.00     0.178 HD
ENDROOT
BRANCH  12  14
HETATM   14  C4  UNL     1      45.162   0.422  37.531  1.00  0.00     0.130 C 
HETATM   15  C5  UNL     1      44.981   1.773  38.403  1.00  0.00     0.057 C 
HETATM   16 BR1  UNL     1      45.817   1.853  39.973  1.00  0.00    -0.079 Br
HETATM   17  C6  UNL     1      45.067   2.678  37.374  1.00  0.00    -0.008 C 
HETATM   18  C11 UNL     1      43.373   1.670  38.591  1.00  0.00     0.028 C 
HETATM   19  C7  UNL     1      44.824   3.024  36.528  1.00  0.00    -0.029 C 
HETATM   20  C8  UNL     1      44.087   2.982  35.379  1.00  0.00     0.032 C 
HETATM   21  C9  UNL     1      43.327   1.541  36.027  1.00  0.00    -0.001 C 
HETATM   22  C10 UNL     1      42.731   2.030  37.269  1.00  0.00     0.007 C 
HETATM   23  C12 UNL     1      44.407   0.574  36.244  1.00  0.00    -0.021 C 
HETATM   24  C13 UNL     1      45.327   0.524  35.007  1.00  0.00     0.017 C 
HETATM   25  C14 UNL     1      43.653  -0.815  36.064  1.00  0.00     0.017 C 
ENDBRANCH  12  14
TORSDOF 1
ENDMDL
MODEL 2
REMARK VINA RESULT: -5.109471011      8.065      9.629
REMARK  1 active torsions:
REMARK  status: ('A' for Active; 'I' for Inactive)
REMARK       I    between atoms: C2_4  and  N2_5 
REMARK       I    between atoms: C2_4  and  N5_12 
REMARK       I    between atoms: N2_5  and  C3_7 
REMARK    1  A    between atoms: N5_12  and  C4_14 
ROOT
HETATM    1  C1  UNL     1      43.754  -0.749  32.326  1.00  0.00     0.165 C 
HETATM    2  N1  UNL     1      42.417  -1.099  31.903  1.00  0.00    -0.231 N 
ATOM      3  H1  UNL     1      41.610  -0.750  32.420  1.00  0.00     0.177 HD
HETATM    4  C2  UNL     1      42.246  -1.850  30.878  1.00  0.00     0.676 C 
HETATM    5  N2  UNL     1      43.387  -2.329  30.167  1.00  0.00    -0.164 N 
ATOM      6  H2  UNL     1      43.978  -3.020  30.630  1.00  0.00     0.187 HD
HETATM    7  C3  UNL     1      43.756  -1.916  28.866  1.00  0.00     0.200 C 
HETATM    8  N3  UNL     1      43.697  -0.672  28.566  1.00  0.00    -0.373 N 
ATOM      9  H31 UNL     1      43.963  -0.374  27.627  1.00  0.00     0.158 HD
ATOM     10  H32 UNL     1      43.382  -0.023  29.287  1.00  0.00     0.158 HD
HETATM   11  N4  UNL     1      44.191  -2.815  27.868  1.00  0.00    -0.063 NA
HETATM   12  N5  UNL     1      40.916  -2.181  30.457  1.00  0.00    -0.219 N 
ATOM     13  H5  UNL     1      40.733  -2.160  29.454  1.00  0.00     0.178 HD
ENDROOT
BRANCH  12  14
HETATM   14  C4  UNL     1      39.831  -2.536  31.298  1.00  0.00     0.130 C 
HETATM   15  C5  UNL     1      38.777  -1.334  31.049  1.00  0.00     0.057 C 
HETATM   16 BR1  UNL     1      39.367   0.331  31.268  1.00  0.00    -0.079 Br
HETATM   17  C6  UNL     1      38.156  -1.851  29.938  1.00  0.00    -0.008 C 
HETATM   18  C11 UNL     1      37.727  -1.750  32.212  1.00  0.00     0.028 C 
HETATM   19  C7  UNL     1      37.709  -2.531  29.459  1.00  0.00    -0.029 C 
HETATM   20  C8  UNL     1      37.177  -3.786  29.367  1.00  0.00     0.032 C 
HETATM   21  C9  UNL     1      37.690  -4.027  31.025  1.00  0.00    -0.001 C 
HETATM   22  C10 UNL     1      36.970  -2.971  31.735  1.00  0.00     0.007 C 
HETATM   23  C12 UNL     1      39.144  -3.842  31.033  1.00  0.00    -0.021 C 
HETATM   24  C13 UNL     1      39.780  -4.620  29.862  1.00  0.00     0.017 C 
HETATM   25  C14 UNL     1      39.594  -4.776  32.239  1.00  0.00     0.017 C 
ENDBRANCH  12  14
TORSDOF 1
ENDMDL
MODEL 3
REMARK VINA RESULT: -5.045701348      3.724      5.498
REMARK  1 active torsions:
REMARK  status: ('A' for Active; 'I' for Inactive)
REMARK       I    between atoms: C2_4  and  N2_5 
REMARK       I    between atoms: C2_4  and  N5_12 
REMARK       I    between atoms: N2_5  and  C3_7 
REMARK    1  A    between atoms: N5_12  and  C4_14 
ROOT
HETATM    1  C1  UNL     1      42.260  -2.872  35.703  1.00  0.00     0.165 C 
HETATM    2  N1  UNL     1      42.901  -1.608  35.991  1.00  0.00    -0.231 N 
ATOM      3  H1  UNL     1      43.849  -1.590  36.367  1.00  0.00     0.177 HD
HETATM    4  C2  UNL     1      42.277  -0.510  35.774  1.00  0.00     0.676 C 
HETATM    5  N2  UNL     1      40.951  -0.553  35.246  1.00  0.00    -0.164 N 
ATOM      6  H2  UNL     1      40.212  -0.906  35.854  1.00  0.00     0.187 HD
HETATM    7  C3  UNL     1      40.589  -0.142  33.943  1.00  0.00     0.200 C 
HETATM    8  N3  UNL     1      41.334  -0.476  32.954  1.00  0.00    -0.373 N 
ATOM      9  H31 UNL     1      41.072  -0.179  32.014  1.00  0.00     0.158 HD
ATOM     10  H32 UNL     1      42.166  -1.031  33.151  1.00  0.00     0.158 HD
HETATM   11  N4  UNL     1      39.438   0.627  33.670  1.00  0.00    -0.063 NA
HETATM   12  N5  UNL     1      42.924   0.739  36.050  1.00  0.00    -0.219 N 
ATOM     13  H5  UNL     1      42.800   1.483  35.362  1.00  0.00     0.178 HD
ENDROOT
BRANCH  12  14
HETATM   14  C4  UNL     1      43.721   1.042  37.183  1.00  0.00     0.130 C 
HETATM   15  C5  UNL     1      45.108   1.548  36.522  1.00  0.00     0.057 C 
HETATM   16 BR1  UNL     1      45.889   0.474  35.336  1.00  0.00    -0.079 Br
HETATM   17  C6  UNL     1      44.765   2.865  36.343  1.00  0.00    -0.008 C 
HETATM   18  C11 UNL     1      45.961   1.634  37.898  1.00  0.00     0.028 C 
HETATM   19  C7  UNL     1      44.436   3.702  36.636  1.00  0.00    -0.029 C 
HETATM   20  C8  UNL     1      43.932   4.522  37.604  1.00  0.00     0.032 C 
HETATM   21  C9  UNL     1      44.054   3.158  38.697  1.00  0.00    -0.001 C 
HETATM   22  C10 UNL     1      45.483   2.852  38.660  1.00  0.00     0.007 C 
HETATM   23  C12 UNL     1      43.220   2.099  38.122  1.00  0.00    -0.021 C 
HETATM   24  C13 UNL     1      41.857   2.678  37.690  1.00  0.00     0.017 C 
HETATM   25  C14 UNL     1      42.763   1.294  39.415  1.00  0.00     0.017 C 
ENDBRANCH  12  14
TORSDOF 1
ENDMDL
MODEL 4
REMARK VINA RESULT: -4.969447305      7.176      8.825
REMARK  1 active torsions:
REMARK  status: ('A' for Active; 'I' for Inactive)
REMARK       I    between atoms: C2_4  and  N2_5 
REMARK       I    between atoms: C2_4  and  N5_12 
REMARK       I    between atoms: N2_5  and  C3_7 
REMARK    1  A    between atoms: N5_12  and  C4_14 
ROOT
HETATM    1  C1  UNL     1      43.929  -1.921  27.970  1.00  0.00     0.165 C 
HETATM    2  N1  UNL     1      42.929  -1.812  29.008  1.00  0.00    -0.231 N 
ATOM      3  H1  UNL     1      42.383  -0.957  29.104  1.00  0.00     0.177 HD
HETATM    4  C2  UNL     1      42.730  -2.793  29.809  1.00  0.00     0.676 C 
HETATM    5  N2  UNL     1      43.504  -3.983  29.661  1.00  0.00    -0.164 N 
ATOM      6  H2  UNL     1      44.496  -3.935  29.894  1.00  0.00     0.187 HD
HETATM    7  C3  UNL     1      42.994  -5.224  29.214  1.00  0.00     0.200 C 
HETATM    8  N3  UNL     1      42.187  -5.246  28.219  1.00  0.00    -0.373 N 
ATOM      9  H31 UNL     1      41.820  -6.141  27.897  1.00  0.00     0.158 HD
ATOM     10  H32 UNL     1      41.944  -4.356  27.784  1.00  0.00     0.158 HD
HETATM   11  N4  UNL     1      43.330  -6.456  29.816  1.00  0.00    -0.063 NA
HETATM   12  N5  UNL     1      41.727  -2.683  30.827  1.00  0.00    -0.219 N 
ATOM     13  H5  UNL     1      41.137  -3.501  30.982  1.00  0.00     0.178 HD
ENDROOT
BRANCH  12  14
HETATM   14  C4  UNL     1      41.474  -1.549  31.640  1.00  0.00     0.130 C 
HETATM   15  C5  UNL     1      39.859  -1.454  31.629  1.00  0.00     0.057 C 
HETATM   16 BR1  UNL     1      39.051  -1.420  30.043  1.00  0.00    -0.079 Br
HETATM   17  C6  UNL     1      39.609  -2.319  32.665  1.00  0.00    -0.008 C 
HETATM   18  C11 UNL     1      39.742  -0.024  32.386  1.00  0.00     0.028 C 
HETATM   19  C7  UNL     1      39.724  -2.640  33.547  1.00  0.00    -0.029 C 
HETATM   20  C8  UNL     1      40.293  -2.569  34.787  1.00  0.00     0.032 C 
HETATM   21  C9  UNL     1      41.150  -1.152  34.213  1.00  0.00    -0.001 C 
HETATM   22  C10 UNL     1      40.060  -0.250  33.848  1.00  0.00     0.007 C 
HETATM   23  C12 UNL     1      41.945  -1.594  33.063  1.00  0.00    -0.021 C 
HETATM   24  C13 UNL     1      42.678  -2.909  33.404  1.00  0.00     0.017 C 
HETATM   25  C14 UNL     1      43.178  -0.591  33.103  1.00  0.00     0.017 C 
ENDBRANCH  12  14
TORSDOF 1
ENDMDL
MODEL 5
REMARK VINA RESULT: -4.947587553      7.640      8.816
REMARK  1 active torsions:
REMARK  status: ('A' for Active; 'I' for Inactive)
REMARK       I    between atoms: C2_4  and  N2_5 
REMARK       I    between atoms: C2_4  and  N5_12 
REMARK       I    between atoms: N2_5  and  C3_7 
REMARK    1  A    between atoms: N5_12  and  C4_14 
ROOT
HETATM    1  C1  UNL     1      43.798  -9.945  32.471  1.00  0.00     0.165 C 
HETATM    2  N1  UNL     1      43.346  -8.572  32.463  1.00  0.00    -0.231 N 
ATOM      3  H1  UNL     1      42.358  -8.359  32.600  1.00  0.00     0.177 HD
HETATM    4  C2  UNL     1      44.188  -7.623  32.282  1.00  0.00     0.676 C 
HETATM    5  N2  UNL     1      45.567  -7.940  32.093  1.00  0.00    -0.164 N 
ATOM      6  H2  UNL     1      45.831  -8.400  31.222  1.00  0.00     0.187 HD
HETATM    7  C3  UNL     1      46.592  -7.661  33.025  1.00  0.00     0.200 C 
HETATM    8  N3  UNL     1      46.384  -7.888  34.269  1.00  0.00    -0.373 N 
ATOM      9  H31 UNL     1      47.125  -7.687  34.941  1.00  0.00     0.158 HD
ATOM     10  H32 UNL     1      45.476  -8.267  34.538  1.00  0.00     0.158 HD
HETATM   11  N4  UNL     1      47.849  -7.136  32.653  1.00  0.00    -0.063 NA
HETATM   12  N5  UNL     1      43.734  -6.263  32.289  1.00  0.00    -0.219 N 
ATOM     13  H5  UNL     1      44.316  -5.586  32.782  1.00  0.00     0.178 HD
ENDROOT
BRANCH  12  14
HETATM   14  C4  UNL     1      42.555  -5.766  31.676  1.00  0.00     0.130 C 
HETATM   15  C5  UNL     1      41.949  -4.785  32.811  1.00  0.00     0.057 C 
HETATM   16 BR1  UNL     1      41.705  -5.466  34.437  1.00  0.00    -0.079 Br
HETATM   17  C6  UNL     1      42.658  -3.655  32.486  1.00  0.00    -0.008 C 
HETATM   18  C11 UNL     1      40.535  -4.485  32.074  1.00  0.00     0.028 C 
HETATM   19  C7  UNL     1      42.973  -2.997  31.885  1.00  0.00    -0.029 C 
HETATM   20  C8  UNL     1      43.051  -2.449  30.636  1.00  0.00     0.032 C 
HETATM   21  C9  UNL     1      42.001  -3.744  30.100  1.00  0.00    -0.001 C 
HETATM   22  C10 UNL     1      40.808  -3.544  30.921  1.00  0.00     0.007 C 
HETATM   23  C12 UNL     1      42.708  -4.993  30.401  1.00  0.00    -0.021 C 
HETATM   24  C13 UNL     1      44.177  -4.891  29.941  1.00  0.00     0.017 C 
HETATM   25  C14 UNL     1      42.151  -5.972  29.277  1.00  0.00     0.017 C 
ENDBRANCH  12  14
TORSDOF 1
ENDMDL
