MODEL 1
REMARK VINA RESULT: -7.783060951      0.000      0.000
REMARK  2 active torsions:
REMARK  status: ('A' for Active; 'I' for Inactive)
REMARK       I    between atoms: C2_2  and  N1_4 
REMARK       I    between atoms: C3_6  and  N3_8 
REMARK    1  A    between atoms: N3_8  and  C4_10 
REMARK    2  A    between atoms: C4_10  and  C5_11 
REMARK       I    between atoms: N4_21  and  C14_22 
ROOT
HETATM    1  C5  UNL     1      42.002  -4.541  30.418  1.00  0.00     0.005 C 
HETATM    2  C6  UNL     1      41.033  -5.546  30.888  1.00  0.00     0.010 C 
HETATM    3  C7  UNL     1      39.649  -5.376  30.214  1.00  0.00     0.027 C 
HETATM    4  C8  UNL     1      38.527  -5.528  31.166  1.00  0.00    -0.031 C 
HETATM    5  C9  UNL     1      37.724  -4.423  31.612  1.00  0.00    -0.031 C 
HETATM    6  C10 UNL     1      37.616  -3.152  30.874  1.00  0.00     0.027 C 
HETATM    7  C11 UNL     1      38.084  -1.920  31.694  1.00  0.00     0.008 C 
HETATM    8  C12 UNL     1      39.538  -2.091  31.752  1.00  0.00     0.059 C 
HETATM    9  C13 UNL     1      40.453  -1.125  32.342  1.00  0.00     0.273 C 
HETATM   10  F1  UNL     1      40.399   0.149  31.865  1.00  0.00    -0.227 F 
HETATM   11  N4  UNL     1      41.798  -1.653  32.020  1.00  0.00    -0.325 N 
HETATM   12  C14 UNL     1      42.737  -0.884  31.286  1.00  0.00     0.186 C 
HETATM   13  N5  UNL     1      42.659  -0.775  30.003  1.00  0.00    -0.374 N 
ATOM     14  H51 UNL     1      43.335  -0.222  29.475  1.00  0.00     0.158 HD
ATOM     15  H52 UNL     1      41.915  -1.242  29.485  1.00  0.00     0.158 HD
HETATM   16  N6  UNL     1      43.774  -0.232  32.007  1.00  0.00    -0.064 NA
HETATM   17  C15 UNL     1      42.234  -2.982  32.434  1.00  0.00     0.129 C 
HETATM   18  C16 UNL     1      42.828  -3.817  31.376  1.00  0.00     0.026 C 
ENDROOT
BRANCH   1  19
HETATM   19  C4  UNL     1      42.954  -5.218  29.419  1.00  0.00     0.127 C 
BRANCH  19  20
HETATM   20  N3  UNL     1      42.563  -4.902  28.061  1.00  0.00    -0.364 N 
HETATM   21  C3  UNL     1      43.151  -3.851  27.315  1.00  0.00     0.190 C 
HETATM   22  N1  UNL     1      43.864  -4.165  26.291  1.00  0.00    -0.302 N 
HETATM   23  N2  UNL     1      43.003  -2.475  27.626  1.00  0.00    -0.063 NA
HETATM   24  C2  UNL     1      44.496  -3.190  25.477  1.00  0.00     0.220 C 
ATOM     25  H1  UNL     1      43.980  -5.151  26.057  1.00  0.00     0.171 HD
HETATM   26  C1  UNL     1      44.378  -3.225  23.991  1.00  0.00     0.117 C 
HETATM   27  O1  UNL     1      45.191  -2.242  25.961  1.00  0.00    -0.274 OA
ATOM     28  H3  UNL     1      41.832  -5.461  27.621  1.00  0.00     0.162 HD
ENDBRANCH  19  20
ENDBRANCH   1  19
TORSDOF 2
ENDMDL
MODEL 2
REMARK VINA RESULT: -6.725496787      2.146      2.860
REMARK  2 active torsions:
REMARK  status: ('A' for Active; 'I' for Inactive)
REMARK       I    between atoms: C2_2  and  N1_4 
REMARK       I    between atoms: C3_6  and  N3_8 
REMARK    1  A    between atoms: N3_8  and  C4_10 
REMARK    2  A    between atoms: C4_10  and  C5_11 
REMARK       I    between atoms: N4_21  and  C14_22 
ROOT
HETATM    1  C5  UNL     1      42.346  -2.278  31.455  1.00  0.00     0.005 C 
HETATM    2  C6  UNL     1      41.040  -2.757  30.970  1.00  0.00     0.010 C 
HETATM    3  C7  UNL     1      40.210  -1.621  30.323  1.00  0.00     0.027 C 
HETATM    4  C8  UNL     1      38.785  -1.660  30.718  1.00  0.00    -0.031 C 
HETATM    5  C9  UNL     1      38.195  -0.702  31.613  1.00  0.00    -0.031 C 
HETATM    6  C10 UNL     1      38.775   0.628  31.870  1.00  0.00     0.027 C 
HETATM    7  C11 UNL     1      39.133   0.868  33.361  1.00  0.00     0.008 C 
HETATM    8  C12 UNL     1      40.301   0.006  33.566  1.00  0.00     0.059 C 
HETATM    9  C13 UNL     1      41.073  -0.047  34.798  1.00  0.00     0.273 C 
HETATM   10  F1  UNL     1      41.582   1.128  35.260  1.00  0.00    -0.227 F 
HETATM   11  N4  UNL     1      42.223  -0.920  34.470  1.00  0.00    -0.325 N 
HETATM   12  C14 UNL     1      43.559  -0.461  34.601  1.00  0.00     0.186 C 
HETATM   13  N5  UNL     1      44.099   0.298  33.709  1.00  0.00    -0.374 N 
ATOM     14  H51 UNL     1      45.060   0.627  33.804  1.00  0.00     0.158 HD
ATOM     15  H52 UNL     1      43.573   0.588  32.885  1.00  0.00     0.158 HD
HETATM   16  N6  UNL     1      44.293  -0.865  35.750  1.00  0.00    -0.064 NA
HETATM   17  C15 UNL     1      42.054  -2.289  33.998  1.00  0.00     0.129 C 
HETATM   18  C16 UNL     1      42.813  -2.645  32.787  1.00  0.00     0.026 C 
ENDROOT
BRANCH   1  19
HETATM   19  C4  UNL     1      43.426  -2.725  30.457  1.00  0.00     0.127 C 
BRANCH  19  20
HETATM   20  N3  UNL     1      42.892  -2.735  29.111  1.00  0.00    -0.364 N 
HETATM   21  C3  UNL     1      43.584  -2.188  28.003  1.00  0.00     0.190 C 
HETATM   22  N1  UNL     1      43.998  -2.997  27.092  1.00  0.00    -0.302 N 
HETATM   23  N2  UNL     1      43.851  -0.805  27.835  1.00  0.00    -0.063 NA
HETATM   24  C2  UNL     1      44.701  -2.553  25.943  1.00  0.00     0.220 C 
ATOM     25  H1  UNL     1      43.814  -3.995  27.201  1.00  0.00     0.171 HD
HETATM   26  C1  UNL     1      44.313  -3.001  24.575  1.00  0.00     0.117 C 
HETATM   27  O1  UNL     1      45.690  -1.758  26.012  1.00  0.00    -0.274 OA
ATOM     28  H3  UNL     1      41.975  -3.154  28.953  1.00  0.00     0.162 HD
ENDBRANCH  19  20
ENDBRANCH   1  19
TORSDOF 2
ENDMDL
MODEL 3
REMARK VINA RESULT: -6.490582766      2.541      3.738
REMARK  2 active torsions:
REMARK  status: ('A' for Active; 'I' for Inactive)
REMARK       I    between atoms: C2_2  and  N1_4 
REMARK       I    between atoms: C3_6  and  N3_8 
REMARK    1  A    between atoms: N3_8  and  C4_10 
REMARK    2  A    between atoms: C4_10  and  C5_11 
REMARK       I    between atoms: N4_21  and  C14_22 
ROOT
HETATM    1  C5  UNL     1      40.022  -2.444  31.959  1.00  0.00     0.005 C 
HETATM    2  C6  UNL     1      38.552  -2.463  31.870  1.00  0.00     0.010 C 
HETATM    3  C7  UNL     1      37.990  -1.141  31.290  1.00  0.00     0.027 C 
HETATM    4  C8  UNL     1      36.792  -0.664  32.015  1.00  0.00    -0.031 C 
HETATM    5  C9  UNL     1      36.809   0.481  32.885  1.00  0.00    -0.031 C 
HETATM    6  C10 UNL     1      37.834   1.537  32.811  1.00  0.00     0.027 C 
HETATM    7  C11 UNL     1      38.640   1.708  34.126  1.00  0.00     0.008 C 
HETATM    8  C12 UNL     1      39.476   0.505  34.162  1.00  0.00     0.059 C 
HETATM    9  C13 UNL     1      40.494   0.246  35.170  1.00  0.00     0.273 C 
HETATM   10  F1  UNL     1      41.459   1.191  35.332  1.00  0.00    -0.227 F 
HETATM   11  N4  UNL     1      41.166  -0.987  34.701  1.00  0.00    -0.325 N 
HETATM   12  C14 UNL     1      42.561  -1.015  34.445  1.00  0.00     0.186 C 
HETATM   13  N5  UNL     1      43.054  -0.534  33.354  1.00  0.00    -0.374 N 
ATOM     14  H51 UNL     1      44.057  -0.555  33.171  1.00  0.00     0.158 HD
ATOM     15  H52 UNL     1      42.447  -0.119  32.648  1.00  0.00     0.158 HD
HETATM   16  N6  UNL     1      43.407  -1.593  35.430  1.00  0.00    -0.064 NA
HETATM   17  C15 UNL     1      40.442  -2.233  34.475  1.00  0.00     0.129 C 
HETATM   18  C16 UNL     1      40.688  -2.887  33.178  1.00  0.00     0.026 C 
ENDROOT
BRANCH   1  19
HETATM   19  C4  UNL     1      40.587  -3.287  30.804  1.00  0.00     0.127 C 
BRANCH  19  20
HETATM   20  N3  UNL     1      40.845  -2.447  29.652  1.00  0.00    -0.364 N 
HETATM   21  C3  UNL     1      42.049  -1.723  29.480  1.00  0.00     0.190 C 
HETATM   22  N1  UNL     1      42.832  -2.073  28.522  1.00  0.00    -0.302 N 
HETATM   23  N2  UNL     1      42.447  -0.635  30.300  1.00  0.00    -0.063 NA
HETATM   24  C2  UNL     1      44.061  -1.413  28.264  1.00  0.00     0.220 C 
ATOM     25  H1  UNL     1      42.559  -2.854  27.925  1.00  0.00     0.171 HD
HETATM   26  C1  UNL     1      44.429  -0.965  26.891  1.00  0.00     0.117 C 
HETATM   27  O1  UNL     1      44.910  -1.169  29.178  1.00  0.00    -0.274 OA
ATOM     28  H3  UNL     1      40.126  -2.375  28.930  1.00  0.00     0.162 HD
ENDBRANCH  19  20
ENDBRANCH   1  19
TORSDOF 2
ENDMDL
MODEL 4
REMARK VINA RESULT: -6.377126739      3.446      5.086
REMARK  2 active torsions:
REMARK  status: ('A' for Active; 'I' for Inactive)
REMARK       I    between atoms: C2_2  and  N1_4 
REMARK       I    between atoms: C3_6  and  N3_8 
REMARK    1  A    between atoms: N3_8  and  C4_10 
REMARK    2  A    between atoms: C4_10  and  C5_11 
REMARK       I    between atoms: N4_21  and  C14_22 
ROOT
HETATM    1  C5  UNL     1      41.724  -0.641  32.959  1.00  0.00     0.005 C 
HETATM    2  C6  UNL     1      40.446  -1.002  33.596  1.00  0.00     0.010 C 
HETATM    3  C7  UNL     1      39.591   0.247  33.927  1.00  0.00     0.027 C 
HETATM    4  C8  UNL     1      38.958   0.167  35.261  1.00  0.00    -0.031 C 
HETATM    5  C9  UNL     1      39.386   0.963  36.379  1.00  0.00    -0.031 C 
HETATM    6  C10 UNL     1      40.149   2.215  36.234  1.00  0.00     0.027 C 
HETATM    7  C11 UNL     1      41.531   2.181  36.940  1.00  0.00     0.008 C 
HETATM    8  C12 UNL     1      42.314   1.274  36.096  1.00  0.00     0.059 C 
HETATM    9  C13 UNL     1      43.727   0.989  36.290  1.00  0.00     0.273 C 
HETATM   10  F1  UNL     1      44.575   2.054  36.316  1.00  0.00    -0.227 F 
HETATM   11  N4  UNL     1      44.098   0.165  35.118  1.00  0.00    -0.325 N 
HETATM   12  C14 UNL     1      45.129   0.567  34.230  1.00  0.00     0.186 C 
HETATM   13  N5  UNL     1      44.923   1.461  33.323  1.00  0.00    -0.374 N 
ATOM     14  H51 UNL     1      45.665   1.749  32.684  1.00  0.00     0.158 HD
ATOM     15  H52 UNL     1      44.009   1.902  33.225  1.00  0.00     0.158 HD
HETATM   16  N6  UNL     1      46.403  -0.047  34.366  1.00  0.00    -0.064 NA
HETATM   17  C15 UNL     1      43.434  -1.096  34.808  1.00  0.00     0.129 C 
HETATM   18  C16 UNL     1      42.968  -1.247  33.419  1.00  0.00     0.026 C 
ENDROOT
BRANCH   1  19
HETATM   19  C4  UNL     1      41.611  -0.927  31.453  1.00  0.00     0.127 C 
BRANCH  19  20
HETATM   20  N3  UNL     1      42.912  -0.823  30.825  1.00  0.00    -0.364 N 
HETATM   21  C3  UNL     1      43.321  -1.657  29.756  1.00  0.00     0.190 C 
HETATM   22  N1  UNL     1      43.499  -1.116  28.603  1.00  0.00    -0.302 N 
HETATM   23  N2  UNL     1      43.546  -3.053  29.877  1.00  0.00    -0.063 NA
HETATM   24  C2  UNL     1      43.908  -1.861  27.467  1.00  0.00     0.220 C 
ATOM     25  H1  UNL     1      43.340  -0.113  28.501  1.00  0.00     0.171 HD
HETATM   26  C1  UNL     1      45.031  -1.403  26.601  1.00  0.00     0.117 C 
HETATM   27  O1  UNL     1      43.348  -2.950  27.127  1.00  0.00    -0.274 OA
ATOM     28  H3  UNL     1      43.564  -0.117  31.167  1.00  0.00     0.162 HD
ENDBRANCH  19  20
ENDBRANCH   1  19
TORSDOF 2
ENDMDL
MODEL 5
REMARK VINA RESULT: -6.347690236      3.353      4.350
REMARK  2 active torsions:
REMARK  status: ('A' for Active; 'I' for Inactive)
REMARK       I    between atoms: C2_2  and  N1_4 
REMARK       I    between atoms: C3_6  and  N3_8 
REMARK    1  A    between atoms: N3_8  and  C4_10 
REMARK    2  A    between atoms: C4_10  and  C5_11 
REMARK       I    between atoms: N4_21  and  C14_22 
ROOT
HETATM    1  C5  UNL     1      42.595  -4.805  30.853  1.00  0.00     0.005 C 
HETATM    2  C6  UNL     1      41.489  -5.754  31.066  1.00  0.00     0.010 C 
HETATM    3  C7  UNL     1      40.525  -5.802  29.855  1.00  0.00     0.027 C 
HETATM    4  C8  UNL     1      39.102  -5.831  30.258  1.00  0.00    -0.031 C 
HETATM    5  C9  UNL     1      38.219  -4.710  30.091  1.00  0.00    -0.031 C 
HETATM    6  C10 UNL     1      38.472  -3.617  29.135  1.00  0.00     0.027 C 
HETATM    7  C11 UNL     1      38.585  -2.222  29.806  1.00  0.00     0.008 C 
HETATM    8  C12 UNL     1      39.873  -2.292  30.502  1.00  0.00     0.059 C 
HETATM    9  C13 UNL     1      40.481  -1.176  31.211  1.00  0.00     0.273 C 
HETATM   10  F1  UNL     1      40.672  -0.026  30.508  1.00  0.00    -0.227 F 
HETATM   11  N4  UNL     1      41.819  -1.676  31.598  1.00  0.00    -0.325 N 
HETATM   12  C14 UNL     1      43.004  -1.012  31.186  1.00  0.00     0.186 C 
HETATM   13  N5  UNL     1      43.479  -1.162  29.996  1.00  0.00    -0.374 N 
ATOM     14  H51 UNL     1      44.330  -0.685  29.700  1.00  0.00     0.158 HD
ATOM     15  H52 UNL     1      43.009  -1.765  29.321  1.00  0.00     0.158 HD
HETATM   16  N6  UNL     1      43.658  -0.171  32.126  1.00  0.00    -0.064 NA
HETATM   17  C15 UNL     1      42.000  -2.869  32.417  1.00  0.00     0.129 C 
HETATM   18  C16 UNL     1      42.960  -3.859  31.900  1.00  0.00     0.026 C 
ENDROOT
BRANCH   1  19
HETATM   19  C4  UNL     1      43.860  -5.608  30.507  1.00  0.00     0.127 C 
BRANCH  19  20
HETATM   20  N3  UNL     1      43.989  -6.746  31.393  1.00  0.00    -0.364 N 
HETATM   21  C3  UNL     1      44.791  -7.873  31.088  1.00  0.00     0.190 C 
HETATM   22  N1  UNL     1      45.836  -8.082  31.809  1.00  0.00    -0.302 N 
HETATM   23  N2  UNL     1      44.516  -8.785  30.036  1.00  0.00    -0.063 NA
HETATM   24  C2  UNL     1      46.705  -9.181  31.588  1.00  0.00     0.220 C 
ATOM     25  H1  UNL     1      46.047  -7.434  32.568  1.00  0.00     0.171 HD
HETATM   26  C1  UNL     1      47.141 -10.063  32.707  1.00  0.00     0.117 C 
HETATM   27  O1  UNL     1      47.157  -9.473  30.437  1.00  0.00    -0.274 OA
ATOM     28  H3  UNL     1      43.480  -6.736  32.277  1.00  0.00     0.162 HD
ENDBRANCH  19  20
ENDBRANCH   1  19
TORSDOF 2
ENDMDL
