MODEL 1
REMARK VINA RESULT: -6.279619568      0.000      0.000
REMARK  2 active torsions:
REMARK  status: ('A' for Active; 'I' for Inactive)
REMARK    1  A    between atoms: C8_8  and  N1_9 
REMARK       I    between atoms: N1_9  and  C9_11 
REMARK       I    between atoms: C9_11  and  N2_13 
REMARK       I    between atoms: N2_13  and  C10_15 
REMARK       I    between atoms: C10_15  and  N3_16 
REMARK       I    between atoms: C10_15  and  N4_19 
REMARK    2  A    between atoms: C11_21  and  C12_22 
ROOT
HETATM    1  N1  UNL     1      41.294  -1.619  30.917  1.00  0.00    -0.337 N 
ATOM      2  H1  UNL     1      40.668  -2.220  30.383  1.00  0.00     0.164 HD
HETATM    3  C9  UNL     1      42.508  -1.152  30.348  1.00  0.00     0.334 C 
HETATM    4  O1  UNL     1      43.304  -0.429  30.983  1.00  0.00    -0.246 OA
HETATM    5  N2  UNL     1      42.905  -1.504  28.984  1.00  0.00    -0.142 N 
ATOM      6  H2  UNL     1      42.288  -2.047  28.380  1.00  0.00     0.189 HD
HETATM    7  C10 UNL     1      44.142  -1.078  28.541  1.00  0.00     0.679 C 
HETATM    8  N3  UNL     1      45.176  -0.721  28.171  1.00  0.00    -0.234 N 
ATOM      9  H31 UNL     1      46.090  -0.406  27.843  1.00  0.00     0.174 HD
ATOM     10  H32 UNL     1      45.320  -0.310  29.093  1.00  0.00     0.174 HD
HETATM   11  N4  UNL     1      43.894  -1.795  26.934  1.00  0.00    -0.205 N 
ATOM     12  H4  UNL     1      43.599  -1.355  26.061  1.00  0.00     0.183 HD
HETATM   13  C11 UNL     1      44.186  -3.005  27.176  1.00  0.00     0.089 C 
ENDROOT
BRANCH   1  14
HETATM   14  C8  UNL     1      40.967  -1.228  32.257  1.00  0.00     0.096 C 
HETATM   15  C7  UNL     1      40.171  -0.050  32.573  1.00  0.00     0.022 C 
HETATM   16  C2  UNL     1      39.445  -0.862  33.626  1.00  0.00    -0.015 C 
HETATM   17  C6  UNL     1      39.181   0.341  31.480  1.00  0.00     0.016 C 
HETATM   18  C1  UNL     1      40.125  -0.900  34.957  1.00  0.00     0.020 C 
HETATM   19  C3  UNL     1      38.012  -0.601  33.751  1.00  0.00    -0.020 C 
HETATM   20  C13 UNL     1      39.723  -2.081  32.755  1.00  0.00     0.022 C 
HETATM   21  C4  UNL     1      37.274  -0.536  32.620  1.00  0.00    -0.025 C 
HETATM   22  C5  UNL     1      38.135  -0.755  31.399  1.00  0.00     0.009 C 
HETATM   23  C14 UNL     1      38.783  -2.126  31.617  1.00  0.00     0.016 C 
ENDBRANCH   1  14
BRANCH  13  24
HETATM   24  C12 UNL     1      44.095  -3.977  26.015  1.00  0.00     0.130 C 
HETATM   25 BR1  UNL     1      44.408  -3.045  24.398  1.00  0.00    -0.091 Br
ENDBRANCH  13  24
TORSDOF 2
ENDMDL
MODEL 2
REMARK VINA RESULT: -6.240546184      6.496      8.229
REMARK  2 active torsions:
REMARK  status: ('A' for Active; 'I' for Inactive)
REMARK    1  A    between atoms: C8_8  and  N1_9 
REMARK       I    between atoms: N1_9  and  C9_11 
REMARK       I    between atoms: C9_11  and  N2_13 
REMARK       I    between atoms: N2_13  and  C10_15 
REMARK       I    between atoms: C10_15  and  N3_16 
REMARK       I    between atoms: C10_15  and  N4_19 
REMARK    2  A    between atoms: C11_21  and  C12_22 
ROOT
HETATM    1  N1  UNL     1      43.878  -7.772  30.434  1.00  0.00    -0.337 N 
ATOM      2  H1  UNL     1      44.552  -8.036  29.716  1.00  0.00     0.164 HD
HETATM    3  C9  UNL     1      42.997  -6.678  30.232  1.00  0.00     0.334 C 
HETATM    4  O1  UNL     1      42.174  -6.320  31.100  1.00  0.00    -0.246 OA
HETATM    5  N2  UNL     1      43.013  -5.894  28.997  1.00  0.00    -0.142 N 
ATOM      6  H2  UNL     1      43.618  -6.151  28.217  1.00  0.00     0.189 HD
HETATM    7  C10 UNL     1      42.182  -4.793  28.920  1.00  0.00     0.679 C 
HETATM    8  N3  UNL     1      41.487  -3.872  28.855  1.00  0.00    -0.234 N 
ATOM      9  H31 UNL     1      40.874  -3.060  28.799  1.00  0.00     0.174 HD
ATOM     10  H32 UNL     1      41.192  -4.080  29.809  1.00  0.00     0.174 HD
HETATM   11  N4  UNL     1      42.696  -4.431  27.257  1.00  0.00    -0.205 N 
ATOM     12  H4  UNL     1      42.240  -4.648  26.371  1.00  0.00     0.183 HD
HETATM   13  C11 UNL     1      43.790  -3.828  27.482  1.00  0.00     0.089 C 
ENDROOT
BRANCH   1  14
HETATM   14  C8  UNL     1      43.801  -8.499  31.668  1.00  0.00     0.096 C 
HETATM   15  C7  UNL     1      44.275  -9.868  31.819  1.00  0.00     0.022 C 
HETATM   16  C2  UNL     1      44.864  -9.484  33.161  1.00  0.00    -0.015 C 
HETATM   17  C6  UNL     1      45.409 -10.240  30.869  1.00  0.00     0.016 C 
HETATM   18  C1  UNL     1      43.905  -9.568  34.305  1.00  0.00     0.020 C 
HETATM   19  C3  UNL     1      46.154 -10.089  33.482  1.00  0.00    -0.020 C 
HETATM   20  C13 UNL     1      45.024  -8.080  32.591  1.00  0.00     0.022 C 
HETATM   21  C4  UNL     1      47.116 -10.086  32.531  1.00  0.00    -0.025 C 
HETATM   22  C5  UNL     1      46.624  -9.424  31.267  1.00  0.00     0.009 C 
HETATM   23  C14 UNL     1      46.200  -8.016  31.700  1.00  0.00     0.016 C 
ENDBRANCH   1  14
BRANCH  13  24
HETATM   24  C12 UNL     1      44.564  -3.339  26.273  1.00  0.00     0.130 C 
HETATM   25 BR1  UNL     1      44.588  -1.448  26.274  1.00  0.00    -0.091 Br
ENDBRANCH  13  24
TORSDOF 2
ENDMDL
MODEL 3
REMARK VINA RESULT: -6.209794762      5.084      7.256
REMARK  2 active torsions:
REMARK  status: ('A' for Active; 'I' for Inactive)
REMARK    1  A    between atoms: C8_8  and  N1_9 
REMARK       I    between atoms: N1_9  and  C9_11 
REMARK       I    between atoms: C9_11  and  N2_13 
REMARK       I    between atoms: N2_13  and  C10_15 
REMARK       I    between atoms: C10_15  and  N3_16 
REMARK       I    between atoms: C10_15  and  N4_19 
REMARK    2  A    between atoms: C11_21  and  C12_22 
ROOT
HETATM    1  N1  UNL     1      43.283  -0.705  32.484  1.00  0.00    -0.337 N 
ATOM      2  H1  UNL     1      42.388  -0.879  32.940  1.00  0.00     0.164 HD
HETATM    3  C9  UNL     1      44.312   0.004  33.156  1.00  0.00     0.334 C 
HETATM    4  O1  UNL     1      45.412   0.247  32.617  1.00  0.00    -0.246 OA
HETATM    5  N2  UNL     1      44.138   0.506  34.520  1.00  0.00    -0.142 N 
ATOM      6  H2  UNL     1      43.290   0.305  35.050  1.00  0.00     0.189 HD
HETATM    7  C10 UNL     1      45.158   1.260  35.066  1.00  0.00     0.679 C 
HETATM    8  N3  UNL     1      46.011   1.891  35.523  1.00  0.00    -0.234 N 
ATOM      9  H31 UNL     1      46.765   2.448  35.926  1.00  0.00     0.174 HD
ATOM     10  H32 UNL     1      46.507   1.787  34.638  1.00  0.00     0.174 HD
HETATM   11  N4  UNL     1      44.295   1.441  36.610  1.00  0.00    -0.205 N 
ATOM     12  H4  UNL     1      44.409   0.930  37.485  1.00  0.00     0.183 HD
HETATM   13  C11 UNL     1      43.498   2.383  36.317  1.00  0.00     0.089 C 
ENDROOT
BRANCH   1  14
HETATM   14  C8  UNL     1      43.528  -1.172  31.150  1.00  0.00     0.096 C 
HETATM   15  C7  UNL     1      43.360  -2.562  30.748  1.00  0.00     0.022 C 
HETATM   16  C2  UNL     1      42.718  -2.081  29.463  1.00  0.00    -0.015 C 
HETATM   17  C6  UNL     1      42.323  -3.324  31.566  1.00  0.00     0.016 C 
HETATM   18  C1  UNL     1      43.685  -1.761  28.369  1.00  0.00     0.020 C 
HETATM   19  C3  UNL     1      41.591  -2.877  28.982  1.00  0.00    -0.020 C 
HETATM   20  C13 UNL     1      42.254  -0.863  30.253  1.00  0.00     0.022 C 
HETATM   21  C4  UNL     1      40.640  -3.241  29.873  1.00  0.00    -0.025 C 
HETATM   22  C5  UNL     1      40.965  -2.723  31.253  1.00  0.00     0.009 C 
HETATM   23  C14 UNL     1      41.081  -1.204  31.084  1.00  0.00     0.016 C 
ENDBRANCH   1  14
BRANCH  13  24
HETATM   24  C12 UNL     1      42.556   2.849  37.411  1.00  0.00     0.130 C 
HETATM   25 BR1  UNL     1      43.170   4.502  38.097  1.00  0.00    -0.091 Br
ENDBRANCH  13  24
TORSDOF 2
ENDMDL
MODEL 4
REMARK VINA RESULT: -6.036761841      2.237      3.099
REMARK  2 active torsions:
REMARK  status: ('A' for Active; 'I' for Inactive)
REMARK    1  A    between atoms: C8_8  and  N1_9 
REMARK       I    between atoms: N1_9  and  C9_11 
REMARK       I    between atoms: C9_11  and  N2_13 
REMARK       I    between atoms: N2_13  and  C10_15 
REMARK       I    between atoms: C10_15  and  N3_16 
REMARK       I    between atoms: C10_15  and  N4_19 
REMARK    2  A    between atoms: C11_21  and  C12_22 
ROOT
HETATM    1  N1  UNL     1      39.733  -1.606  29.708  1.00  0.00    -0.337 N 
ATOM      2  H1  UNL     1      39.467  -1.432  28.740  1.00  0.00     0.164 HD
HETATM    3  C9  UNL     1      41.089  -1.510  30.115  1.00  0.00     0.334 C 
HETATM    4  O1  UNL     1      41.447  -1.734  31.290  1.00  0.00    -0.246 OA
HETATM    5  N2  UNL     1      42.152  -1.155  29.174  1.00  0.00    -0.142 N 
ATOM      6  H2  UNL     1      41.939  -0.906  28.208  1.00  0.00     0.189 HD
HETATM    7  C10 UNL     1      43.454  -1.170  29.635  1.00  0.00     0.679 C 
HETATM    8  N3  UNL     1      44.543  -1.182  30.021  1.00  0.00    -0.234 N 
ATOM      9  H31 UNL     1      45.505  -1.192  30.361  1.00  0.00     0.174 HD
ATOM     10  H32 UNL     1      44.177  -1.488  30.922  1.00  0.00     0.174 HD
HETATM   11  N4  UNL     1      44.092  -0.636  28.065  1.00  0.00    -0.205 N 
ATOM     12  H4  UNL     1      44.373   0.296  27.756  1.00  0.00     0.183 HD
HETATM   13  C11 UNL     1      44.102  -1.737  27.435  1.00  0.00     0.089 C 
ENDROOT
BRANCH   1  14
HETATM   14  C8  UNL     1      38.744  -1.951  30.687  1.00  0.00     0.096 C 
HETATM   15  C7  UNL     1      37.312  -1.928  30.419  1.00  0.00     0.022 C 
HETATM   16  C2  UNL     1      37.178  -3.228  31.183  1.00  0.00    -0.015 C 
HETATM   17  C6  UNL     1      36.951  -2.172  28.957  1.00  0.00     0.016 C 
HETATM   18  C1  UNL     1      37.020  -3.065  32.661  1.00  0.00     0.020 C 
HETATM   19  C3  UNL     1      36.225  -4.190  30.634  1.00  0.00    -0.020 C 
HETATM   20  C13 UNL     1      38.606  -3.533  30.745  1.00  0.00     0.022 C 
HETATM   21  C4  UNL     1      36.256  -4.431  29.303  1.00  0.00    -0.025 C 
HETATM   22  C5  UNL     1      37.325  -3.606  28.630  1.00  0.00     0.009 C 
HETATM   23  C14 UNL     1      38.626  -3.992  29.341  1.00  0.00     0.016 C 
ENDBRANCH   1  14
BRANCH  13  24
HETATM   24  C12 UNL     1      44.601  -1.703  26.003  1.00  0.00     0.130 C 
HETATM   25 BR1  UNL     1      44.348  -3.405  25.216  1.00  0.00    -0.091 Br
ENDBRANCH  13  24
TORSDOF 2
ENDMDL
MODEL 5
REMARK VINA RESULT: -6.002202478      6.145      8.262
REMARK  2 active torsions:
REMARK  status: ('A' for Active; 'I' for Inactive)
REMARK    1  A    between atoms: C8_8  and  N1_9 
REMARK       I    between atoms: N1_9  and  C9_11 
REMARK       I    between atoms: C9_11  and  N2_13 
REMARK       I    between atoms: N2_13  and  C10_15 
REMARK       I    between atoms: C10_15  and  N3_16 
REMARK       I    between atoms: C10_15  and  N4_19 
REMARK    2  A    between atoms: C11_21  and  C12_22 
ROOT
HETATM    1  N1  UNL     1      43.805  -7.278  30.028  1.00  0.00    -0.337 N 
ATOM      2  H1  UNL     1      44.720  -7.123  29.605  1.00  0.00     0.164 HD
HETATM    3  C9  UNL     1      42.752  -6.346  29.836  1.00  0.00     0.334 C 
HETATM    4  O1  UNL     1      41.626  -6.500  30.354  1.00  0.00    -0.246 OA
HETATM    5  N2  UNL     1      42.929  -5.139  29.027  1.00  0.00    -0.142 N 
ATOM      6  H2  UNL     1      43.800  -4.964  28.526  1.00  0.00     0.189 HD
HETATM    7  C10 UNL     1      41.879  -4.244  28.965  1.00  0.00     0.679 C 
HETATM    8  N3  UNL     1      41.000  -3.495  28.912  1.00  0.00    -0.234 N 
ATOM      9  H31 UNL     1      40.225  -2.835  28.865  1.00  0.00     0.174 HD
ATOM     10  H32 UNL     1      40.491  -4.112  29.544  1.00  0.00     0.174 HD
HETATM   11  N4  UNL     1      42.766  -3.169  27.862  1.00  0.00    -0.205 N 
ATOM     12  H4  UNL     1      42.705  -3.079  26.847  1.00  0.00     0.183 HD
HETATM   13  C11 UNL     1      43.498  -2.546  28.690  1.00  0.00     0.089 C 
ENDROOT
BRANCH   1  14
HETATM   14  C8  UNL     1      43.557  -8.442  30.828  1.00  0.00     0.096 C 
HETATM   15  C7  UNL     1      44.026  -9.773  30.468  1.00  0.00     0.022 C 
HETATM   16  C2  UNL     1      44.400 -10.000  31.918  1.00  0.00    -0.015 C 
HETATM   17  C6  UNL     1      45.295  -9.776  29.622  1.00  0.00     0.016 C 
HETATM   18  C1  UNL     1      43.283 -10.501  32.775  1.00  0.00     0.020 C 
HETATM   19  C3  UNL     1      45.638 -10.743  32.143  1.00  0.00    -0.020 C 
HETATM   20  C13 UNL     1      44.620  -8.494  32.007  1.00  0.00     0.022 C 
HETATM   21  C4  UNL     1      46.731 -10.395  31.427  1.00  0.00    -0.025 C 
HETATM   22  C5  UNL     1      46.422  -9.251  30.491  1.00  0.00     0.009 C 
HETATM   23  C14 UNL     1      45.915  -8.126  31.400  1.00  0.00     0.016 C 
ENDBRANCH   1  14
BRANCH  13  24
HETATM   24  C12 UNL     1      44.436  -1.498  28.122  1.00  0.00     0.130 C 
HETATM   25 BR1  UNL     1      44.712  -1.842  26.283  1.00  0.00    -0.091 Br
ENDBRANCH  13  24
TORSDOF 2
ENDMDL
