MODEL 1
REMARK VINA RESULT: -5.273480344      0.000      0.000
REMARK  6 active torsions:
REMARK  status: ('A' for Active; 'I' for Inactive)
REMARK    1  A    between atoms: C4_4  and  C5_5 
REMARK    2  A    between atoms: C5_5  and  N2_9 
REMARK       I    between atoms: C6_11  and  N4_13 
REMARK    3  A    between atoms: N4_13  and  C7_15 
REMARK    4  A    between atoms: C7_15  and  N5_17 
REMARK    5  A    between atoms: N5_17  and  C8_19 
REMARK    6  A    between atoms: C8_19  and  C9_20 
ROOT
HETATM    1  N2  UNL     1      43.450  -0.148  33.688  1.00  0.00    -0.320 N 
ATOM      2  H2  UNL     1      42.552  -0.315  34.143  1.00  0.00     0.169 HD
HETATM    3  C6  UNL     1      43.636  -0.586  32.499  1.00  0.00     0.195 C 
HETATM    4  N3  UNL     1      44.877  -0.367  31.833  1.00  0.00    -0.063 NA
HETATM    5  N4  UNL     1      42.607  -1.323  31.878  1.00  0.00    -0.307 N 
ATOM      6  H4  UNL     1      42.330  -2.224  32.269  1.00  0.00     0.171 HD
ENDROOT
BRANCH   1   7
HETATM    7  C5  UNL     1      44.452   0.560  34.391  1.00  0.00     0.082 C 
HETATM    8  N1  UNL     1      44.698   1.732  33.829  1.00  0.00    -0.388 N 
ATOM      9  H12 UNL     1      45.421   2.243  34.335  1.00  0.00     0.157 HD
ATOM     10  H11 UNL     1      44.174   1.996  32.994  1.00  0.00     0.157 HD
BRANCH   7  11
HETATM   11  C4  UNL     1      45.193   0.188  35.569  1.00  0.00     0.070 A 
HETATM   12  C2  UNL     1      44.333   0.273  36.861  1.00  0.00    -0.029 A 
HETATM   13  C1  UNL     1      43.060   1.046  36.799  1.00  0.00     0.016 C 
HETATM   14  C3  UNL     1      44.275  -1.016  37.653  1.00  0.00     0.016 C 
HETATM   15  C10 UNL     1      45.645   0.988  36.682  1.00  0.00    -0.029 A 
HETATM   16  C11 UNL     1      45.665   2.453  36.795  1.00  0.00     0.016 C 
HETATM   17  C12 UNL     1      46.734   0.365  37.584  1.00  0.00     0.016 C 
ENDBRANCH   7  11
ENDBRANCH   1   7
BRANCH   5  18
HETATM   18  C7  UNL     1      41.960  -0.841  30.737  1.00  0.00     0.174 C 
HETATM   19  S1  UNL     1      40.363  -0.518  30.844  1.00  0.00    -0.041 SA
BRANCH  18  20
HETATM   20  N5  UNL     1      42.651  -0.644  29.537  1.00  0.00    -0.366 N 
ATOM     21  H5  UNL     1      42.729   0.310  29.184  1.00  0.00     0.161 HD
BRANCH  20  22
HETATM   22  C8  UNL     1      43.261  -1.700  28.763  1.00  0.00     0.133 C 
BRANCH  22  23
HETATM   23  C9  UNL     1      44.548  -1.368  28.109  1.00  0.00     0.104 C 
HETATM   24 BR1  UNL     1      44.609  -1.687  26.221  1.00  0.00    -0.095 Br
ENDBRANCH  22  23
ENDBRANCH  20  22
ENDBRANCH  18  20
ENDBRANCH   5  18
TORSDOF 6
ENDMDL
MODEL 2
REMARK VINA RESULT: -5.178472829      4.328      5.766
REMARK  6 active torsions:
REMARK  status: ('A' for Active; 'I' for Inactive)
REMARK    1  A    between atoms: C4_4  and  C5_5 
REMARK    2  A    between atoms: C5_5  and  N2_9 
REMARK       I    between atoms: C6_11  and  N4_13 
REMARK    3  A    between atoms: N4_13  and  C7_15 
REMARK    4  A    between atoms: C7_15  and  N5_17 
REMARK    5  A    between atoms: N5_17  and  C8_19 
REMARK    6  A    between atoms: C8_19  and  C9_20 
ROOT
HETATM    1  N2  UNL     1      43.391  -2.365  30.583  1.00  0.00    -0.320 N 
ATOM      2  H2  UNL     1      43.384  -3.266  31.062  1.00  0.00     0.169 HD
HETATM    3  C6  UNL     1      43.796  -2.310  29.369  1.00  0.00     0.195 C 
HETATM    4  N3  UNL     1      43.816  -1.069  28.669  1.00  0.00    -0.063 NA
HETATM    5  N4  UNL     1      44.261  -3.491  28.754  1.00  0.00    -0.307 N 
ATOM      6  H4  UNL     1      45.100  -3.947  29.113  1.00  0.00     0.171 HD
ENDROOT
BRANCH   1   7
HETATM    7  C5  UNL     1      42.955  -1.216  31.280  1.00  0.00     0.082 C 
HETATM    8  N1  UNL     1      43.975  -0.540  31.782  1.00  0.00    -0.388 N 
ATOM      9  H12 UNL     1      43.661   0.290  32.285  1.00  0.00     0.157 HD
ATOM     10  H11 UNL     1      44.920  -0.892  31.629  1.00  0.00     0.157 HD
BRANCH   7  11
HETATM   11  C4  UNL     1      41.620  -0.717  31.496  1.00  0.00     0.070 A 
HETATM   12  C2  UNL     1      40.989  -1.265  32.807  1.00  0.00    -0.029 A 
HETATM   13  C1  UNL     1      41.623  -2.457  33.439  1.00  0.00     0.016 C 
HETATM   14  C3  UNL     1      40.520  -0.191  33.765  1.00  0.00     0.016 C 
HETATM   15  C10 UNL     1      40.348  -1.397  31.451  1.00  0.00    -0.029 A 
HETATM   16  C11 UNL     1      40.059  -2.745  30.942  1.00  0.00     0.016 C 
HETATM   17  C12 UNL     1      39.091  -0.505  31.353  1.00  0.00     0.016 C 
ENDBRANCH   7  11
ENDBRANCH   1   7
BRANCH   5  18
HETATM   18  C7  UNL     1      43.591  -4.046  27.660  1.00  0.00     0.174 C 
HETATM   19  S1  UNL     1      44.069  -3.596  26.164  1.00  0.00    -0.041 SA
BRANCH  18  20
HETATM   20  N5  UNL     1      42.542  -4.955  27.833  1.00  0.00    -0.366 N 
ATOM     21  H5  UNL     1      42.043  -5.269  27.001  1.00  0.00     0.161 HD
BRANCH  20  22
HETATM   22  C8  UNL     1      42.117  -5.478  29.110  1.00  0.00     0.133 C 
BRANCH  22  23
HETATM   23  C9  UNL     1      42.954  -6.558  29.683  1.00  0.00     0.104 C 
HETATM   24 BR1  UNL     1      43.830  -6.123  31.330  1.00  0.00    -0.095 Br
ENDBRANCH  22  23
ENDBRANCH  20  22
ENDBRANCH  18  20
ENDBRANCH   5  18
TORSDOF 6
ENDMDL
MODEL 3
REMARK VINA RESULT: -5.088277662      5.196      6.924
REMARK  6 active torsions:
REMARK  status: ('A' for Active; 'I' for Inactive)
REMARK    1  A    between atoms: C4_4  and  C5_5 
REMARK    2  A    between atoms: C5_5  and  N2_9 
REMARK       I    between atoms: C6_11  and  N4_13 
REMARK    3  A    between atoms: N4_13  and  C7_15 
REMARK    4  A    between atoms: C7_15  and  N5_17 
REMARK    5  A    between atoms: N5_17  and  C8_19 
REMARK    6  A    between atoms: C8_19  and  C9_20 
ROOT
HETATM    1  N2  UNL     1      40.971  -2.168  31.394  1.00  0.00    -0.320 N 
ATOM      2  H2  UNL     1      40.779  -2.999  31.954  1.00  0.00     0.169 HD
HETATM    3  C6  UNL     1      42.124  -2.040  30.848  1.00  0.00     0.195 C 
HETATM    4  N3  UNL     1      42.426  -0.894  30.057  1.00  0.00    -0.063 NA
HETATM    5  N4  UNL     1      43.098  -3.032  31.080  1.00  0.00    -0.307 N 
ATOM      6  H4  UNL     1      43.456  -3.173  32.025  1.00  0.00     0.171 HD
ENDROOT
BRANCH   1   7
HETATM    7  C5  UNL     1      39.960  -1.192  31.244  1.00  0.00     0.082 C 
HETATM    8  N1  UNL     1      40.231  -0.105  31.948  1.00  0.00    -0.388 N 
ATOM      9  H12 UNL     1      39.501   0.599  31.840  1.00  0.00     0.157 HD
ATOM     10  H11 UNL     1      41.089  -0.078  32.498  1.00  0.00     0.157 HD
BRANCH   7  11
HETATM   11  C4  UNL     1      38.746  -1.230  30.468  1.00  0.00     0.070 A 
HETATM   12  C2  UNL     1      37.543  -1.790  31.277  1.00  0.00    -0.029 A 
HETATM   13  C1  UNL     1      37.837  -2.537  32.533  1.00  0.00     0.016 C 
HETATM   14  C3  UNL     1      36.349  -0.862  31.334  1.00  0.00     0.016 C 
HETATM   15  C10 UNL     1      37.997  -2.352  29.956  1.00  0.00    -0.029 A 
HETATM   16  C11 UNL     1      38.405  -3.763  29.898  1.00  0.00     0.016 C 
HETATM   17  C12 UNL     1      36.964  -2.046  28.849  1.00  0.00     0.016 C 
ENDBRANCH   7  11
ENDBRANCH   1   7
BRANCH   5  18
HETATM   18  C7  UNL     1      43.583  -3.826  30.037  1.00  0.00     0.174 C 
HETATM   19  S1  UNL     1      43.853  -5.407  30.343  1.00  0.00    -0.041 SA
BRANCH  18  20
HETATM   20  N5  UNL     1      43.836  -3.289  28.770  1.00  0.00    -0.366 N 
ATOM     21  H5  UNL     1      44.427  -2.459  28.716  1.00  0.00     0.161 HD
BRANCH  20  22
HETATM   22  C8  UNL     1      43.319  -3.830  27.535  1.00  0.00     0.133 C 
BRANCH  22  23
HETATM   23  C9  UNL     1      44.063  -3.472  26.306  1.00  0.00     0.104 C 
HETATM   24 BR1  UNL     1      44.758  -1.688  26.264  1.00  0.00    -0.095 Br
ENDBRANCH  22  23
ENDBRANCH  20  22
ENDBRANCH  18  20
ENDBRANCH   5  18
TORSDOF 6
ENDMDL
MODEL 4
REMARK VINA RESULT: -5.041146966      3.700      7.133
REMARK  6 active torsions:
REMARK  status: ('A' for Active; 'I' for Inactive)
REMARK    1  A    between atoms: C4_4  and  C5_5 
REMARK    2  A    between atoms: C5_5  and  N2_9 
REMARK       I    between atoms: C6_11  and  N4_13 
REMARK    3  A    between atoms: N4_13  and  C7_15 
REMARK    4  A    between atoms: C7_15  and  N5_17 
REMARK    5  A    between atoms: N5_17  and  C8_19 
REMARK    6  A    between atoms: C8_19  and  C9_20 
ROOT
HETATM    1  N2  UNL     1      42.628  -1.140  32.112  1.00  0.00    -0.320 N 
ATOM      2  H2  UNL     1      41.747  -1.452  32.522  1.00  0.00     0.169 HD
HETATM    3  C6  UNL     1      43.400  -0.383  32.800  1.00  0.00     0.195 C 
HETATM    4  N3  UNL     1      44.639   0.070  32.260  1.00  0.00    -0.063 NA
HETATM    5  N4  UNL     1      42.981   0.029  34.082  1.00  0.00    -0.307 N 
ATOM      6  H4  UNL     1      42.157   0.624  34.173  1.00  0.00     0.171 HD
ENDROOT
BRANCH   1   7
HETATM    7  C5  UNL     1      42.960  -1.555  30.803  1.00  0.00     0.082 C 
HETATM    8  N1  UNL     1      42.784  -0.578  29.927  1.00  0.00    -0.388 N 
ATOM      9  H12 UNL     1      43.023  -0.877  28.982  1.00  0.00     0.157 HD
ATOM     10  H11 UNL     1      42.445   0.324  30.262  1.00  0.00     0.157 HD
BRANCH   7  11
HETATM   11  C4  UNL     1      43.439  -2.830  30.330  1.00  0.00     0.070 A 
HETATM   12  C2  UNL     1      42.304  -3.699  29.720  1.00  0.00    -0.029 A 
HETATM   13  C1  UNL     1      40.895  -3.319  30.026  1.00  0.00     0.016 C 
HETATM   14  C3  UNL     1      42.564  -4.149  28.299  1.00  0.00     0.016 C 
HETATM   15  C10 UNL     1      43.206  -4.162  30.833  1.00  0.00    -0.029 A 
HETATM   16  C11 UNL     1      42.596  -4.554  32.112  1.00  0.00     0.016 C 
HETATM   17  C12 UNL     1      44.165  -5.266  30.335  1.00  0.00     0.016 C 
ENDBRANCH   7  11
ENDBRANCH   1   7
BRANCH   5  18
HETATM   18  C7  UNL     1      43.675  -0.365  35.229  1.00  0.00     0.174 C 
HETATM   19  S1  UNL     1      42.973  -1.473  36.203  1.00  0.00    -0.041 SA
BRANCH  18  20
HETATM   20  N5  UNL     1      44.927   0.172  35.543  1.00  0.00    -0.366 N 
ATOM     21  H5  UNL     1      45.644  -0.465  35.891  1.00  0.00     0.161 HD
BRANCH  20  22
HETATM   22  C8  UNL     1      45.275   1.567  35.408  1.00  0.00     0.133 C 
BRANCH  22  23
HETATM   23  C9  UNL     1      45.451   2.319  36.671  1.00  0.00     0.104 C 
HETATM   24 BR1  UNL     1      44.213   3.755  36.944  1.00  0.00    -0.095 Br
ENDBRANCH  22  23
ENDBRANCH  20  22
ENDBRANCH  18  20
ENDBRANCH   5  18
TORSDOF 6
ENDMDL
MODEL 5
REMARK VINA RESULT: -4.999342523      3.579      7.167
REMARK  6 active torsions:
REMARK  status: ('A' for Active; 'I' for Inactive)
REMARK    1  A    between atoms: C4_4  and  C5_5 
REMARK    2  A    between atoms: C5_5  and  N2_9 
REMARK       I    between atoms: C6_11  and  N4_13 
REMARK    3  A    between atoms: N4_13  and  C7_15 
REMARK    4  A    between atoms: C7_15  and  N5_17 
REMARK    5  A    between atoms: N5_17  and  C8_19 
REMARK    6  A    between atoms: C8_19  and  C9_20 
ROOT
HETATM    1  N2  UNL     1      42.543  -1.204  32.030  1.00  0.00    -0.320 N 
ATOM      2  H2  UNL     1      41.658  -1.559  32.392  1.00  0.00     0.169 HD
HETATM    3  C6  UNL     1      43.263  -0.452  32.777  1.00  0.00     0.195 C 
HETATM    4  N3  UNL     1      44.507   0.058  32.305  1.00  0.00    -0.063 NA
HETATM    5  N4  UNL     1      42.782  -0.106  34.056  1.00  0.00    -0.307 N 
ATOM      6  H4  UNL     1      41.937   0.460  34.138  1.00  0.00     0.171 HD
ENDROOT
BRANCH   1   7
HETATM    7  C5  UNL     1      42.939  -1.556  30.719  1.00  0.00     0.082 C 
HETATM    8  N1  UNL     1      42.788  -0.543  29.882  1.00  0.00    -0.388 N 
ATOM      9  H12 UNL     1      43.074  -0.796  28.936  1.00  0.00     0.157 HD
ATOM     10  H11 UNL     1      42.423   0.340  30.240  1.00  0.00     0.157 HD
BRANCH   7  11
HETATM   11  C4  UNL     1      43.454  -2.803  30.212  1.00  0.00     0.070 A 
HETATM   12  C2  UNL     1      42.378  -3.619  29.443  1.00  0.00    -0.029 A 
HETATM   13  C1  UNL     1      40.949  -3.245  29.639  1.00  0.00     0.016 C 
HETATM   14  C3  UNL     1      42.770  -3.979  28.026  1.00  0.00     0.016 C 
HETATM   15  C10 UNL     1      43.169  -4.162  30.603  1.00  0.00    -0.029 A 
HETATM   16  C11 UNL     1      42.439  -4.628  31.791  1.00  0.00     0.016 C 
HETATM   17  C12 UNL     1      44.166  -5.242  30.128  1.00  0.00     0.016 C 
ENDBRANCH   7  11
ENDBRANCH   1   7
BRANCH   5  18
HETATM   18  C7  UNL     1      43.444  -0.525  35.214  1.00  0.00     0.174 C 
HETATM   19  S1  UNL     1      42.683  -1.599  36.181  1.00  0.00    -0.041 SA
BRANCH  18  20
HETATM   20  N5  UNL     1      44.713  -0.039  35.543  1.00  0.00    -0.366 N 
ATOM     21  H5  UNL     1      45.459  -0.720  35.688  1.00  0.00     0.161 HD
BRANCH  20  22
HETATM   22  C8  UNL     1      45.039   1.359  35.694  1.00  0.00     0.133 C 
BRANCH  22  23
HETATM   23  C9  UNL     1      45.970   1.696  36.796  1.00  0.00     0.104 C 
HETATM   24 BR1  UNL     1      47.213   0.315  37.263  1.00  0.00    -0.095 Br
ENDBRANCH  22  23
ENDBRANCH  20  22
ENDBRANCH  18  20
ENDBRANCH   5  18
TORSDOF 6
ENDMDL
