MODEL 1
REMARK VINA RESULT: -6.037033958      0.000      0.000
REMARK  4 active torsions:
REMARK  status: ('A' for Active; 'I' for Inactive)
REMARK       I    between atoms: C1_4  and  N2_5 
REMARK       I    between atoms: C1_4  and  N4_17 
REMARK    1  A    between atoms: N2_5  and  C2_7 
REMARK    2  A    between atoms: C2_7  and  N3_9 
REMARK    3  A    between atoms: N3_9  and  C3_11 
REMARK    4  A    between atoms: N4_17  and  C8_19 
ROOT
HETATM    1  N1  UNL     1      40.859  -4.052  28.981  1.00  0.00    -0.235 N 
ATOM      2  H11 UNL     1      40.900  -3.429  28.173  1.00  0.00     0.174 HD
ATOM      3  H12 UNL     1      39.968  -4.387  29.346  1.00  0.00     0.174 HD
HETATM    4  C1  UNL     1      41.955  -4.411  29.535  1.00  0.00     0.674 C 
HETATM    5  N2  UNL     1      41.898  -5.278  30.659  1.00  0.00    -0.167 N 
ATOM      6  H2  UNL     1      41.894  -4.904  31.607  1.00  0.00     0.186 HD
HETATM    7  N4  UNL     1      43.178  -3.950  29.033  1.00  0.00    -0.222 N 
ATOM      8  H4  UNL     1      44.050  -4.298  29.432  1.00  0.00     0.178 HD
ENDROOT
BRANCH   5   9
HETATM    9  C2  UNL     1      41.847  -6.672  30.432  1.00  0.00     0.186 C 
HETATM   10  S1  UNL     1      40.447  -7.468  30.656  1.00  0.00    -0.040 SA
BRANCH   9  11
HETATM   11  N3  UNL     1      43.009  -7.355  30.015  1.00  0.00    -0.362 N 
ATOM     12  H3  UNL     1      43.164  -7.512  29.020  1.00  0.00     0.162 HD
BRANCH  11  13
HETATM   13  C3  UNL     1      43.987  -7.840  30.968  1.00  0.00     0.085 C 
HETATM   14  C4  UNL     1      45.078  -6.828  31.212  1.00  0.00     0.026 C 
HETATM   15  C5  UNL     1      46.155  -7.711  31.848  1.00  0.00     0.018 C 
HETATM   16  C6  UNL     1      46.187  -8.865  30.868  1.00  0.00     0.060 C 
HETATM   17 BR1  UNL     1      46.800 -10.485  31.718  1.00  0.00    -0.091 Br
HETATM   18  C7  UNL     1      44.779  -8.989  30.359  1.00  0.00     0.041 C 
ENDBRANCH  11  13
ENDBRANCH   9  11
ENDBRANCH   5   9
BRANCH   7  19
HETATM   19  C8  UNL     1      43.220  -2.990  27.960  1.00  0.00     0.103 C 
HETATM   20  C9  UNL     1      44.192  -1.897  28.350  1.00  0.00     0.052 C 
HETATM   21  C10 UNL     1      44.399  -0.938  27.244  1.00  0.00    -0.029 C 
HETATM   22  C11 UNL     1      44.601  -1.437  26.033  1.00  0.00    -0.030 C 
HETATM   23  C12 UNL     1      44.607  -2.891  25.853  1.00  0.00     0.029 C 
HETATM   24  C13 UNL     1      43.615  -3.653  26.667  1.00  0.00     0.029 C 
ENDBRANCH   7  19
TORSDOF 4
ENDMDL
MODEL 2
REMARK VINA RESULT: -5.914738007      5.597      6.556
REMARK  4 active torsions:
REMARK  status: ('A' for Active; 'I' for Inactive)
REMARK       I    between atoms: C1_4  and  N2_5 
REMARK       I    between atoms: C1_4  and  N4_17 
REMARK    1  A    between atoms: N2_5  and  C2_7 
REMARK    2  A    between atoms: C2_7  and  N3_9 
REMARK    3  A    between atoms: N3_9  and  C3_11 
REMARK    4  A    between atoms: N4_17  and  C8_19 
ROOT
HETATM    1  N1  UNL     1      41.826  -0.750  29.699  1.00  0.00    -0.235 N 
ATOM      2  H11 UNL     1      41.617  -0.973  28.726  1.00  0.00     0.174 HD
ATOM      3  H12 UNL     1      41.151  -0.261  30.287  1.00  0.00     0.174 HD
HETATM    4  C1  UNL     1      42.960  -1.099  30.178  1.00  0.00     0.674 C 
HETATM    5  N2  UNL     1      43.251  -0.790  31.534  1.00  0.00    -0.167 N 
ATOM      6  H2  UNL     1      43.751   0.064  31.779  1.00  0.00     0.186 HD
HETATM    7  N4  UNL     1      43.886  -1.771  29.371  1.00  0.00    -0.222 N 
ATOM      8  H4  UNL     1      44.757  -2.110  29.778  1.00  0.00     0.178 HD
ENDROOT
BRANCH   5   9
HETATM    9  C2  UNL     1      42.831  -1.694  32.536  1.00  0.00     0.186 C 
HETATM   10  S1  UNL     1      42.707  -3.276  32.184  1.00  0.00    -0.040 SA
BRANCH   9  11
HETATM   11  N3  UNL     1      42.523  -1.213  33.827  1.00  0.00    -0.362 N 
ATOM     12  H3  UNL     1      41.548  -1.171  34.124  1.00  0.00     0.162 HD
BRANCH  11  13
HETATM   13  C3  UNL     1      43.560  -0.776  34.741  1.00  0.00     0.085 C 
HETATM   14  C4  UNL     1      43.274  -1.211  36.157  1.00  0.00     0.026 C 
HETATM   15  C5  UNL     1      44.209  -0.285  36.938  1.00  0.00     0.018 C 
HETATM   16  C6  UNL     1      43.869   1.051  36.310  1.00  0.00     0.060 C 
HETATM   17 BR1  UNL     1      45.348   2.283  36.447  1.00  0.00    -0.091 Br
HETATM   18  C7  UNL     1      43.521   0.739  34.883  1.00  0.00     0.041 C 
ENDBRANCH  11  13
ENDBRANCH   9  11
ENDBRANCH   5   9
BRANCH   7  19
HETATM   19  C8  UNL     1      43.622  -1.986  27.971  1.00  0.00     0.103 C 
HETATM   20  C9  UNL     1      44.666  -1.228  27.179  1.00  0.00     0.052 C 
HETATM   21  C10 UNL     1      44.552  -1.506  25.731  1.00  0.00    -0.029 C 
HETATM   22  C11 UNL     1      44.403  -2.769  25.361  1.00  0.00    -0.030 C 
HETATM   23  C12 UNL     1      44.358  -3.813  26.390  1.00  0.00     0.029 C 
HETATM   24  C13 UNL     1      43.636  -3.457  27.647  1.00  0.00     0.029 C 
ENDBRANCH   7  19
TORSDOF 4
ENDMDL
MODEL 3
REMARK VINA RESULT: -5.896944850      5.275      6.666
REMARK  4 active torsions:
REMARK  status: ('A' for Active; 'I' for Inactive)
REMARK       I    between atoms: C1_4  and  N2_5 
REMARK       I    between atoms: C1_4  and  N4_17 
REMARK    1  A    between atoms: N2_5  and  C2_7 
REMARK    2  A    between atoms: C2_7  and  N3_9 
REMARK    3  A    between atoms: N3_9  and  C3_11 
REMARK    4  A    between atoms: N4_17  and  C8_19 
ROOT
HETATM    1  N1  UNL     1      42.383  -0.507  29.819  1.00  0.00    -0.235 N 
ATOM      2  H11 UNL     1      42.238  -0.464  28.810  1.00  0.00     0.174 HD
ATOM      3  H12 UNL     1      42.003   0.209  30.439  1.00  0.00     0.174 HD
HETATM    4  C1  UNL     1      43.055  -1.482  30.302  1.00  0.00     0.674 C 
HETATM    5  N2  UNL     1      43.256  -1.541  31.708  1.00  0.00    -0.167 N 
ATOM      6  H2  UNL     1      44.097  -1.149  32.132  1.00  0.00     0.186 HD
HETATM    7  N4  UNL     1      43.576  -2.465  29.451  1.00  0.00    -0.222 N 
ATOM      8  H4  UNL     1      44.047  -3.277  29.848  1.00  0.00     0.178 HD
ENDROOT
BRANCH   5   9
HETATM    9  C2  UNL     1      42.264  -2.157  32.505  1.00  0.00     0.186 C 
HETATM   10  S1  UNL     1      42.541  -2.384  34.090  1.00  0.00    -0.040 SA
BRANCH   9  11
HETATM   11  N3  UNL     1      41.049  -2.566  31.916  1.00  0.00    -0.362 N 
ATOM     12  H3  UNL     1      41.055  -3.338  31.249  1.00  0.00     0.162 HD
BRANCH  11  13
HETATM   13  C3  UNL     1      39.794  -1.917  32.236  1.00  0.00     0.085 C 
HETATM   14  C4  UNL     1      38.856  -1.903  31.054  1.00  0.00     0.026 C 
HETATM   15  C5  UNL     1      37.863  -0.821  31.486  1.00  0.00     0.018 C 
HETATM   16  C6  UNL     1      38.813   0.280  31.909  1.00  0.00     0.060 C 
HETATM   17 BR1  UNL     1      37.998   1.442  33.216  1.00  0.00    -0.091 Br
HETATM   18  C7  UNL     1      40.021  -0.428  32.453  1.00  0.00     0.041 C 
ENDBRANCH  11  13
ENDBRANCH   9  11
ENDBRANCH   5   9
BRANCH   7  19
HETATM   19  C8  UNL     1      43.455  -2.340  28.021  1.00  0.00     0.103 C 
HETATM   20  C9  UNL     1      44.631  -1.525  27.524  1.00  0.00     0.052 C 
HETATM   21  C10 UNL     1      44.659  -1.463  26.047  1.00  0.00    -0.029 C 
HETATM   22  C11 UNL     1      44.464  -2.594  25.384  1.00  0.00    -0.030 C 
HETATM   23  C12 UNL     1      44.232  -3.830  26.137  1.00  0.00     0.029 C 
HETATM   24  C13 UNL     1      43.402  -3.697  27.370  1.00  0.00     0.029 C 
ENDBRANCH   7  19
TORSDOF 4
ENDMDL
MODEL 4
REMARK VINA RESULT: -5.885453219      3.826      5.651
REMARK  4 active torsions:
REMARK  status: ('A' for Active; 'I' for Inactive)
REMARK       I    between atoms: C1_4  and  N2_5 
REMARK       I    between atoms: C1_4  and  N4_17 
REMARK    1  A    between atoms: N2_5  and  C2_7 
REMARK    2  A    between atoms: C2_7  and  N3_9 
REMARK    3  A    between atoms: N3_9  and  C3_11 
REMARK    4  A    between atoms: N4_17  and  C8_19 
ROOT
HETATM    1  N1  UNL     1      43.449  -5.299  29.871  1.00  0.00    -0.235 N 
ATOM      2  H11 UNL     1      44.228  -4.658  29.719  1.00  0.00     0.174 HD
ATOM      3  H12 UNL     1      43.397  -5.879  30.709  1.00  0.00     0.174 HD
HETATM    4  C1  UNL     1      42.528  -5.367  28.987  1.00  0.00     0.674 C 
HETATM    5  N2  UNL     1      41.443  -6.260  29.199  1.00  0.00    -0.167 N 
ATOM      6  H2  UNL     1      41.461  -7.204  28.815  1.00  0.00     0.186 HD
HETATM    7  N4  UNL     1      42.599  -4.571  27.837  1.00  0.00    -0.222 N 
ATOM      8  H4  UNL     1      41.826  -4.575  27.172  1.00  0.00     0.178 HD
ENDROOT
BRANCH   5   9
HETATM    9  C2  UNL     1      40.338  -5.809  29.956  1.00  0.00     0.186 C 
HETATM   10  S1  UNL     1      40.117  -6.377  31.463  1.00  0.00    -0.040 SA
BRANCH   9  11
HETATM   11  N3  UNL     1      39.441  -4.875  29.396  1.00  0.00    -0.362 N 
ATOM     12  H3  UNL     1      39.115  -5.011  28.439  1.00  0.00     0.162 HD
BRANCH  11  13
HETATM   13  C3  UNL     1      38.973  -3.727  30.146  1.00  0.00     0.085 C 
HETATM   14  C4  UNL     1      37.868  -3.000  29.422  1.00  0.00     0.026 C 
HETATM   15  C5  UNL     1      37.878  -1.655  30.153  1.00  0.00     0.018 C 
HETATM   16  C6  UNL     1      39.357  -1.329  30.120  1.00  0.00     0.060 C 
HETATM   17 BR1  UNL     1      39.850  -0.173  31.584  1.00  0.00    -0.091 Br
HETATM   18  C7  UNL     1      40.055  -2.658  30.186  1.00  0.00     0.041 C 
ENDBRANCH  11  13
ENDBRANCH   9  11
ENDBRANCH   5   9
BRANCH   7  19
HETATM   19  C8  UNL     1      43.753  -3.747  27.582  1.00  0.00     0.103 C 
HETATM   20  C9  UNL     1      43.818  -3.484  26.092  1.00  0.00     0.052 C 
HETATM   21  C10 UNL     1      44.898  -2.531  25.759  1.00  0.00    -0.029 C 
HETATM   22  C11 UNL     1      45.004  -1.442  26.506  1.00  0.00    -0.030 C 
HETATM   23  C12 UNL     1      44.062  -1.241  27.611  1.00  0.00     0.029 C 
HETATM   24  C13 UNL     1      43.678  -2.466  28.372  1.00  0.00     0.029 C 
ENDBRANCH   7  19
TORSDOF 4
ENDMDL
MODEL 5
REMARK VINA RESULT: -5.848907177      3.024      3.794
REMARK  4 active torsions:
REMARK  status: ('A' for Active; 'I' for Inactive)
REMARK       I    between atoms: C1_4  and  N2_5 
REMARK       I    between atoms: C1_4  and  N4_17 
REMARK    1  A    between atoms: N2_5  and  C2_7 
REMARK    2  A    between atoms: C2_7  and  N3_9 
REMARK    3  A    between atoms: N3_9  and  C3_11 
REMARK    4  A    between atoms: N4_17  and  C8_19 
ROOT
HETATM    1  N1  UNL     1      41.645  -0.757  29.662  1.00  0.00    -0.235 N 
ATOM      2  H11 UNL     1      41.486  -0.968  28.677  1.00  0.00     0.174 HD
ATOM      3  H12 UNL     1      40.914  -0.345  30.240  1.00  0.00     0.174 HD
HETATM    4  C1  UNL     1      42.790  -1.021  30.168  1.00  0.00     0.674 C 
HETATM    5  N2  UNL     1      43.012  -0.727  31.540  1.00  0.00    -0.167 N 
ATOM      6  H2  UNL     1      43.429   0.159  31.824  1.00  0.00     0.186 HD
HETATM    7  N4  UNL     1      43.795  -1.587  29.374  1.00  0.00    -0.222 N 
ATOM      8  H4  UNL     1      44.680  -1.862  29.800  1.00  0.00     0.178 HD
ENDROOT
BRANCH   5   9
HETATM    9  C2  UNL     1      42.642  -1.693  32.504  1.00  0.00     0.186 C 
HETATM   10  S1  UNL     1      42.698  -1.308  34.083  1.00  0.00    -0.040 SA
BRANCH   9  11
HETATM   11  N3  UNL     1      42.232  -2.976  32.086  1.00  0.00    -0.362 N 
ATOM     12  H3  UNL     1      41.324  -3.085  31.634  1.00  0.00     0.162 HD
BRANCH  11  13
HETATM   13  C3  UNL     1      43.068  -4.143  32.282  1.00  0.00     0.085 C 
HETATM   14  C4  UNL     1      43.420  -4.804  30.972  1.00  0.00     0.026 C 
HETATM   15  C5  UNL     1      43.882  -6.180  31.458  1.00  0.00     0.018 C 
HETATM   16  C6  UNL     1      42.743  -6.547  32.386  1.00  0.00     0.060 C 
HETATM   17 BR1  UNL     1      43.323  -7.783  33.749  1.00  0.00    -0.091 Br
HETATM   18  C7  UNL     1      42.270  -5.244  32.965  1.00  0.00     0.041 C 
ENDBRANCH  11  13
ENDBRANCH   9  11
ENDBRANCH   5   9
BRANCH   7  19
HETATM   19  C8  UNL     1      43.594  -1.784  27.961  1.00  0.00     0.103 C 
HETATM   20  C9  UNL     1      44.790  -1.205  27.235  1.00  0.00     0.052 C 
HETATM   21  C10 UNL     1      44.730  -1.487  25.785  1.00  0.00    -0.029 C 
HETATM   22  C11 UNL     1      44.414  -2.719  25.414  1.00  0.00    -0.030 C 
HETATM   23  C12 UNL     1      44.144  -3.726  26.444  1.00  0.00     0.029 C 
HETATM   24  C13 UNL     1      43.405  -3.245  27.648  1.00  0.00     0.029 C 
ENDBRANCH   7  19
TORSDOF 4
ENDMDL
