MODEL 1
REMARK VINA RESULT: -7.407317621      0.000      0.000
REMARK  2 active torsions:
REMARK  status: ('A' for Active; 'I' for Inactive)
REMARK    1  A    between atoms: C5_5  and  N1_6 
REMARK       I    between atoms: N1_6  and  C6_8 
REMARK       I    between atoms: N3_10  and  C7_12 
REMARK       I    between atoms: C7_12  and  N4_14 
REMARK    2  A    between atoms: N4_14  and  C8_16 
ROOT
HETATM    1  N1  UNL     1      43.697  -0.410  34.564  1.00  0.00    -0.360 N 
ATOM      2  H1  UNL     1      44.209  -1.124  35.081  1.00  0.00     0.162 HD
HETATM    3  C6  UNL     1      43.634  -0.476  33.159  1.00  0.00     0.192 C 
HETATM    4  N2  UNL     1      44.649   0.162  32.403  1.00  0.00    -0.063 NA
HETATM    5  N3  UNL     1      42.692  -1.094  32.548  1.00  0.00    -0.283 N 
ATOM      6  H3  UNL     1      41.954  -1.557  33.077  1.00  0.00     0.173 HD
HETATM    7  C7  UNL     1      42.682  -1.127  31.135  1.00  0.00     0.323 C 
HETATM    8  O1  UNL     1      42.130  -0.184  30.517  1.00  0.00    -0.247 OA
HETATM    9  N4  UNL     1      43.267  -2.177  30.379  1.00  0.00    -0.335 N 
ATOM     10  H4  UNL     1      43.718  -2.949  30.869  1.00  0.00     0.164 HD
ENDROOT
BRANCH   1  11
HETATM   11  C5  UNL     1      43.041   0.662  35.283  1.00  0.00     0.088 C 
HETATM   12  C4  UNL     1      43.837   1.116  36.490  1.00  0.00     0.055 C 
HETATM   13  C2  UNL     1      43.176   2.324  37.054  1.00  0.00     0.021 C 
HETATM   14  C1  UNL     1      44.049   3.532  36.679  1.00  0.00     0.037 C 
HETATM   15  C3  UNL     1      43.232   2.260  38.585  1.00  0.00     0.037 C 
HETATM   16  N5  UNL     1      41.866   2.585  36.618  1.00  0.00    -0.405 N 
HETATM   17  C14 UNL     1      41.012   1.483  36.377  1.00  0.00     0.021 C 
ATOM     18  H5  UNL     1      41.539   3.541  36.480  1.00  0.00     0.154 HD
HETATM   19  C13 UNL     1      41.683   0.275  35.784  1.00  0.00     0.055 C 
HETATM   20  C15 UNL     1      39.944   1.927  35.377  1.00  0.00     0.037 C 
HETATM   21  C16 UNL     1      40.281   1.135  37.658  1.00  0.00     0.037 C 
ENDBRANCH   1  11
BRANCH   9  22
HETATM   22  C8  UNL     1      43.240  -2.182  28.944  1.00  0.00     0.128 C 
HETATM   23  C9  UNL     1      44.418  -1.402  28.372  1.00  0.00     0.036 C 
HETATM   24  C10 UNL     1      44.440  -1.843  26.936  1.00  0.00     0.083 C 
HETATM   25  C11 UNL     1      44.102  -3.292  27.035  1.00  0.00     0.162 C 
HETATM   26  O2  UNL     1      44.318  -4.076  26.131  1.00  0.00    -0.295 OA
HETATM   27  C12 UNL     1      43.492  -3.564  28.365  1.00  0.00     0.262 C 
HETATM   28  F1  UNL     1      44.406  -4.182  29.175  1.00  0.00    -0.239 F 
ENDBRANCH   9  22
TORSDOF 2
ENDMDL
MODEL 2
REMARK VINA RESULT: -6.748287346      1.225      2.450
REMARK  2 active torsions:
REMARK  status: ('A' for Active; 'I' for Inactive)
REMARK    1  A    between atoms: C5_5  and  N1_6 
REMARK       I    between atoms: N1_6  and  C6_8 
REMARK       I    between atoms: N3_10  and  C7_12 
REMARK       I    between atoms: C7_12  and  N4_14 
REMARK    2  A    between atoms: N4_14  and  C8_16 
ROOT
HETATM    1  N1  UNL     1      44.923   0.207  35.262  1.00  0.00    -0.360 N 
ATOM      2  H1  UNL     1      45.833  -0.198  35.481  1.00  0.00     0.162 HD
HETATM    3  C6  UNL     1      44.415   0.110  33.952  1.00  0.00     0.192 C 
HETATM    4  N2  UNL     1      44.735   1.131  33.022  1.00  0.00    -0.063 NA
HETATM    5  N3  UNL     1      43.677  -0.868  33.578  1.00  0.00    -0.283 N 
ATOM      6  H3  UNL     1      43.438  -1.611  34.235  1.00  0.00     0.173 HD
HETATM    7  C7  UNL     1      43.197  -0.912  32.249  1.00  0.00     0.323 C 
HETATM    8  O1  UNL     1      42.122  -0.321  31.981  1.00  0.00    -0.247 OA
HETATM    9  N4  UNL     1      43.872  -1.592  31.202  1.00  0.00    -0.335 N 
ATOM     10  H4  UNL     1      44.746  -2.076  31.407  1.00  0.00     0.164 HD
ENDROOT
BRANCH   1  11
HETATM   11  C5  UNL     1      44.167   0.875  36.300  1.00  0.00     0.088 C 
HETATM   12  C4  UNL     1      42.688   0.945  35.979  1.00  0.00     0.055 C 
HETATM   13  C2  UNL     1      41.979   1.484  37.172  1.00  0.00     0.021 C 
HETATM   14  C1  UNL     1      41.248   0.306  37.833  1.00  0.00     0.037 C 
HETATM   15  C3  UNL     1      40.864   2.430  36.710  1.00  0.00     0.037 C 
HETATM   16  N5  UNL     1      42.777   2.102  38.150  1.00  0.00    -0.405 N 
HETATM   17  C14 UNL     1      43.900   2.850  37.721  1.00  0.00     0.021 C 
ATOM     18  H5  UNL     1      42.554   2.015  39.141  1.00  0.00     0.154 HD
HETATM   19  C13 UNL     1      44.624   2.283  36.531  1.00  0.00     0.055 C 
HETATM   20  C15 UNL     1      44.906   2.886  38.870  1.00  0.00     0.037 C 
HETATM   21  C16 UNL     1      43.474   4.283  37.478  1.00  0.00     0.037 C 
ENDBRANCH   1  11
BRANCH   9  22
HETATM   22  C8  UNL     1      43.357  -1.618  29.862  1.00  0.00     0.128 C 
HETATM   23  C9  UNL     1      44.448  -1.286  28.851  1.00  0.00     0.036 C 
HETATM   24  C10 UNL     1      43.844  -1.740  27.552  1.00  0.00     0.083 C 
HETATM   25  C11 UNL     1      43.134  -2.991  27.942  1.00  0.00     0.162 C 
HETATM   26  O2  UNL     1      42.778  -3.821  27.129  1.00  0.00    -0.295 OA
HETATM   27  C12 UNL     1      42.961  -3.017  29.421  1.00  0.00     0.262 C 
HETATM   28  F1  UNL     1      43.861  -3.886  29.977  1.00  0.00    -0.239 F 
ENDBRANCH   9  22
TORSDOF 2
ENDMDL
MODEL 3
REMARK VINA RESULT: -6.734035971      0.946      2.238
REMARK  2 active torsions:
REMARK  status: ('A' for Active; 'I' for Inactive)
REMARK    1  A    between atoms: C5_5  and  N1_6 
REMARK       I    between atoms: N1_6  and  C6_8 
REMARK       I    between atoms: N3_10  and  C7_12 
REMARK       I    between atoms: C7_12  and  N4_14 
REMARK    2  A    between atoms: N4_14  and  C8_16 
ROOT
HETATM    1  N1  UNL     1      43.655  -0.794  34.683  1.00  0.00    -0.360 N 
ATOM      2  H1  UNL     1      44.431  -1.333  35.066  1.00  0.00     0.162 HD
HETATM    3  C6  UNL     1      43.520  -0.663  33.287  1.00  0.00     0.192 C 
HETATM    4  N2  UNL     1      44.169   0.418  32.641  1.00  0.00    -0.063 NA
HETATM    5  N3  UNL     1      42.832  -1.488  32.589  1.00  0.00    -0.283 N 
ATOM      6  H3  UNL     1      42.358  -2.271  33.040  1.00  0.00     0.173 HD
HETATM    7  C7  UNL     1      42.733  -1.306  31.191  1.00  0.00     0.323 C 
HETATM    8  O1  UNL     1      41.828  -0.557  30.747  1.00  0.00    -0.247 OA
HETATM    9  N4  UNL     1      43.608  -1.929  30.263  1.00  0.00    -0.335 N 
ATOM     10  H4  UNL     1      44.347  -2.539  30.611  1.00  0.00     0.164 HD
ENDROOT
BRANCH   1  11
HETATM   11  C5  UNL     1      42.704  -0.172  35.579  1.00  0.00     0.088 C 
HETATM   12  C4  UNL     1      41.489   0.362  34.847  1.00  0.00     0.055 C 
HETATM   13  C2  UNL     1      40.500   0.819  35.861  1.00  0.00     0.021 C 
HETATM   14  C1  UNL     1      39.373  -0.224  35.894  1.00  0.00     0.037 C 
HETATM   15  C3  UNL     1      39.830   2.106  35.367  1.00  0.00     0.037 C 
HETATM   16  N5  UNL     1      40.976   0.983  37.174  1.00  0.00    -0.405 N 
HETATM   17  C14 UNL     1      42.294   1.468  37.349  1.00  0.00     0.021 C 
ATOM     18  H5  UNL     1      40.389   0.759  37.976  1.00  0.00     0.154 HD
HETATM   19  C13 UNL     1      43.292   0.981  36.335  1.00  0.00     0.055 C 
HETATM   20  C15 UNL     1      42.790   0.994  38.715  1.00  0.00     0.037 C 
HETATM   21  C16 UNL     1      42.260   2.982  37.407  1.00  0.00     0.037 C 
ENDBRANCH   1  11
BRANCH   9  22
HETATM   22  C8  UNL     1      43.481  -1.724  28.848  1.00  0.00     0.128 C 
HETATM   23  C9  UNL     1      44.738  -1.082  28.273  1.00  0.00     0.036 C 
HETATM   24  C10 UNL     1      44.580  -1.310  26.797  1.00  0.00     0.083 C 
HETATM   25  C11 UNL     1      43.993  -2.679  26.740  1.00  0.00     0.162 C 
HETATM   26  O2  UNL     1      43.999  -3.351  25.726  1.00  0.00    -0.295 OA
HETATM   27  C12 UNL     1      43.437  -3.031  28.075  1.00  0.00     0.262 C 
HETATM   28  F1  UNL     1      44.277  -3.905  28.710  1.00  0.00    -0.239 F 
ENDBRANCH   9  22
TORSDOF 2
ENDMDL
MODEL 4
REMARK VINA RESULT: -6.486555421      2.375      3.718
REMARK  2 active torsions:
REMARK  status: ('A' for Active; 'I' for Inactive)
REMARK    1  A    between atoms: C5_5  and  N1_6 
REMARK       I    between atoms: N1_6  and  C6_8 
REMARK       I    between atoms: N3_10  and  C7_12 
REMARK       I    between atoms: C7_12  and  N4_14 
REMARK    2  A    between atoms: N4_14  and  C8_16 
ROOT
HETATM    1  N1  UNL     1      41.569  -0.330  32.201  1.00  0.00    -0.360 N 
ATOM      2  H1  UNL     1      41.277   0.618  31.964  1.00  0.00     0.162 HD
HETATM    3  C6  UNL     1      42.076  -1.175  31.195  1.00  0.00     0.192 C 
HETATM    4  N2  UNL     1      41.168  -1.982  30.465  1.00  0.00    -0.063 NA
HETATM    5  N3  UNL     1      43.327  -1.236  30.923  1.00  0.00    -0.283 N 
ATOM      6  H3  UNL     1      43.993  -0.662  31.441  1.00  0.00     0.173 HD
HETATM    7  C7  UNL     1      43.777  -2.103  29.902  1.00  0.00     0.323 C 
HETATM    8  O1  UNL     1      44.036  -3.295  30.199  1.00  0.00    -0.247 OA
HETATM    9  N4  UNL     1      43.951  -1.691  28.555  1.00  0.00    -0.335 N 
ATOM     10  H4  UNL     1      43.744  -0.725  28.301  1.00  0.00     0.164 HD
ENDROOT
BRANCH   1  11
HETATM   11  C5  UNL     1      41.457  -0.793  33.568  1.00  0.00     0.088 C 
HETATM   12  C4  UNL     1      40.022  -1.077  33.964  1.00  0.00     0.055 C 
HETATM   13  C2  UNL     1      40.028  -1.708  35.312  1.00  0.00     0.021 C 
HETATM   14  C1  UNL     1      39.719  -3.200  35.113  1.00  0.00     0.037 C 
HETATM   15  C3  UNL     1      38.847  -1.167  36.126  1.00  0.00     0.037 C 
HETATM   16  N5  UNL     1      41.222  -1.607  36.047  1.00  0.00    -0.405 N 
HETATM   17  C14 UNL     1      41.979  -0.417  35.930  1.00  0.00     0.021 C 
ATOM     18  H5  UNL     1      41.534  -2.370  36.647  1.00  0.00     0.154 HD
HETATM   19  C13 UNL     1      41.988   0.200  34.558  1.00  0.00     0.055 C 
HETATM   20  C15 UNL     1      43.432  -0.750  36.270  1.00  0.00     0.037 C 
HETATM   21  C16 UNL     1      41.509   0.572  36.977  1.00  0.00     0.037 C 
ENDBRANCH   1  11
BRANCH   9  22
HETATM   22  C8  UNL     1      44.411  -2.597  27.540  1.00  0.00     0.128 C 
HETATM   23  C9  UNL     1      43.294  -3.533  27.096  1.00  0.00     0.036 C 
HETATM   24  C10 UNL     1      43.829  -4.101  25.812  1.00  0.00     0.083 C 
HETATM   25  C11 UNL     1      44.508  -2.926  25.195  1.00  0.00     0.162 C 
HETATM   26  O2  UNL     1      44.801  -2.886  24.015  1.00  0.00    -0.295 OA
HETATM   27  C12 UNL     1      44.738  -1.888  26.237  1.00  0.00     0.262 C 
HETATM   28  F1  UNL     1      43.830  -0.875  26.089  1.00  0.00    -0.239 F 
ENDBRANCH   9  22
TORSDOF 2
ENDMDL
MODEL 5
REMARK VINA RESULT: -6.429806977      1.920      3.022
REMARK  2 active torsions:
REMARK  status: ('A' for Active; 'I' for Inactive)
REMARK    1  A    between atoms: C5_5  and  N1_6 
REMARK       I    between atoms: N1_6  and  C6_8 
REMARK       I    between atoms: N3_10  and  C7_12 
REMARK       I    between atoms: C7_12  and  N4_14 
REMARK    2  A    between atoms: N4_14  and  C8_16 
ROOT
HETATM    1  N1  UNL     1      42.906  -1.736  33.826  1.00  0.00    -0.360 N 
ATOM      2  H1  UNL     1      43.659  -2.293  34.229  1.00  0.00     0.162 HD
HETATM    3  C6  UNL     1      42.894  -1.477  32.441  1.00  0.00     0.192 C 
HETATM    4  N2  UNL     1      43.568  -0.327  31.960  1.00  0.00    -0.063 NA
HETATM    5  N3  UNL     1      42.296  -2.246  31.610  1.00  0.00    -0.283 N 
ATOM      6  H3  UNL     1      41.805  -3.077  31.941  1.00  0.00     0.173 HD
HETATM    7  C7  UNL     1      42.319  -1.936  30.231  1.00  0.00     0.323 C 
HETATM    8  O1  UNL     1      41.437  -1.167  29.776  1.00  0.00    -0.247 OA
HETATM    9  N4  UNL     1      43.291  -2.452  29.335  1.00  0.00    -0.335 N 
ATOM     10  H4  UNL     1      44.013  -3.077  29.693  1.00  0.00     0.164 HD
ENDROOT
BRANCH   1  11
HETATM   11  C5  UNL     1      41.860  -1.220  34.683  1.00  0.00     0.088 C 
HETATM   12  C4  UNL     1      40.662  -2.145  34.749  1.00  0.00     0.055 C 
HETATM   13  C2  UNL     1      39.726  -1.619  35.781  1.00  0.00     0.021 C 
HETATM   14  C1  UNL     1      39.846  -2.537  37.007  1.00  0.00     0.037 C 
HETATM   15  C3  UNL     1      38.285  -1.801  35.292  1.00  0.00     0.037 C 
HETATM   16  N5  UNL     1      39.940  -0.297  36.207  1.00  0.00    -0.405 N 
HETATM   17  C14 UNL     1      40.384   0.648  35.252  1.00  0.00     0.021 C 
ATOM     18  H5  UNL     1      39.780  -0.026  37.177  1.00  0.00     0.154 HD
HETATM   19  C13 UNL     1      41.349   0.115  34.229  1.00  0.00     0.055 C 
HETATM   20  C15 UNL     1      41.113   1.764  36.001  1.00  0.00     0.037 C 
HETATM   21  C16 UNL     1      39.179   1.289  34.594  1.00  0.00     0.037 C 
ENDBRANCH   1  11
BRANCH   9  22
HETATM   22  C8  UNL     1      43.287  -2.117  27.939  1.00  0.00     0.128 C 
HETATM   23  C9  UNL     1      44.354  -1.075  27.624  1.00  0.00     0.036 C 
HETATM   24  C10 UNL     1      44.459  -1.153  26.127  1.00  0.00     0.083 C 
HETATM   25  C11 UNL     1      44.325  -2.615  25.867  1.00  0.00     0.162 C 
HETATM   26  O2  UNL     1      44.661  -3.125  24.816  1.00  0.00    -0.295 OA
HETATM   27  C12 UNL     1      43.737  -3.275  27.065  1.00  0.00     0.262 C 
HETATM   28  F1  UNL     1      44.716  -3.943  27.751  1.00  0.00    -0.239 F 
ENDBRANCH   9  22
TORSDOF 2
ENDMDL
