MODEL 1
REMARK VINA RESULT: -6.964522104      0.000      0.000
REMARK  5 active torsions:
REMARK  status: ('A' for Active; 'I' for Inactive)
REMARK    1  A    between atoms: C2_2  and  N1_5 
REMARK    2  A    between atoms: N1_5  and  C4_7 
REMARK    3  A    between atoms: C5_10  and  N3_11 
REMARK       I    between atoms: N3_11  and  C6_13 
REMARK       I    between atoms: C6_13  and  N4_15 
REMARK    4  A    between atoms: N4_15  and  C7_17 
REMARK    5  A    between atoms: C12_27  and  C13_28 
ROOT
HETATM    1  C4  UNL     1      39.854  -2.699  29.993  1.00  0.00     0.126 A 
HETATM    2  N2  UNL     1      41.113  -2.422  29.615  1.00  0.00    -0.176 N 
ATOM      3  H2  UNL     1      41.686  -3.157  29.200  1.00  0.00     0.186 HD
HETATM    4  C5  UNL     1      41.632  -1.187  29.775  1.00  0.00     0.687 A 
HETATM    5  N6  UNL     1      40.889  -0.211  30.318  1.00  0.00    -0.201 N 
ATOM      6  H6  UNL     1      41.288   0.721  30.436  1.00  0.00     0.183 HD
HETATM    7  C11 UNL     1      39.619  -0.449  30.711  1.00  0.00     0.117 A 
HETATM    8  C12 UNL     1      39.055  -1.686  30.568  1.00  0.00     0.006 A 
ENDROOT
BRANCH   4   9
HETATM    9  N3  UNL     1      42.841  -0.961  29.401  1.00  0.00    -0.141 N 
HETATM   10  C6  UNL     1      43.627  -1.885  28.675  1.00  0.00     0.334 C 
HETATM   11  O1  UNL     1      44.209  -2.782  29.333  1.00  0.00    -0.246 OA
HETATM   12  N4  UNL     1      43.772  -1.830  27.269  1.00  0.00    -0.336 N 
ATOM     13  H4  UNL     1      43.279  -1.084  26.777  1.00  0.00     0.164 HD
ATOM     14  H3  UNL     1      43.257  -0.062  29.641  1.00  0.00     0.189 HD
BRANCH  12  15
HETATM   15  C7  UNL     1      44.553  -2.734  26.476  1.00  0.00     0.113 C 
HETATM   16  C8  UNL     1      44.641  -2.247  25.055  1.00  0.00     0.054 C 
HETATM   17  C9  UNL     1      44.267  -3.459  24.216  1.00  0.00     0.234 C 
HETATM   18  N5  UNL     1      44.558  -4.589  25.113  1.00  0.00    -0.073 N 
HETATM   19  C10 UNL     1      43.946  -4.106  26.336  1.00  0.00     0.257 C 
ATOM     20  H52 UNL     1      44.244  -5.505  24.790  1.00  0.00     0.277 HD
ATOM     21  H51 UNL     1      45.539  -4.860  25.184  1.00  0.00     0.277 HD
ENDBRANCH  12  15
ENDBRANCH   4   9
BRANCH   1  22
HETATM   22  N1  UNL     1      39.302  -3.833  29.876  1.00  0.00    -0.353 N 
ATOM     23  H1  UNL     1      38.559  -3.886  29.178  1.00  0.00     0.163 HD
BRANCH  22  24
HETATM   24  C2  UNL     1      39.567  -5.050  30.580  1.00  0.00     0.101 C 
HETATM   25  C1  UNL     1      38.313  -5.830  30.903  1.00  0.00     0.056 C 
HETATM   26  C3  UNL     1      40.520  -5.968  29.850  1.00  0.00     0.056 C 
HETATM   27 CL1  UNL     1      40.394  -4.625  32.131  1.00  0.00    -0.096 Cl
ENDBRANCH  22  24
ENDBRANCH   1  22
BRANCH   8  28
HETATM   28  C13 UNL     1      37.679  -1.991  30.979  1.00  0.00     0.024 A 
HETATM   29  C14 UNL     1      36.501  -1.647  30.087  1.00  0.00     0.010 A 
HETATM   30  C15 UNL     1      36.733  -0.931  31.417  1.00  0.00     0.010 A 
ENDBRANCH   8  28
TORSDOF 5
ENDMDL
MODEL 2
REMARK VINA RESULT: -6.808921180      1.067      1.287
REMARK  5 active torsions:
REMARK  status: ('A' for Active; 'I' for Inactive)
REMARK    1  A    between atoms: C2_2  and  N1_5 
REMARK    2  A    between atoms: N1_5  and  C4_7 
REMARK    3  A    between atoms: C5_10  and  N3_11 
REMARK       I    between atoms: N3_11  and  C6_13 
REMARK       I    between atoms: C6_13  and  N4_15 
REMARK    4  A    between atoms: N4_15  and  C7_17 
REMARK    5  A    between atoms: C12_27  and  C13_28 
ROOT
HETATM    1  C4  UNL     1      39.794  -2.495  30.803  1.00  0.00     0.126 A 
HETATM    2  N2  UNL     1      41.052  -2.259  30.392  1.00  0.00    -0.176 N 
ATOM      3  H2  UNL     1      41.686  -3.043  30.240  1.00  0.00     0.186 HD
HETATM    4  C5  UNL     1      41.489  -1.002  30.176  1.00  0.00     0.687 A 
HETATM    5  N6  UNL     1      40.666   0.039  30.371  1.00  0.00    -0.201 N 
ATOM      6  H6  UNL     1      41.003   0.988  30.205  1.00  0.00     0.183 HD
HETATM    7  C11 UNL     1      39.394  -0.155  30.783  1.00  0.00     0.117 A 
HETATM    8  C12 UNL     1      38.911  -1.413  31.014  1.00  0.00     0.006 A 
ENDROOT
BRANCH   4   9
HETATM    9  N3  UNL     1      42.699  -0.816  29.783  1.00  0.00    -0.141 N 
HETATM   10  C6  UNL     1      43.465  -1.793  29.107  1.00  0.00     0.334 C 
HETATM   11  O1  UNL     1      44.037  -2.661  29.810  1.00  0.00    -0.246 OA
HETATM   12  N4  UNL     1      43.602  -1.819  27.698  1.00  0.00    -0.336 N 
ATOM     13  H4  UNL     1      43.119  -1.094  27.169  1.00  0.00     0.164 HD
ATOM     14  H3  UNL     1      43.132   0.088  29.970  1.00  0.00     0.189 HD
BRANCH  12  15
HETATM   15  C7  UNL     1      44.363  -2.779  26.953  1.00  0.00     0.113 C 
HETATM   16  C8  UNL     1      44.701  -2.239  25.589  1.00  0.00     0.054 C 
HETATM   17  C9  UNL     1      44.295  -3.348  24.632  1.00  0.00     0.234 C 
HETATM   18  N5  UNL     1      44.319  -4.549  25.482  1.00  0.00    -0.073 N 
HETATM   19  C10 UNL     1      43.614  -4.049  26.648  1.00  0.00     0.257 C 
ATOM     20  H52 UNL     1      43.940  -5.398  25.063  1.00  0.00     0.277 HD
ATOM     21  H51 UNL     1      45.241  -4.951  25.659  1.00  0.00     0.277 HD
ENDBRANCH  12  15
ENDBRANCH   4   9
BRANCH   1  22
HETATM   22  N1  UNL     1      39.315  -3.646  31.027  1.00  0.00    -0.353 N 
ATOM     23  H1  UNL     1      39.263  -3.913  32.010  1.00  0.00     0.163 HD
BRANCH  22  24
HETATM   24  C2  UNL     1      38.837  -4.626  30.101  1.00  0.00     0.101 C 
HETATM   25  C1  UNL     1      39.877  -5.667  29.753  1.00  0.00     0.056 C 
HETATM   26  C3  UNL     1      37.593  -5.341  30.575  1.00  0.00     0.056 C 
HETATM   27 CL1  UNL     1      38.355  -3.768  28.583  1.00  0.00    -0.096 Cl
ENDBRANCH  22  24
ENDBRANCH   1  22
BRANCH   8  28
HETATM   28  C13 UNL     1      37.537  -1.673  31.461  1.00  0.00     0.024 A 
HETATM   29  C14 UNL     1      36.358  -1.461  30.532  1.00  0.00     0.010 A 
HETATM   30  C15 UNL     1      36.581  -0.573  31.755  1.00  0.00     0.010 A 
ENDBRANCH   8  28
TORSDOF 5
ENDMDL
MODEL 3
REMARK VINA RESULT: -6.493529246      1.897      3.427
REMARK  5 active torsions:
REMARK  status: ('A' for Active; 'I' for Inactive)
REMARK    1  A    between atoms: C2_2  and  N1_5 
REMARK    2  A    between atoms: N1_5  and  C4_7 
REMARK    3  A    between atoms: C5_10  and  N3_11 
REMARK       I    between atoms: N3_11  and  C6_13 
REMARK       I    between atoms: C6_13  and  N4_15 
REMARK    4  A    between atoms: N4_15  and  C7_17 
REMARK    5  A    between atoms: C12_27  and  C13_28 
ROOT
HETATM    1  C4  UNL     1      39.158  -0.186  31.488  1.00  0.00     0.126 A 
HETATM    2  N2  UNL     1      40.472  -0.046  31.244  1.00  0.00    -0.176 N 
ATOM      3  H2  UNL     1      40.995   0.691  31.716  1.00  0.00     0.186 HD
HETATM    4  C5  UNL     1      41.111  -0.865  30.384  1.00  0.00     0.687 A 
HETATM    5  N6  UNL     1      40.436  -1.840  29.756  1.00  0.00    -0.201 N 
ATOM      6  H6  UNL     1      40.926  -2.456  29.107  1.00  0.00     0.183 HD
HETATM    7  C11 UNL     1      39.114  -2.014  29.974  1.00  0.00     0.117 A 
HETATM    8  C12 UNL     1      38.429  -1.205  30.838  1.00  0.00     0.006 A 
ENDROOT
BRANCH   4   9
HETATM    9  N3  UNL     1      42.369  -0.700  30.175  1.00  0.00    -0.141 N 
HETATM   10  C6  UNL     1      43.187  -1.641  29.509  1.00  0.00     0.334 C 
HETATM   11  O1  UNL     1      43.628  -2.599  30.189  1.00  0.00    -0.246 OA
HETATM   12  N4  UNL     1      43.514  -1.536  28.136  1.00  0.00    -0.336 N 
ATOM     13  H4  UNL     1      43.132  -0.740  27.625  1.00  0.00     0.164 HD
ATOM     14  H3  UNL     1      42.802   0.161  30.510  1.00  0.00     0.189 HD
BRANCH  12  15
HETATM   15  C7  UNL     1      44.337  -2.453  27.403  1.00  0.00     0.113 C 
HETATM   16  C8  UNL     1      44.743  -1.857  26.083  1.00  0.00     0.054 C 
HETATM   17  C9  UNL     1      44.417  -2.937  25.064  1.00  0.00     0.234 C 
HETATM   18  N5  UNL     1      44.415  -4.168  25.870  1.00  0.00    -0.073 N 
HETATM   19  C10 UNL     1      43.632  -3.725  27.009  1.00  0.00     0.257 C 
ATOM     20  H52 UNL     1      44.078  -5.008  25.398  1.00  0.00     0.277 HD
ATOM     21  H51 UNL     1      45.333  -4.559  26.087  1.00  0.00     0.277 HD
ENDBRANCH  12  15
ENDBRANCH   4   9
BRANCH   1  22
HETATM   22  N1  UNL     1      38.493   0.545  32.281  1.00  0.00    -0.353 N 
ATOM     23  H1  UNL     1      37.952   1.288  31.837  1.00  0.00     0.163 HD
BRANCH  22  24
HETATM   24  C2  UNL     1      38.389   0.480  33.706  1.00  0.00     0.101 C 
HETATM   25  C1  UNL     1      39.194   1.550  34.406  1.00  0.00     0.056 C 
HETATM   26  C3  UNL     1      36.965   0.555  34.206  1.00  0.00     0.056 C 
HETATM   27 CL1  UNL     1      39.004  -1.137  34.233  1.00  0.00    -0.096 Cl
ENDBRANCH  22  24
ENDBRANCH   1  22
BRANCH   8  28
HETATM   28  C13 UNL     1      36.994  -1.358  31.109  1.00  0.00     0.024 A 
HETATM   29  C14 UNL     1      36.472  -2.515  31.938  1.00  0.00     0.010 A 
HETATM   30  C15 UNL     1      36.172  -2.404  30.444  1.00  0.00     0.010 A 
ENDBRANCH   8  28
TORSDOF 5
ENDMDL
MODEL 4
REMARK VINA RESULT: -6.489462203      2.799      4.071
REMARK  5 active torsions:
REMARK  status: ('A' for Active; 'I' for Inactive)
REMARK    1  A    between atoms: C2_2  and  N1_5 
REMARK    2  A    between atoms: N1_5  and  C4_7 
REMARK    3  A    between atoms: C5_10  and  N3_11 
REMARK       I    between atoms: N3_11  and  C6_13 
REMARK       I    between atoms: C6_13  and  N4_15 
REMARK    4  A    between atoms: N4_15  and  C7_17 
REMARK    5  A    between atoms: C12_27  and  C13_28 
ROOT
HETATM    1  C4  UNL     1      41.184  -0.776  32.485  1.00  0.00     0.126 A 
HETATM    2  N2  UNL     1      41.492  -0.452  31.218  1.00  0.00    -0.176 N 
ATOM      3  H2  UNL     1      40.981   0.299  30.753  1.00  0.00     0.186 HD
HETATM    4  C5  UNL     1      42.465  -1.104  30.550  1.00  0.00     0.687 A 
HETATM    5  N6  UNL     1      43.146  -2.093  31.148  1.00  0.00    -0.201 N 
ATOM      6  H6  UNL     1      43.881  -2.582  30.636  1.00  0.00     0.183 HD
HETATM    7  C11 UNL     1      42.867  -2.449  32.421  1.00  0.00     0.117 A 
HETATM    8  C12 UNL     1      41.888  -1.815  33.133  1.00  0.00     0.006 A 
ENDROOT
BRANCH   4   9
HETATM    9  N3  UNL     1      42.731  -0.765  29.337  1.00  0.00    -0.141 N 
HETATM   10  C6  UNL     1      43.697  -1.412  28.533  1.00  0.00     0.334 C 
HETATM   11  O1  UNL     1      44.893  -1.063  28.682  1.00  0.00    -0.246 OA
HETATM   12  N4  UNL     1      43.362  -2.413  27.590  1.00  0.00    -0.336 N 
ATOM     13  H4  UNL     1      42.377  -2.664  27.505  1.00  0.00     0.164 HD
ATOM     14  H3  UNL     1      42.215   0.015  28.933  1.00  0.00     0.189 HD
BRANCH  12  15
HETATM   15  C7  UNL     1      44.291  -3.105  26.745  1.00  0.00     0.113 C 
HETATM   16  C8  UNL     1      44.547  -2.318  25.489  1.00  0.00     0.054 C 
HETATM   17  C9  UNL     1      44.357  -3.326  24.366  1.00  0.00     0.234 C 
HETATM   18  N5  UNL     1      44.582  -4.618  25.035  1.00  0.00    -0.073 N 
HETATM   19  C10 UNL     1      43.783  -4.427  26.231  1.00  0.00     0.257 C 
ATOM     20  H52 UNL     1      44.364  -5.448  24.483  1.00  0.00     0.277 HD
ATOM     21  H51 UNL     1      45.557  -4.876  25.189  1.00  0.00     0.277 HD
ENDBRANCH  12  15
ENDBRANCH   4   9
BRANCH   1  22
HETATM   22  N1  UNL     1      40.284  -0.210  33.173  1.00  0.00    -0.353 N 
ATOM     23  H1  UNL     1      40.616   0.292  33.997  1.00  0.00     0.163 HD
BRANCH  22  24
HETATM   24  C2  UNL     1      38.869  -0.173  32.963  1.00  0.00     0.101 C 
HETATM   25  C1  UNL     1      38.078  -0.364  34.237  1.00  0.00     0.056 C 
HETATM   26  C3  UNL     1      38.396   1.099  32.298  1.00  0.00     0.056 C 
HETATM   27 CL1  UNL     1      38.443  -1.507  31.818  1.00  0.00    -0.096 Cl
ENDBRANCH  22  24
ENDBRANCH   1  22
BRANCH   8  28
HETATM   28  C13 UNL     1      41.552  -2.166  34.519  1.00  0.00     0.024 A 
HETATM   29  C14 UNL     1      42.510  -1.870  35.657  1.00  0.00     0.010 A 
HETATM   30  C15 UNL     1      42.199  -3.303  35.225  1.00  0.00     0.010 A 
ENDBRANCH   8  28
TORSDOF 5
ENDMDL
MODEL 5
REMARK VINA RESULT: -6.480290390      2.717      3.681
REMARK  5 active torsions:
REMARK  status: ('A' for Active; 'I' for Inactive)
REMARK    1  A    between atoms: C2_2  and  N1_5 
REMARK    2  A    between atoms: N1_5  and  C4_7 
REMARK    3  A    between atoms: C5_10  and  N3_11 
REMARK       I    between atoms: N3_11  and  C6_13 
REMARK       I    between atoms: C6_13  and  N4_15 
REMARK    4  A    between atoms: N4_15  and  C7_17 
REMARK    5  A    between atoms: C12_27  and  C13_28 
ROOT
HETATM    1  C4  UNL     1      40.703  -1.604  32.106  1.00  0.00     0.126 A 
HETATM    2  N2  UNL     1      41.096  -1.256  30.870  1.00  0.00    -0.176 N 
ATOM      3  H2  UNL     1      40.405  -1.192  30.123  1.00  0.00     0.186 HD
HETATM    4  C5  UNL     1      42.390  -0.990  30.600  1.00  0.00     0.687 A 
HETATM    5  N6  UNL     1      43.310  -1.070  31.573  1.00  0.00    -0.201 N 
ATOM      6  H6  UNL     1      44.288  -0.867  31.361  1.00  0.00     0.183 HD
HETATM    7  C11 UNL     1      42.956  -1.416  32.830  1.00  0.00     0.117 A 
HETATM    8  C12 UNL     1      41.656  -1.694  33.145  1.00  0.00     0.006 A 
ENDROOT
BRANCH   4   9
HETATM    9  N3  UNL     1      42.728  -0.661  29.403  1.00  0.00    -0.141 N 
HETATM   10  C6  UNL     1      43.684  -1.363  28.634  1.00  0.00     0.334 C 
HETATM   11  O1  UNL     1      44.892  -1.092  28.837  1.00  0.00    -0.246 OA
HETATM   12  N4  UNL     1      43.327  -2.334  27.669  1.00  0.00    -0.336 N 
ATOM     13  H4  UNL     1      42.332  -2.521  27.540  1.00  0.00     0.164 HD
ATOM     14  H3  UNL     1      42.280   0.154  28.985  1.00  0.00     0.189 HD
BRANCH  12  15
HETATM   15  C7  UNL     1      44.245  -3.078  26.857  1.00  0.00     0.113 C 
HETATM   16  C8  UNL     1      44.572  -2.318  25.600  1.00  0.00     0.054 C 
HETATM   17  C9  UNL     1      44.366  -3.329  24.483  1.00  0.00     0.234 C 
HETATM   18  N5  UNL     1      44.510  -4.622  25.170  1.00  0.00    -0.073 N 
HETATM   19  C10 UNL     1      43.688  -4.380  26.341  1.00  0.00     0.257 C 
ATOM     20  H52 UNL     1      44.268  -5.447  24.620  1.00  0.00     0.277 HD
ATOM     21  H51 UNL     1      45.467  -4.924  25.353  1.00  0.00     0.277 HD
ENDBRANCH  12  15
ENDBRANCH   4   9
BRANCH   1  22
HETATM   22  N1  UNL     1      39.508  -1.869  32.433  1.00  0.00    -0.353 N 
ATOM     23  H1  UNL     1      39.332  -2.841  32.689  1.00  0.00     0.163 HD
BRANCH  22  24
HETATM   24  C2  UNL     1      38.370  -1.004  32.495  1.00  0.00     0.101 C 
HETATM   25  C1  UNL     1      37.467  -1.130  31.289  1.00  0.00     0.056 C 
HETATM   26  C3  UNL     1      37.533  -1.203  33.737  1.00  0.00     0.056 C 
HETATM   27 CL1  UNL     1      38.973   0.699  32.584  1.00  0.00    -0.096 Cl
ENDBRANCH  22  24
ENDBRANCH   1  22
BRANCH   8  28
HETATM   28  C13 UNL     1      41.223  -2.072  34.497  1.00  0.00     0.024 A 
HETATM   29  C14 UNL     1      41.065  -1.031  35.588  1.00  0.00     0.010 A 
HETATM   30  C15 UNL     1      42.163  -2.093  35.649  1.00  0.00     0.010 A 
ENDBRANCH   8  28
TORSDOF 5
ENDMDL
