MODEL 1
REMARK VINA RESULT: -7.204128475      0.000      0.000
REMARK  7 active torsions:
REMARK  status: ('A' for Active; 'I' for Inactive)
REMARK    1  A    between atoms: C6_10  and  N3_11 
REMARK       I    between atoms: N3_11  and  C7_13 
REMARK       I    between atoms: C7_13  and  N6_24 
REMARK    2  A    between atoms: N4_14  and  C8_16 
REMARK    3  A    between atoms: C8_16  and  C10_18 
REMARK    4  A    between atoms: C10_18  and  C11_19 
REMARK    5  A    between atoms: C11_19  and  N5_20 
REMARK    6  A    between atoms: N6_24  and  C12_26 
REMARK    7  A    between atoms: N7_29  and  C15_30 
ROOT
HETATM    1  C1  UNL     1      42.186  -0.846  36.414  1.00  0.00     0.018 C 
HETATM    2  C2  UNL     1      42.837  -0.407  35.523  1.00  0.00    -0.072 C 
HETATM    3  C3  UNL     1      43.645   0.112  34.458  1.00  0.00     0.086 A 
HETATM    4  C4  UNL     1      44.682   1.010  34.642  1.00  0.00     0.044 A 
HETATM    5  C5  UNL     1      45.123   1.581  35.941  1.00  0.00     0.071 C 
HETATM    6  N1  UNL     1      45.213   1.269  33.440  1.00  0.00    -0.302 N 
ATOM      7  H1  UNL     1      45.996   1.896  33.253  1.00  0.00     0.186 HD
HETATM    8  N2  UNL     1      44.549   0.573  32.543  1.00  0.00    -0.284 N 
ATOM      9  H2  UNL     1      44.749   0.586  31.542  1.00  0.00     0.188 HD
HETATM   10  C6  UNL     1      43.576  -0.155  33.108  1.00  0.00     0.156 A 
ENDROOT
BRANCH  10  11
HETATM   11  N3  UNL     1      42.780  -0.911  32.496  1.00  0.00    -0.174 N 
HETATM   12  C7  UNL     1      41.858  -0.660  31.492  1.00  0.00     0.676 C 
HETATM   13  N4  UNL     1      40.638  -0.417  31.807  1.00  0.00    -0.222 N 
HETATM   14  N6  UNL     1      42.207  -0.672  30.093  1.00  0.00    -0.222 N 
ATOM     15  H4  UNL     1      39.960  -0.234  31.066  1.00  0.00     0.178 HD
ATOM     16  H6  UNL     1      41.906   0.109  29.508  1.00  0.00     0.178 HD
ATOM     17  H3  UNL     1      42.820  -1.887  32.792  1.00  0.00     0.186 HD
BRANCH  13  18
HETATM   18  C8  UNL     1      40.204  -0.396  33.165  1.00  0.00     0.096 C 
HETATM   19  C9  UNL     1      39.610  -1.740  33.598  1.00  0.00     0.032 C 
BRANCH  18  20
HETATM   20  C10 UNL     1      39.107   0.628  33.384  1.00  0.00     0.052 C 
BRANCH  20  21
HETATM   21  C11 UNL     1      38.398   0.798  32.057  1.00  0.00     0.231 C 
BRANCH  21  22
HETATM   22  N5  UNL     1      36.970   0.534  32.226  1.00  0.00    -0.079 N 
ATOM     23  H53 UNL     1      36.657  -0.264  31.673  1.00  0.00     0.274 HD
ATOM     24  H52 UNL     1      36.755   0.164  33.152  1.00  0.00     0.274 HD
ATOM     25  H51 UNL     1      36.440   1.379  32.016  1.00  0.00     0.274 HD
ENDBRANCH  21  22
ENDBRANCH  20  21
ENDBRANCH  18  20
ENDBRANCH  13  18
BRANCH  14  26
HETATM   26  C12 UNL     1      42.957  -1.730  29.489  1.00  0.00     0.102 C 
HETATM   27  C13 UNL     1      44.151  -1.179  28.787  1.00  0.00     0.045 C 
HETATM   28  C14 UNL     1      44.028  -1.138  27.299  1.00  0.00     0.126 C 
HETATM   29  N7  UNL     1      43.634  -2.403  26.747  1.00  0.00    -0.367 N 
HETATM   30  C17 UNL     1      42.936  -3.352  27.582  1.00  0.00     0.083 C 
HETATM   31  C18 UNL     1      43.899  -4.271  28.283  1.00  0.00     0.032 C 
HETATM   32  C19 UNL     1      42.084  -2.577  28.560  1.00  0.00     0.050 C 
BRANCH  29  33
HETATM   33  C15 UNL     1      43.926  -2.718  25.401  1.00  0.00     0.069 C 
HETATM   34  C16 UNL     1      43.977  -4.127  24.925  1.00  0.00     0.088 C 
HETATM   35  N8  UNL     1      44.148  -1.736  24.596  1.00  0.00    -0.389 N 
ATOM     36  H82 UNL     1      44.113  -0.770  24.922  1.00  0.00     0.157 HD
ATOM     37  H81 UNL     1      44.358  -1.963  23.624  1.00  0.00     0.157 HD
ENDBRANCH  29  33
ENDBRANCH  14  26
ENDBRANCH  10  11
TORSDOF 7
ENDMDL
MODEL 2
REMARK VINA RESULT: -6.858444108      1.257      1.396
REMARK  7 active torsions:
REMARK  status: ('A' for Active; 'I' for Inactive)
REMARK    1  A    between atoms: C6_10  and  N3_11 
REMARK       I    between atoms: N3_11  and  C7_13 
REMARK       I    between atoms: C7_13  and  N6_24 
REMARK    2  A    between atoms: N4_14  and  C8_16 
REMARK    3  A    between atoms: C8_16  and  C10_18 
REMARK    4  A    between atoms: C10_18  and  C11_19 
REMARK    5  A    between atoms: C11_19  and  N5_20 
REMARK    6  A    between atoms: N6_24  and  C12_26 
REMARK    7  A    between atoms: N7_29  and  C15_30 
ROOT
HETATM    1  C1  UNL     1      42.507  -0.622  37.060  1.00  0.00     0.018 C 
HETATM    2  C2  UNL     1      42.990  -0.202  36.060  1.00  0.00    -0.072 C 
HETATM    3  C3  UNL     1      43.597   0.296  34.860  1.00  0.00     0.086 A 
HETATM    4  C4  UNL     1      44.595   1.254  34.840  1.00  0.00     0.044 A 
HETATM    5  C5  UNL     1      45.191   1.921  36.026  1.00  0.00     0.071 C 
HETATM    6  N1  UNL     1      44.925   1.471  33.559  1.00  0.00    -0.302 N 
ATOM      7  H1  UNL     1      45.632   2.125  33.224  1.00  0.00     0.186 HD
HETATM    8  N2  UNL     1      44.176   0.691  32.809  1.00  0.00    -0.284 N 
ATOM      9  H2  UNL     1      44.223   0.657  31.790  1.00  0.00     0.188 HD
HETATM   10  C6  UNL     1      43.344  -0.052  33.551  1.00  0.00     0.156 A 
ENDROOT
BRANCH  10  11
HETATM   11  N3  UNL     1      42.512  -0.882  33.105  1.00  0.00    -0.174 N 
HETATM   12  C7  UNL     1      41.478  -0.751  32.190  1.00  0.00     0.676 C 
HETATM   13  N4  UNL     1      40.292  -0.505  32.614  1.00  0.00    -0.222 N 
HETATM   14  N6  UNL     1      41.674  -0.892  30.769  1.00  0.00    -0.222 N 
ATOM     15  H4  UNL     1      39.533  -0.411  31.939  1.00  0.00     0.178 HD
ATOM     16  H6  UNL     1      41.286  -0.179  30.150  1.00  0.00     0.178 HD
ATOM     17  H3  UNL     1      42.615  -1.823  33.486  1.00  0.00     0.186 HD
BRANCH  13  18
HETATM   18  C8  UNL     1      40.008  -0.361  34.004  1.00  0.00     0.096 C 
HETATM   19  C9  UNL     1      39.188  -1.536  34.546  1.00  0.00     0.032 C 
BRANCH  18  20
HETATM   20  C10 UNL     1      39.178   0.879  34.277  1.00  0.00     0.052 C 
BRANCH  20  21
HETATM   21  C11 UNL     1      39.788   1.553  35.489  1.00  0.00     0.231 C 
BRANCH  21  22
HETATM   22  N5  UNL     1      39.189   2.874  35.668  1.00  0.00    -0.079 N 
ATOM     23  H53 UNL     1      38.335   2.987  35.120  1.00  0.00     0.274 HD
ATOM     24  H52 UNL     1      38.784   2.990  36.597  1.00  0.00     0.274 HD
ATOM     25  H51 UNL     1      39.879   3.594  35.456  1.00  0.00     0.274 HD
ENDBRANCH  21  22
ENDBRANCH  20  21
ENDBRANCH  18  20
ENDBRANCH  13  18
BRANCH  14  26
HETATM   26  C12 UNL     1      42.389  -1.987  30.188  1.00  0.00     0.102 C 
HETATM   27  C13 UNL     1      43.762  -1.558  29.801  1.00  0.00     0.045 C 
HETATM   28  C14 UNL     1      43.954  -1.352  28.335  1.00  0.00     0.126 C 
HETATM   29  N7  UNL     1      43.523  -2.482  27.562  1.00  0.00    -0.367 N 
HETATM   30  C17 UNL     1      42.551  -3.391  28.122  1.00  0.00     0.083 C 
HETATM   31  C18 UNL     1      43.222  -4.510  28.871  1.00  0.00     0.032 C 
HETATM   32  C19 UNL     1      41.623  -2.596  29.011  1.00  0.00     0.050 C 
BRANCH  29  33
HETATM   33  C15 UNL     1      44.042  -2.703  26.266  1.00  0.00     0.069 C 
HETATM   34  C16 UNL     1      43.718  -3.936  25.498  1.00  0.00     0.088 C 
HETATM   35  N8  UNL     1      44.810  -1.794  25.771  1.00  0.00    -0.389 N 
ATOM     36  H82 UNL     1      45.032  -0.949  26.297  1.00  0.00     0.157 HD
ATOM     37  H81 UNL     1      45.185  -1.953  24.837  1.00  0.00     0.157 HD
ENDBRANCH  29  33
ENDBRANCH  14  26
ENDBRANCH  10  11
TORSDOF 7
ENDMDL
MODEL 3
REMARK VINA RESULT: -6.696316706      1.935      2.508
REMARK  7 active torsions:
REMARK  status: ('A' for Active; 'I' for Inactive)
REMARK    1  A    between atoms: C6_10  and  N3_11 
REMARK       I    between atoms: N3_11  and  C7_13 
REMARK       I    between atoms: C7_13  and  N6_24 
REMARK    2  A    between atoms: N4_14  and  C8_16 
REMARK    3  A    between atoms: C8_16  and  C10_18 
REMARK    4  A    between atoms: C10_18  and  C11_19 
REMARK    5  A    between atoms: C11_19  and  N5_20 
REMARK    6  A    between atoms: N6_24  and  C12_26 
REMARK    7  A    between atoms: N7_29  and  C15_30 
ROOT
HETATM    1  C1  UNL     1      44.346   0.067  32.664  1.00  0.00     0.018 C 
HETATM    2  C2  UNL     1      43.392   0.054  33.371  1.00  0.00    -0.072 C 
HETATM    3  C3  UNL     1      42.239   0.065  34.225  1.00  0.00     0.086 A 
HETATM    4  C4  UNL     1      42.238   0.566  35.514  1.00  0.00     0.044 A 
HETATM    5  C5  UNL     1      43.402   1.161  36.222  1.00  0.00     0.071 C 
HETATM    6  N1  UNL     1      41.001   0.420  36.006  1.00  0.00    -0.302 N 
ATOM      7  H1  UNL     1      40.689   0.696  36.937  1.00  0.00     0.186 HD
HETATM    8  N2  UNL     1      40.258  -0.145  35.078  1.00  0.00    -0.284 N 
ATOM      9  H2  UNL     1      39.270  -0.371  35.193  1.00  0.00     0.188 HD
HETATM   10  C6  UNL     1      40.963  -0.385  33.964  1.00  0.00     0.156 A 
ENDROOT
BRANCH  10  11
HETATM   11  N3  UNL     1      40.516  -0.919  32.918  1.00  0.00    -0.174 N 
HETATM   12  C7  UNL     1      40.303  -0.416  31.644  1.00  0.00     0.676 C 
HETATM   13  N4  UNL     1      39.145   0.044  31.336  1.00  0.00    -0.222 N 
HETATM   14  N6  UNL     1      41.331  -0.395  30.633  1.00  0.00    -0.222 N 
ATOM     15  H4  UNL     1      38.990   0.412  30.397  1.00  0.00     0.178 HD
ATOM     16  H6  UNL     1      41.490   0.471  30.116  1.00  0.00     0.178 HD
ATOM     17  H3  UNL     1      40.264  -1.902  33.026  1.00  0.00     0.186 HD
BRANCH  13  18
HETATM   18  C8  UNL     1      38.069   0.052  32.272  1.00  0.00     0.096 C 
HETATM   19  C9  UNL     1      36.779  -0.509  31.666  1.00  0.00     0.032 C 
BRANCH  18  20
HETATM   20  C10 UNL     1      37.733   1.460  32.722  1.00  0.00     0.052 C 
BRANCH  20  21
HETATM   21  C11 UNL     1      36.317   1.421  33.257  1.00  0.00     0.231 C 
BRANCH  21  22
HETATM   22  N5  UNL     1      35.902   2.768  33.645  1.00  0.00    -0.079 N 
ATOM     23  H53 UNL     1      35.924   2.902  34.656  1.00  0.00     0.274 HD
ATOM     24  H52 UNL     1      36.594   3.472  33.388  1.00  0.00     0.274 HD
ATOM     25  H51 UNL     1      34.984   2.970  33.250  1.00  0.00     0.274 HD
ENDBRANCH  21  22
ENDBRANCH  20  21
ENDBRANCH  18  20
ENDBRANCH  13  18
BRANCH  14  26
HETATM   26  C12 UNL     1      42.138  -1.535  30.323  1.00  0.00     0.102 C 
HETATM   27  C13 UNL     1      43.442  -1.101  29.745  1.00  0.00     0.045 C 
HETATM   28  C14 UNL     1      43.555  -1.288  28.268  1.00  0.00     0.126 C 
HETATM   29  N7  UNL     1      43.219  -2.623  27.858  1.00  0.00    -0.367 N 
HETATM   30  C17 UNL     1      42.374  -3.430  28.705  1.00  0.00     0.083 C 
HETATM   31  C18 UNL     1      43.190  -4.233  29.681  1.00  0.00     0.032 C 
HETATM   32  C19 UNL     1      41.399  -2.513  29.406  1.00  0.00     0.050 C 
BRANCH  29  33
HETATM   33  C15 UNL     1      43.710  -3.141  26.639  1.00  0.00     0.069 C 
HETATM   34  C16 UNL     1      44.524  -2.309  25.711  1.00  0.00     0.088 C 
HETATM   35  N8  UNL     1      43.427  -4.367  26.358  1.00  0.00    -0.389 N 
ATOM     36  H82 UNL     1      42.869  -4.938  26.994  1.00  0.00     0.157 HD
ATOM     37  H81 UNL     1      43.781  -4.742  25.478  1.00  0.00     0.157 HD
ENDBRANCH  29  33
ENDBRANCH  14  26
ENDBRANCH  10  11
TORSDOF 7
ENDMDL
MODEL 4
REMARK VINA RESULT: -6.665125879      4.059      7.076
REMARK  7 active torsions:
REMARK  status: ('A' for Active; 'I' for Inactive)
REMARK    1  A    between atoms: C6_10  and  N3_11 
REMARK       I    between atoms: N3_11  and  C7_13 
REMARK       I    between atoms: C7_13  and  N6_24 
REMARK    2  A    between atoms: N4_14  and  C8_16 
REMARK    3  A    between atoms: C8_16  and  C10_18 
REMARK    4  A    between atoms: C10_18  and  C11_19 
REMARK    5  A    between atoms: C11_19  and  N5_20 
REMARK    6  A    between atoms: N6_24  and  C12_26 
REMARK    7  A    between atoms: N7_29  and  C15_30 
ROOT
HETATM    1  C1  UNL     1      43.035  -0.947  31.291  1.00  0.00     0.018 C 
HETATM    2  C2  UNL     1      42.041  -1.425  30.852  1.00  0.00    -0.072 C 
HETATM    3  C3  UNL     1      40.837  -1.982  30.305  1.00  0.00     0.086 A 
HETATM    4  C4  UNL     1      39.596  -1.377  30.396  1.00  0.00     0.044 A 
HETATM    5  C5  UNL     1      39.301  -0.082  31.061  1.00  0.00     0.071 C 
HETATM    6  N1  UNL     1      38.712  -2.169  29.775  1.00  0.00    -0.302 N 
ATOM      7  H1  UNL     1      37.713  -1.990  29.675  1.00  0.00     0.186 HD
HETATM    8  N2  UNL     1      39.359  -3.219  29.316  1.00  0.00    -0.284 N 
ATOM      9  H2  UNL     1      38.921  -3.984  28.801  1.00  0.00     0.188 HD
HETATM   10  C6  UNL     1      40.664  -3.159  29.611  1.00  0.00     0.156 A 
ENDROOT
BRANCH  10  11
HETATM   11  N3  UNL     1      41.523  -4.024  29.304  1.00  0.00    -0.174 N 
HETATM   12  C7  UNL     1      42.887  -4.095  29.543  1.00  0.00     0.676 C 
HETATM   13  N4  UNL     1      43.704  -3.656  28.655  1.00  0.00    -0.222 N 
HETATM   14  N6  UNL     1      43.438  -4.656  30.752  1.00  0.00    -0.222 N 
ATOM     15  H4  UNL     1      44.707  -3.710  28.833  1.00  0.00     0.178 HD
ATOM     16  H6  UNL     1      44.155  -4.129  31.251  1.00  0.00     0.178 HD
ATOM     17  H3  UNL     1      41.149  -4.818  28.784  1.00  0.00     0.186 HD
BRANCH  13  18
HETATM   18  C8  UNL     1      43.245  -3.095  27.427  1.00  0.00     0.096 C 
HETATM   19  C9  UNL     1      43.746  -3.884  26.214  1.00  0.00     0.032 C 
BRANCH  18  20
HETATM   20  C10 UNL     1      43.756  -1.680  27.236  1.00  0.00     0.052 C 
BRANCH  20  21
HETATM   21  C11 UNL     1      44.552  -1.674  25.948  1.00  0.00     0.231 C 
BRANCH  21  22
HETATM   22  N5  UNL     1      43.960  -0.722  25.010  1.00  0.00    -0.079 N 
ATOM     23  H53 UNL     1      44.407  -0.753  24.094  1.00  0.00     0.274 HD
ATOM     24  H52 UNL     1      43.020  -0.998  24.724  1.00  0.00     0.274 HD
ATOM     25  H51 UNL     1      43.979   0.214  25.415  1.00  0.00     0.274 HD
ENDBRANCH  21  22
ENDBRANCH  20  21
ENDBRANCH  18  20
ENDBRANCH  13  18
BRANCH  14  26
HETATM   26  C12 UNL     1      43.022  -5.918  31.280  1.00  0.00     0.102 C 
HETATM   27  C13 UNL     1      44.058  -6.454  32.208  1.00  0.00     0.045 C 
HETATM   28  C14 UNL     1      44.879  -7.565  31.642  1.00  0.00     0.126 C 
HETATM   29  N7  UNL     1      44.071  -8.619  31.096  1.00  0.00    -0.367 N 
HETATM   30  C17 UNL     1      42.720  -8.330  30.679  1.00  0.00     0.083 C 
HETATM   31  C18 UNL     1      41.746  -8.544  31.805  1.00  0.00     0.032 C 
HETATM   32  C19 UNL     1      42.682  -6.909  30.165  1.00  0.00     0.050 C 
BRANCH  29  33
HETATM   33  C15 UNL     1      44.593  -9.926  30.967  1.00  0.00     0.069 C 
HETATM   34  C16 UNL     1      44.910 -10.759  32.159  1.00  0.00     0.088 C 
HETATM   35  N8  UNL     1      44.785 -10.373  29.773  1.00  0.00    -0.389 N 
ATOM     36  H82 UNL     1      44.568  -9.803  28.956  1.00  0.00     0.157 HD
ATOM     37  H81 UNL     1      45.161 -11.316  29.679  1.00  0.00     0.157 HD
ENDBRANCH  29  33
ENDBRANCH  14  26
ENDBRANCH  10  11
TORSDOF 7
ENDMDL
MODEL 5
REMARK VINA RESULT: -6.631862198      1.422      1.583
REMARK  7 active torsions:
REMARK  status: ('A' for Active; 'I' for Inactive)
REMARK    1  A    between atoms: C6_10  and  N3_11 
REMARK       I    between atoms: N3_11  and  C7_13 
REMARK       I    between atoms: C7_13  and  N6_24 
REMARK    2  A    between atoms: N4_14  and  C8_16 
REMARK    3  A    between atoms: C8_16  and  C10_18 
REMARK    4  A    between atoms: C10_18  and  C11_19 
REMARK    5  A    between atoms: C11_19  and  N5_20 
REMARK    6  A    between atoms: N6_24  and  C12_26 
REMARK    7  A    between atoms: N7_29  and  C15_30 
ROOT
HETATM    1  C1  UNL     1      39.353  -0.407  36.021  1.00  0.00     0.018 C 
HETATM    2  C2  UNL     1      40.362  -0.157  35.447  1.00  0.00    -0.072 C 
HETATM    3  C3  UNL     1      41.594   0.131  34.772  1.00  0.00     0.086 A 
HETATM    4  C4  UNL     1      42.632   0.855  35.333  1.00  0.00     0.044 A 
HETATM    5  C5  UNL     1      42.647   1.448  36.695  1.00  0.00     0.071 C 
HETATM    6  N1  UNL     1      43.616   0.923  34.427  1.00  0.00    -0.302 N 
ATOM      7  H1  UNL     1      44.513   1.393  34.550  1.00  0.00     0.186 HD
HETATM    8  N2  UNL     1      43.224   0.276  33.350  1.00  0.00    -0.284 N 
ATOM      9  H2  UNL     1      43.786   0.174  32.505  1.00  0.00     0.188 HD
HETATM   10  C6  UNL     1      41.993  -0.230  33.503  1.00  0.00     0.156 A 
ENDROOT
BRANCH  10  11
HETATM   11  N3  UNL     1      41.362  -0.891  32.639  1.00  0.00    -0.174 N 
HETATM   12  C7  UNL     1      40.837  -0.532  31.407  1.00  0.00     0.676 C 
HETATM   13  N4  UNL     1      39.611  -0.161  31.331  1.00  0.00    -0.222 N 
HETATM   14  N6  UNL     1      41.610  -0.568  30.191  1.00  0.00    -0.222 N 
ATOM     15  H4  UNL     1      39.226   0.101  30.423  1.00  0.00     0.178 HD
ATOM     16  H6  UNL     1      41.590   0.245  29.575  1.00  0.00     0.178 HD
ATOM     17  H3  UNL     1      41.208  -1.867  32.891  1.00  0.00     0.186 HD
BRANCH  13  18
HETATM   18  C8  UNL     1      38.772  -0.106  32.483  1.00  0.00     0.096 C 
HETATM   19  C9  UNL     1      37.752  -1.249  32.505  1.00  0.00     0.032 C 
BRANCH  18  20
HETATM   20  C10 UNL     1      37.956   1.173  32.517  1.00  0.00     0.052 C 
BRANCH  20  21
HETATM   21  C11 UNL     1      36.545   0.779  32.902  1.00  0.00     0.231 C 
BRANCH  21  22
HETATM   22  N5  UNL     1      35.810   1.963  33.344  1.00  0.00    -0.079 N 
ATOM     23  H53 UNL     1      36.328   2.501  34.039  1.00  0.00     0.274 HD
ATOM     24  H52 UNL     1      35.757   2.676  32.617  1.00  0.00     0.274 HD
ATOM     25  H51 UNL     1      34.888   1.687  33.681  1.00  0.00     0.274 HD
ENDBRANCH  21  22
ENDBRANCH  20  21
ENDBRANCH  18  20
ENDBRANCH  13  18
BRANCH  14  26
HETATM   26  C12 UNL     1      42.404  -1.696  29.810  1.00  0.00     0.102 C 
HETATM   27  C13 UNL     1      43.743  -1.246  29.335  1.00  0.00     0.045 C 
HETATM   28  C14 UNL     1      43.923  -1.295  27.854  1.00  0.00     0.126 C 
HETATM   29  N7  UNL     1      43.576  -2.575  27.303  1.00  0.00    -0.367 N 
HETATM   30  C17 UNL     1      42.672  -3.435  28.029  1.00  0.00     0.083 C 
HETATM   31  C18 UNL     1      43.421  -4.349  28.959  1.00  0.00     0.032 C 
HETATM   32  C19 UNL     1      41.687  -2.561  28.770  1.00  0.00     0.050 C 
BRANCH  29  33
HETATM   33  C15 UNL     1      44.113  -2.988  26.062  1.00  0.00     0.069 C 
HETATM   34  C16 UNL     1      43.806  -4.327  25.490  1.00  0.00     0.088 C 
HETATM   35  N8  UNL     1      44.881  -2.160  25.442  1.00  0.00    -0.389 N 
ATOM     36  H82 UNL     1      45.092  -1.242  25.834  1.00  0.00     0.157 HD
ATOM     37  H81 UNL     1      45.269  -2.458  24.547  1.00  0.00     0.157 HD
ENDBRANCH  29  33
ENDBRANCH  14  26
ENDBRANCH  10  11
TORSDOF 7
ENDMDL
