MODEL 1
REMARK VINA RESULT: -7.272035372      0.000      0.000
REMARK  6 active torsions:
REMARK  status: ('A' for Active; 'I' for Inactive)
REMARK       I    between atoms: N3_4  and  C2_6 
REMARK    1  A    between atoms: N5_8  and  C3_10 
REMARK    2  A    between atoms: C3_10  and  N6_12 
REMARK    3  A    between atoms: N6_12  and  C4_14 
REMARK    4  A    between atoms: C4_14  and  C5_15 
REMARK       I    between atoms: C5_15  and  N7_17 
REMARK    5  A    between atoms: N7_17  and  C6_19 
REMARK    6  A    between atoms: C6_19  and  C7_20 
ROOT
HETATM    1  C4  UNL     1      40.853  -1.433  30.995  1.00  0.00     0.113 C 
HETATM    2  C13 UNL     1      40.275  -2.003  32.275  1.00  0.00     0.041 C 
HETATM    3  C14 UNL     1      38.826  -2.391  32.097  1.00  0.00     0.003 C 
HETATM    4  C15 UNL     1      37.976  -1.181  31.764  1.00  0.00     0.000 C 
HETATM    5  C16 UNL     1      38.873   0.022  31.559  1.00  0.00     0.003 C 
HETATM    6  C17 UNL     1      39.929  -0.283  30.540  1.00  0.00     0.041 C 
ENDROOT
BRANCH   1   7
HETATM    7  N6  UNL     1      40.884  -2.379  29.911  1.00  0.00    -0.349 N 
ATOM      8  H6  UNL     1      40.129  -2.307  29.229  1.00  0.00     0.163 HD
BRANCH   7   9
HETATM    9  C3  UNL     1      41.832  -3.388  29.682  1.00  0.00     0.175 C 
HETATM   10  S1  UNL     1      42.554  -4.158  30.908  1.00  0.00    -0.041 SA
BRANCH   9  11
HETATM   11  N5  UNL     1      42.172  -3.761  28.362  1.00  0.00    -0.307 N 
HETATM   12  C2  UNL     1      43.107  -3.247  27.669  1.00  0.00     0.196 C 
HETATM   13  N3  UNL     1      43.967  -2.199  28.130  1.00  0.00    -0.307 N 
HETATM   14  N4  UNL     1      43.338  -3.721  26.354  1.00  0.00    -0.063 NA
HETATM   15  C1  UNL     1      44.292  -1.200  27.390  1.00  0.00     0.203 C 
ATOM     16  H3  UNL     1      44.334  -2.247  29.080  1.00  0.00     0.170 HD
HETATM   17  N1  UNL     1      43.853  -1.013  26.058  1.00  0.00    -0.066 NA
HETATM   18  N2  UNL     1      45.156  -0.223  27.973  1.00  0.00    -0.066 NA
ATOM     19  H5  UNL     1      41.622  -4.503  27.929  1.00  0.00     0.171 HD
ENDBRANCH   9  11
ENDBRANCH   7   9
ENDBRANCH   1   7
BRANCH   1  20
HETATM   20  C5  UNL     1      42.152  -0.762  31.248  1.00  0.00     0.246 C 
HETATM   21  O1  UNL     1      42.743  -0.260  30.260  1.00  0.00    -0.271 OA
HETATM   22  N7  UNL     1      42.754  -0.653  32.503  1.00  0.00    -0.359 N 
ATOM     23  H7  UNL     1      42.265  -1.065  33.298  1.00  0.00     0.162 HD
BRANCH  22  24
HETATM   24  C6  UNL     1      44.016  -0.001  32.760  1.00  0.00     0.127 C 
BRANCH  24  25
HETATM   25  C7  UNL     1      43.957   0.997  33.873  1.00  0.00     0.003 C 
HETATM   26  C8  UNL     1      42.747   0.743  34.763  1.00  0.00     0.006 C 
HETATM   27  C9  UNL     1      42.653   1.921  35.719  1.00  0.00     0.000 C 
HETATM   28  C10 UNL     1      43.819   1.799  36.682  1.00  0.00     0.000 C 
HETATM   29  C11 UNL     1      45.082   1.931  35.845  1.00  0.00     0.000 C 
HETATM   30  C12 UNL     1      45.169   0.843  34.802  1.00  0.00     0.006 C 
ENDBRANCH  24  25
ENDBRANCH  22  24
ENDBRANCH   1  20
TORSDOF 6
ENDMDL
MODEL 2
REMARK VINA RESULT: -6.982821313      2.339      6.242
REMARK  6 active torsions:
REMARK  status: ('A' for Active; 'I' for Inactive)
REMARK       I    between atoms: N3_4  and  C2_6 
REMARK    1  A    between atoms: N5_8  and  C3_10 
REMARK    2  A    between atoms: C3_10  and  N6_12 
REMARK    3  A    between atoms: N6_12  and  C4_14 
REMARK    4  A    between atoms: C4_14  and  C5_15 
REMARK       I    between atoms: C5_15  and  N7_17 
REMARK    5  A    between atoms: N7_17  and  C6_19 
REMARK    6  A    between atoms: C6_19  and  C7_20 
ROOT
HETATM    1  C4  UNL     1      39.756  -1.530  31.538  1.00  0.00     0.113 C 
HETATM    2  C13 UNL     1      38.969  -0.236  31.463  1.00  0.00     0.041 C 
HETATM    3  C14 UNL     1      37.505  -0.466  31.755  1.00  0.00     0.003 C 
HETATM    4  C15 UNL     1      36.884  -1.388  30.724  1.00  0.00     0.000 C 
HETATM    5  C16 UNL     1      37.965  -1.917  29.805  1.00  0.00     0.003 C 
HETATM    6  C17 UNL     1      39.065  -2.548  30.605  1.00  0.00     0.041 C 
ENDROOT
BRANCH   1   7
HETATM    7  N6  UNL     1      39.759  -2.122  32.850  1.00  0.00    -0.349 N 
ATOM      8  H6  UNL     1      38.937  -2.673  33.097  1.00  0.00     0.163 HD
BRANCH   7   9
HETATM    9  C3  UNL     1      40.760  -2.028  33.828  1.00  0.00     0.175 C 
HETATM   10  S1  UNL     1      41.819  -3.228  34.065  1.00  0.00    -0.041 SA
BRANCH   9  11
HETATM   11  N5  UNL     1      40.869  -0.869  34.629  1.00  0.00    -0.307 N 
HETATM   12  C2  UNL     1      41.725   0.059  34.469  1.00  0.00     0.196 C 
HETATM   13  N3  UNL     1      42.719   0.068  33.439  1.00  0.00    -0.307 N 
HETATM   14  N4  UNL     1      41.719   1.169  35.350  1.00  0.00    -0.063 NA
HETATM   15  C1  UNL     1      43.936   0.417  33.660  1.00  0.00     0.203 C 
ATOM     16  H3  UNL     1      42.452  -0.214  32.496  1.00  0.00     0.170 HD
HETATM   17  N1  UNL     1      44.436   0.829  34.917  1.00  0.00    -0.066 NA
HETATM   18  N2  UNL     1      44.827   0.380  32.544  1.00  0.00    -0.066 NA
ATOM     19  H5  UNL     1      40.207  -0.768  35.399  1.00  0.00     0.171 HD
ENDBRANCH   9  11
ENDBRANCH   7   9
ENDBRANCH   1   7
BRANCH   1  20
HETATM   20  C5  UNL     1      41.106  -1.370  30.945  1.00  0.00     0.246 C 
HETATM   21  O1  UNL     1      41.559  -0.202  30.851  1.00  0.00    -0.271 OA
HETATM   22  N7  UNL     1      41.899  -2.424  30.488  1.00  0.00    -0.359 N 
ATOM     23  H7  UNL     1      41.521  -3.369  30.569  1.00  0.00     0.162 HD
BRANCH  22  24
HETATM   24  C6  UNL     1      43.214  -2.279  29.910  1.00  0.00     0.127 C 
BRANCH  24  25
HETATM   25  C7  UNL     1      43.209  -2.260  28.413  1.00  0.00     0.003 C 
HETATM   26  C8  UNL     1      44.180  -1.213  27.883  1.00  0.00     0.006 C 
HETATM   27  C9  UNL     1      43.946  -1.120  26.384  1.00  0.00     0.000 C 
HETATM   28  C10 UNL     1      44.466  -2.410  25.777  1.00  0.00     0.000 C 
HETATM   29  C11 UNL     1      43.612  -3.530  26.351  1.00  0.00     0.000 C 
HETATM   30  C12 UNL     1      43.724  -3.594  27.855  1.00  0.00     0.006 C 
ENDBRANCH  24  25
ENDBRANCH  22  24
ENDBRANCH   1  20
TORSDOF 6
ENDMDL
MODEL 3
REMARK VINA RESULT: -6.950204217      2.728      6.345
REMARK  6 active torsions:
REMARK  status: ('A' for Active; 'I' for Inactive)
REMARK       I    between atoms: N3_4  and  C2_6 
REMARK    1  A    between atoms: N5_8  and  C3_10 
REMARK    2  A    between atoms: C3_10  and  N6_12 
REMARK    3  A    between atoms: N6_12  and  C4_14 
REMARK    4  A    between atoms: C4_14  and  C5_15 
REMARK       I    between atoms: C5_15  and  N7_17 
REMARK    5  A    between atoms: N7_17  and  C6_19 
REMARK    6  A    between atoms: C6_19  and  C7_20 
ROOT
HETATM    1  C4  UNL     1      39.541  -3.319  30.501  1.00  0.00     0.113 C 
HETATM    2  C13 UNL     1      38.912  -2.859  29.202  1.00  0.00     0.041 C 
HETATM    3  C14 UNL     1      37.411  -2.734  29.332  1.00  0.00     0.003 C 
HETATM    4  C15 UNL     1      36.780  -4.077  29.644  1.00  0.00     0.000 C 
HETATM    5  C16 UNL     1      37.869  -5.102  29.882  1.00  0.00     0.003 C 
HETATM    6  C17 UNL     1      38.822  -4.616  30.932  1.00  0.00     0.041 C 
ENDROOT
BRANCH   1   7
HETATM    7  N6  UNL     1      39.369  -2.384  31.582  1.00  0.00    -0.349 N 
ATOM      8  H6  UNL     1      38.959  -2.757  32.438  1.00  0.00     0.163 HD
BRANCH   7   9
HETATM    9  C3  UNL     1      39.700  -1.021  31.595  1.00  0.00     0.175 C 
HETATM   10  S1  UNL     1      38.614   0.105  32.006  1.00  0.00    -0.041 SA
BRANCH   9  11
HETATM   11  N5  UNL     1      41.006  -0.601  31.252  1.00  0.00    -0.307 N 
HETATM   12  C2  UNL     1      42.039  -0.736  31.984  1.00  0.00     0.196 C 
HETATM   13  N3  UNL     1      42.032  -1.342  33.281  1.00  0.00    -0.307 N 
HETATM   14  N4  UNL     1      43.289  -0.267  31.512  1.00  0.00    -0.063 NA
HETATM   15  C1  UNL     1      42.681  -0.849  34.274  1.00  0.00     0.203 C 
ATOM     16  H3  UNL     1      41.493  -2.196  33.421  1.00  0.00     0.170 HD
HETATM   17  N1  UNL     1      43.467   0.326  34.215  1.00  0.00    -0.066 NA
HETATM   18  N2  UNL     1      42.589  -1.552  35.514  1.00  0.00    -0.066 NA
ATOM     19  H5  UNL     1      41.130  -0.153  30.345  1.00  0.00     0.171 HD
ENDBRANCH   9  11
ENDBRANCH   7   9
ENDBRANCH   1   7
BRANCH   1  20
HETATM   20  C5  UNL     1      40.945  -3.749  30.292  1.00  0.00     0.246 C 
HETATM   21  O1  UNL     1      41.648  -3.941  31.315  1.00  0.00    -0.271 OA
HETATM   22  N7  UNL     1      41.532  -3.952  29.041  1.00  0.00    -0.359 N 
ATOM     23  H7  UNL     1      40.952  -3.792  28.217  1.00  0.00     0.162 HD
BRANCH  22  24
HETATM   24  C6  UNL     1      42.897  -4.371  28.827  1.00  0.00     0.127 C 
BRANCH  24  25
HETATM   25  C7  UNL     1      43.705  -3.388  28.038  1.00  0.00     0.003 C 
HETATM   26  C8  UNL     1      43.457  -3.561  26.545  1.00  0.00     0.006 C 
HETATM   27  C9  UNL     1      44.470  -2.681  25.830  1.00  0.00     0.000 C 
HETATM   28  C10 UNL     1      44.060  -1.243  26.083  1.00  0.00     0.000 C 
HETATM   29  C11 UNL     1      44.173  -1.022  27.584  1.00  0.00     0.000 C 
HETATM   30  C12 UNL     1      43.262  -1.952  28.348  1.00  0.00     0.006 C 
ENDBRANCH  24  25
ENDBRANCH  22  24
ENDBRANCH   1  20
TORSDOF 6
ENDMDL
MODEL 4
REMARK VINA RESULT: -6.931027218      2.310      6.217
REMARK  6 active torsions:
REMARK  status: ('A' for Active; 'I' for Inactive)
REMARK       I    between atoms: N3_4  and  C2_6 
REMARK    1  A    between atoms: N5_8  and  C3_10 
REMARK    2  A    between atoms: C3_10  and  N6_12 
REMARK    3  A    between atoms: N6_12  and  C4_14 
REMARK    4  A    between atoms: C4_14  and  C5_15 
REMARK       I    between atoms: C5_15  and  N7_17 
REMARK    5  A    between atoms: N7_17  and  C6_19 
REMARK    6  A    between atoms: C6_19  and  C7_20 
ROOT
HETATM    1  C4  UNL     1      39.551  -2.184  30.844  1.00  0.00     0.113 C 
HETATM    2  C13 UNL     1      38.351  -1.257  30.827  1.00  0.00     0.041 C 
HETATM    3  C14 UNL     1      37.057  -2.033  30.904  1.00  0.00     0.003 C 
HETATM    4  C15 UNL     1      36.895  -2.940  29.700  1.00  0.00     0.000 C 
HETATM    5  C16 UNL     1      38.159  -2.902  28.867  1.00  0.00     0.003 C 
HETATM    6  C17 UNL     1      39.352  -3.221  29.716  1.00  0.00     0.041 C 
ENDROOT
BRANCH   1   7
HETATM    7  N6  UNL     1      39.675  -2.935  32.065  1.00  0.00    -0.349 N 
ATOM      8  H6  UNL     1      38.996  -3.683  32.205  1.00  0.00     0.163 HD
BRANCH   7   9
HETATM    9  C3  UNL     1      40.623  -2.759  33.084  1.00  0.00     0.175 C 
HETATM   10  S1  UNL     1      41.932  -3.705  33.189  1.00  0.00    -0.041 SA
BRANCH   9  11
HETATM   11  N5  UNL     1      40.455  -1.737  34.046  1.00  0.00    -0.307 N 
HETATM   12  C2  UNL     1      41.125  -0.656  34.096  1.00  0.00     0.196 C 
HETATM   13  N3  UNL     1      42.164  -0.309  33.173  1.00  0.00    -0.307 N 
HETATM   14  N4  UNL     1      40.849   0.285  35.118  1.00  0.00    -0.063 NA
HETATM   15  C1  UNL     1      43.273   0.215  33.551  1.00  0.00     0.203 C 
ATOM     16  H3  UNL     1      42.017  -0.486  32.180  1.00  0.00     0.170 HD
HETATM   17  N1  UNL     1      43.604   0.512  34.894  1.00  0.00    -0.066 NA
HETATM   18  N2  UNL     1      44.225   0.512  32.528  1.00  0.00    -0.066 NA
ATOM     19  H5  UNL     1      39.739  -1.877  34.758  1.00  0.00     0.171 HD
ENDBRANCH   9  11
ENDBRANCH   7   9
ENDBRANCH   1   7
BRANCH   1  20
HETATM   20  C5  UNL     1      40.786  -1.466  30.448  1.00  0.00     0.246 C 
HETATM   21  O1  UNL     1      40.813  -0.223  30.626  1.00  0.00    -0.271 OA
HETATM   22  N7  UNL     1      41.913  -2.077  29.894  1.00  0.00    -0.359 N 
ATOM     23  H7  UNL     1      41.881  -3.087  29.753  1.00  0.00     0.162 HD
BRANCH  22  24
HETATM   24  C6  UNL     1      43.121  -1.387  29.506  1.00  0.00     0.127 C 
BRANCH  24  25
HETATM   25  C7  UNL     1      43.810  -2.006  28.330  1.00  0.00     0.003 C 
HETATM   26  C8  UNL     1      42.935  -3.077  27.693  1.00  0.00     0.006 C 
HETATM   27  C9  UNL     1      43.795  -3.787  26.660  1.00  0.00     0.000 C 
HETATM   28  C10 UNL     1      44.018  -2.805  25.525  1.00  0.00     0.000 C 
HETATM   29  C11 UNL     1      44.798  -1.639  26.113  1.00  0.00     0.000 C 
HETATM   30  C12 UNL     1      44.029  -0.965  27.223  1.00  0.00     0.006 C 
ENDBRANCH  24  25
ENDBRANCH  22  24
ENDBRANCH   1  20
TORSDOF 6
ENDMDL
MODEL 5
REMARK VINA RESULT: -6.615474419      1.534      2.010
REMARK  6 active torsions:
REMARK  status: ('A' for Active; 'I' for Inactive)
REMARK       I    between atoms: N3_4  and  C2_6 
REMARK    1  A    between atoms: N5_8  and  C3_10 
REMARK    2  A    between atoms: C3_10  and  N6_12 
REMARK    3  A    between atoms: N6_12  and  C4_14 
REMARK    4  A    between atoms: C4_14  and  C5_15 
REMARK       I    between atoms: C5_15  and  N7_17 
REMARK    5  A    between atoms: N7_17  and  C6_19 
REMARK    6  A    between atoms: C6_19  and  C7_20 
ROOT
HETATM    1  C4  UNL     1      39.826  -2.347  30.894  1.00  0.00     0.113 C 
HETATM    2  C13 UNL     1      38.919  -3.558  30.807  1.00  0.00     0.041 C 
HETATM    3  C14 UNL     1      38.191  -3.605  29.483  1.00  0.00     0.003 C 
HETATM    4  C15 UNL     1      37.287  -2.399  29.318  1.00  0.00     0.000 C 
HETATM    5  C16 UNL     1      37.512  -1.440  30.468  1.00  0.00     0.003 C 
HETATM    6  C17 UNL     1      38.968  -1.101  30.586  1.00  0.00     0.041 C 
ENDROOT
BRANCH   1   7
HETATM    7  N6  UNL     1      40.887  -2.356  29.922  1.00  0.00    -0.349 N 
ATOM      8  H6  UNL     1      40.960  -1.531  29.327  1.00  0.00     0.163 HD
BRANCH   7   9
HETATM    9  C3  UNL     1      41.833  -3.368  29.697  1.00  0.00     0.175 C 
HETATM   10  S1  UNL     1      42.558  -4.130  30.926  1.00  0.00    -0.041 SA
BRANCH   9  11
HETATM   11  N5  UNL     1      42.169  -3.750  28.379  1.00  0.00    -0.307 N 
HETATM   12  C2  UNL     1      43.100  -3.239  27.678  1.00  0.00     0.196 C 
HETATM   13  N3  UNL     1      43.958  -2.184  28.127  1.00  0.00    -0.307 N 
HETATM   14  N4  UNL     1      43.327  -3.722  26.366  1.00  0.00    -0.063 NA
HETATM   15  C1  UNL     1      44.277  -1.190  27.378  1.00  0.00     0.203 C 
ATOM     16  H3  UNL     1      44.330  -2.224  29.076  1.00  0.00     0.170 HD
HETATM   17  N1  UNL     1      43.833  -1.015  26.046  1.00  0.00    -0.066 NA
HETATM   18  N2  UNL     1      45.141  -0.206  27.949  1.00  0.00    -0.066 NA
ATOM     19  H5  UNL     1      41.620  -4.497  27.954  1.00  0.00     0.171 HD
ENDBRANCH   9  11
ENDBRANCH   7   9
ENDBRANCH   1   7
BRANCH   1  20
HETATM   20  C5  UNL     1      40.285  -2.123  32.286  1.00  0.00     0.246 C 
HETATM   21  O1  UNL     1      39.955  -2.976  33.147  1.00  0.00    -0.271 OA
HETATM   22  N7  UNL     1      41.056  -1.034  32.699  1.00  0.00    -0.359 N 
ATOM     23  H7  UNL     1      41.318  -0.346  31.992  1.00  0.00     0.162 HD
BRANCH  22  24
HETATM   24  C6  UNL     1      41.508  -0.807  34.052  1.00  0.00     0.127 C 
BRANCH  24  25
HETATM   25  C7  UNL     1      42.655   0.150  34.145  1.00  0.00     0.003 C 
HETATM   26  C8  UNL     1      43.451  -0.084  35.422  1.00  0.00     0.006 C 
HETATM   27  C9  UNL     1      44.448   1.059  35.531  1.00  0.00     0.000 C 
HETATM   28  C10 UNL     1      45.479   0.848  34.439  1.00  0.00     0.000 C 
HETATM   29  C11 UNL     1      44.734   0.955  33.117  1.00  0.00     0.000 C 
HETATM   30  C12 UNL     1      43.656  -0.094  33.006  1.00  0.00     0.006 C 
ENDBRANCH  24  25
ENDBRANCH  22  24
ENDBRANCH   1  20
TORSDOF 6
ENDMDL
