MODEL 1
REMARK VINA RESULT: -7.001458957      0.000      0.000
REMARK  4 active torsions:
REMARK  status: ('A' for Active; 'I' for Inactive)
REMARK    1  A    between atoms: C2_2  and  N1_3 
REMARK       I    between atoms: N1_3  and  C3_5 
REMARK       I    between atoms: C3_5  and  N2_7 
REMARK    2  A    between atoms: N2_7  and  C4_9 
REMARK    3  A    between atoms: C4_9  and  C5_10 
REMARK    4  A    between atoms: C9_14  and  N3_15 
REMARK       I    between atoms: N3_15  and  C10_17 
REMARK       I    between atoms: C10_17  and  N4_19 
REMARK       I    between atoms: N5_24  and  C15_25 
ROOT
HETATM    1  N3  UNL     1      42.017   0.278  34.107  1.00  0.00    -0.338 N 
ATOM      2  H3  UNL     1      41.285   0.959  34.311  1.00  0.00     0.164 HD
HETATM    3  C10 UNL     1      43.302   0.511  34.620  1.00  0.00     0.318 C 
HETATM    4  O2  UNL     1      44.169  -0.392  34.326  1.00  0.00    -0.247 OA
HETATM    5  N4  UNL     1      43.704   1.607  35.401  1.00  0.00    -0.333 N 
HETATM    6  C11 UNL     1      42.701   2.598  35.681  1.00  0.00     0.129 C 
HETATM    7  C12 UNL     1      41.948   2.256  36.948  1.00  0.00     0.045 C 
HETATM    8  C13 UNL     1      42.881   1.768  38.033  1.00  0.00     0.084 C 
HETATM    9  C14 UNL     1      42.922   0.238  38.027  1.00  0.00     0.032 C 
HETATM   10  N5  UNL     1      44.170   2.360  38.038  1.00  0.00    -0.350 N 
HETATM   11  C15 UNL     1      44.570   2.933  39.301  1.00  0.00     0.184 C 
HETATM   12  N6  UNL     1      43.683   3.495  40.043  1.00  0.00    -0.374 N 
ATOM     13  H61 UNL     1      43.965   3.899  40.936  1.00  0.00     0.158 HD
ATOM     14  H62 UNL     1      42.712   3.530  39.733  1.00  0.00     0.158 HD
HETATM   15  N7  UNL     1      45.919   2.884  39.731  1.00  0.00    -0.064 NA
HETATM   16  C16 UNL     1      45.192   2.518  37.038  1.00  0.00     0.146 C 
HETATM   17  C17 UNL     1      45.084   1.621  35.857  1.00  0.00     0.147 C 
ENDROOT
BRANCH   1  18
HETATM   18  C9  UNL     1      41.671  -0.883  33.299  1.00  0.00     0.091 C 
HETATM   19  C5  UNL     1      41.586  -0.439  31.863  1.00  0.00     0.026 C 
HETATM   20  C6  UNL     1      40.109  -0.296  31.535  1.00  0.00     0.008 C 
HETATM   21  C7  UNL     1      39.427  -0.333  32.896  1.00  0.00     0.002 C 
HETATM   22  C8  UNL     1      40.272  -1.365  33.612  1.00  0.00     0.026 C 
BRANCH  19  23
HETATM   23  C4  UNL     1      42.268  -1.422  30.969  1.00  0.00     0.131 C 
BRANCH  23  24
HETATM   24  N2  UNL     1      42.643  -0.770  29.741  1.00  0.00    -0.343 N 
HETATM   25  C3  UNL     1      43.526  -1.414  28.851  1.00  0.00     0.316 C 
HETATM   26  N1  UNL     1      43.897  -0.779  27.648  1.00  0.00    -0.344 N 
HETATM   27  O1  UNL     1      43.976  -2.538  29.127  1.00  0.00    -0.247 OA
ATOM     28  H1  UNL     1      43.528   0.144  27.420  1.00  0.00     0.164 HD
ATOM     29  H2  UNL     1      42.272   0.153  29.516  1.00  0.00     0.164 HD
BRANCH  26  30
HETATM   30  C2  UNL     1      44.802  -1.444  26.740  1.00  0.00     0.120 C 
HETATM   31  C1  UNL     1      44.007  -2.267  25.738  1.00  0.00     0.026 C 
ENDBRANCH  26  30
ENDBRANCH  23  24
ENDBRANCH  19  23
ENDBRANCH   1  18
TORSDOF 4
ENDMDL
MODEL 2
REMARK VINA RESULT: -6.801027573      1.086      1.151
REMARK  4 active torsions:
REMARK  status: ('A' for Active; 'I' for Inactive)
REMARK    1  A    between atoms: C2_2  and  N1_3 
REMARK       I    between atoms: N1_3  and  C3_5 
REMARK       I    between atoms: C3_5  and  N2_7 
REMARK    2  A    between atoms: N2_7  and  C4_9 
REMARK    3  A    between atoms: C4_9  and  C5_10 
REMARK    4  A    between atoms: C9_14  and  N3_15 
REMARK       I    between atoms: N3_15  and  C10_17 
REMARK       I    between atoms: C10_17  and  N4_19 
REMARK       I    between atoms: N5_24  and  C15_25 
ROOT
HETATM    1  N3  UNL     1      42.755   0.287  34.800  1.00  0.00    -0.338 N 
ATOM      2  H3  UNL     1      42.132   1.078  34.636  1.00  0.00     0.164 HD
HETATM    3  C10 UNL     1      43.790   0.440  35.735  1.00  0.00     0.318 C 
HETATM    4  O2  UNL     1      44.530  -0.600  35.893  1.00  0.00    -0.247 OA
HETATM    5  N4  UNL     1      44.072   1.592  36.488  1.00  0.00    -0.333 N 
HETATM    6  C11 UNL     1      43.228   2.733  36.257  1.00  0.00     0.129 C 
HETATM    7  C12 UNL     1      42.023   2.702  37.170  1.00  0.00     0.045 C 
HETATM    8  C13 UNL     1      42.402   2.289  38.575  1.00  0.00     0.084 C 
HETATM    9  C14 UNL     1      42.170   0.786  38.749  1.00  0.00     0.032 C 
HETATM   10  N5  UNL     1      43.686   2.709  39.006  1.00  0.00    -0.350 N 
HETATM   11  C15 UNL     1      43.700   3.430  40.256  1.00  0.00     0.184 C 
HETATM   12  N6  UNL     1      42.721   4.213  40.539  1.00  0.00    -0.374 N 
ATOM     13  H61 UNL     1      42.731   4.722  41.423  1.00  0.00     0.158 HD
ATOM     14  H62 UNL     1      41.949   4.317  39.881  1.00  0.00     0.158 HD
HETATM   15  N7  UNL     1      44.773   3.286  41.170  1.00  0.00    -0.064 NA
HETATM   16  C16 UNL     1      45.010   2.571  38.459  1.00  0.00     0.146 C 
HETATM   17  C17 UNL     1      45.176   1.511  37.430  1.00  0.00     0.147 C 
ENDROOT
BRANCH   1  18
HETATM   18  C9  UNL     1      42.522  -0.941  34.051  1.00  0.00     0.091 C 
HETATM   19  C5  UNL     1      42.259  -0.565  32.617  1.00  0.00     0.026 C 
HETATM   20  C6  UNL     1      40.756  -0.651  32.412  1.00  0.00     0.008 C 
HETATM   21  C7  UNL     1      40.197  -0.738  33.825  1.00  0.00     0.002 C 
HETATM   22  C8  UNL     1      41.240  -1.610  34.491  1.00  0.00     0.026 C 
BRANCH  19  23
HETATM   23  C4  UNL     1      43.005  -1.469  31.693  1.00  0.00     0.131 C 
BRANCH  23  24
HETATM   24  N2  UNL     1      43.156  -0.825  30.413  1.00  0.00    -0.343 N 
HETATM   25  C3  UNL     1      43.569  -1.579  29.298  1.00  0.00     0.316 C 
HETATM   26  N1  UNL     1      43.718  -0.952  28.043  1.00  0.00    -0.344 N 
HETATM   27  O1  UNL     1      43.802  -2.793  29.419  1.00  0.00    -0.247 OA
ATOM     28  H1  UNL     1      43.528   0.045  27.942  1.00  0.00     0.164 HD
ATOM     29  H2  UNL     1      42.964   0.172  30.316  1.00  0.00     0.164 HD
BRANCH  26  30
HETATM   30  C2  UNL     1      44.143  -1.730  26.903  1.00  0.00     0.120 C 
HETATM   31  C1  UNL     1      44.065  -0.878  25.645  1.00  0.00     0.026 C 
ENDBRANCH  26  30
ENDBRANCH  23  24
ENDBRANCH  19  23
ENDBRANCH   1  18
TORSDOF 4
ENDMDL
MODEL 3
REMARK VINA RESULT: -6.561850798      1.006      1.297
REMARK  4 active torsions:
REMARK  status: ('A' for Active; 'I' for Inactive)
REMARK    1  A    between atoms: C2_2  and  N1_3 
REMARK       I    between atoms: N1_3  and  C3_5 
REMARK       I    between atoms: C3_5  and  N2_7 
REMARK    2  A    between atoms: N2_7  and  C4_9 
REMARK    3  A    between atoms: C4_9  and  C5_10 
REMARK    4  A    between atoms: C9_14  and  N3_15 
REMARK       I    between atoms: N3_15  and  C10_17 
REMARK       I    between atoms: C10_17  and  N4_19 
REMARK       I    between atoms: N5_24  and  C15_25 
ROOT
HETATM    1  N3  UNL     1      42.226   0.219  33.902  1.00  0.00    -0.338 N 
ATOM      2  H3  UNL     1      41.355   0.473  34.368  1.00  0.00     0.164 HD
HETATM    3  C10 UNL     1      43.413   0.831  34.332  1.00  0.00     0.318 C 
HETATM    4  O2  UNL     1      44.469   0.457  33.701  1.00  0.00    -0.247 OA
HETATM    5  N4  UNL     1      43.539   1.781  35.360  1.00  0.00    -0.333 N 
HETATM    6  C11 UNL     1      42.324   2.179  36.017  1.00  0.00     0.129 C 
HETATM    7  C12 UNL     1      42.028   1.274  37.193  1.00  0.00     0.045 C 
HETATM    8  C13 UNL     1      43.279   0.973  37.989  1.00  0.00     0.084 C 
HETATM    9  C14 UNL     1      43.875  -0.359  37.526  1.00  0.00     0.032 C 
HETATM   10  N5  UNL     1      44.232   2.022  38.042  1.00  0.00    -0.350 N 
HETATM   11  C15 UNL     1      44.646   2.397  39.373  1.00  0.00     0.184 C 
HETATM   12  N6  UNL     1      43.790   2.357  40.331  1.00  0.00    -0.374 N 
ATOM     13  H61 UNL     1      44.082   2.622  41.272  1.00  0.00     0.158 HD
ATOM     14  H62 UNL     1      42.832   2.063  40.142  1.00  0.00     0.158 HD
HETATM   15  N7  UNL     1      45.977   2.806  39.636  1.00  0.00    -0.064 NA
HETATM   16  C16 UNL     1      44.894   2.813  37.039  1.00  0.00     0.146 C 
HETATM   17  C17 UNL     1      44.879   2.252  35.662  1.00  0.00     0.147 C 
ENDROOT
BRANCH   1  18
HETATM   18  C9  UNL     1      42.170  -0.759  32.824  1.00  0.00     0.091 C 
HETATM   19  C5  UNL     1      40.738  -0.871  32.374  1.00  0.00     0.026 C 
HETATM   20  C6  UNL     1      40.183  -2.143  32.992  1.00  0.00     0.008 C 
HETATM   21  C7  UNL     1      41.217  -2.521  34.044  1.00  0.00     0.002 C 
HETATM   22  C8  UNL     1      42.499  -2.145  33.331  1.00  0.00     0.026 C 
BRANCH  19  23
HETATM   23  C4  UNL     1      40.656  -0.888  30.883  1.00  0.00     0.131 C 
BRANCH  23  24
HETATM   24  N2  UNL     1      41.935  -0.517  30.331  1.00  0.00    -0.343 N 
HETATM   25  C3  UNL     1      42.500  -1.293  29.301  1.00  0.00     0.316 C 
HETATM   26  N1  UNL     1      43.751  -0.934  28.758  1.00  0.00    -0.344 N 
HETATM   27  O1  UNL     1      41.898  -2.292  28.872  1.00  0.00    -0.247 OA
ATOM     28  H1  UNL     1      44.247  -0.115  29.109  1.00  0.00     0.164 HD
ATOM     29  H2  UNL     1      42.427   0.303  30.685  1.00  0.00     0.164 HD
BRANCH  26  30
HETATM   30  C2  UNL     1      44.327  -1.734  27.702  1.00  0.00     0.120 C 
HETATM   31  C1  UNL     1      44.036  -1.088  26.356  1.00  0.00     0.026 C 
ENDBRANCH  26  30
ENDBRANCH  23  24
ENDBRANCH  19  23
ENDBRANCH   1  18
TORSDOF 4
ENDMDL
MODEL 4
REMARK VINA RESULT: -6.556574022      1.527      1.837
REMARK  4 active torsions:
REMARK  status: ('A' for Active; 'I' for Inactive)
REMARK    1  A    between atoms: C2_2  and  N1_3 
REMARK       I    between atoms: N1_3  and  C3_5 
REMARK       I    between atoms: C3_5  and  N2_7 
REMARK    2  A    between atoms: N2_7  and  C4_9 
REMARK    3  A    between atoms: C4_9  and  C5_10 
REMARK    4  A    between atoms: C9_14  and  N3_15 
REMARK       I    between atoms: N3_15  and  C10_17 
REMARK       I    between atoms: C10_17  and  N4_19 
REMARK       I    between atoms: N5_24  and  C15_25 
ROOT
HETATM    1  N3  UNL     1      42.628  -0.771  33.716  1.00  0.00    -0.338 N 
ATOM      2  H3  UNL     1      42.064  -1.264  34.408  1.00  0.00     0.164 HD
HETATM    3  C10 UNL     1      43.132   0.496  34.050  1.00  0.00     0.318 C 
HETATM    4  O2  UNL     1      43.837   1.052  33.131  1.00  0.00    -0.247 OA
HETATM    5  N4  UNL     1      42.937   1.179  35.262  1.00  0.00    -0.333 N 
HETATM    6  C11 UNL     1      42.122   0.521  36.246  1.00  0.00     0.129 C 
HETATM    7  C12 UNL     1      42.966  -0.363  37.138  1.00  0.00     0.045 C 
HETATM    8  C13 UNL     1      44.258   0.317  37.529  1.00  0.00     0.084 C 
HETATM    9  C14 UNL     1      45.377  -0.119  36.580  1.00  0.00     0.032 C 
HETATM   10  N5  UNL     1      44.180   1.725  37.689  1.00  0.00    -0.350 N 
HETATM   11  C15 UNL     1      44.670   2.219  38.954  1.00  0.00     0.184 C 
HETATM   12  N6  UNL     1      44.489   1.515  40.014  1.00  0.00    -0.374 N 
ATOM     13  H61 UNL     1      44.835   1.864  40.908  1.00  0.00     0.158 HD
ATOM     14  H62 UNL     1      44.004   0.620  39.952  1.00  0.00     0.158 HD
HETATM   15  N7  UNL     1      45.342   3.463  39.041  1.00  0.00    -0.064 NA
HETATM   16  C16 UNL     1      43.711   2.793  36.849  1.00  0.00     0.146 C 
HETATM   17  C17 UNL     1      43.588   2.471  35.402  1.00  0.00     0.147 C 
ENDROOT
BRANCH   1  18
HETATM   18  C9  UNL     1      42.869  -1.420  32.435  1.00  0.00     0.091 C 
HETATM   19  C5  UNL     1      41.812  -0.949  31.472  1.00  0.00     0.026 C 
HETATM   20  C6  UNL     1      40.785  -2.065  31.369  1.00  0.00     0.008 C 
HETATM   21  C7  UNL     1      41.121  -2.981  32.537  1.00  0.00     0.002 C 
HETATM   22  C8  UNL     1      42.634  -2.911  32.529  1.00  0.00     0.026 C 
BRANCH  19  23
HETATM   23  C4  UNL     1      42.418  -0.619  30.148  1.00  0.00     0.131 C 
BRANCH  23  24
HETATM   24  N2  UNL     1      42.180  -1.705  29.230  1.00  0.00    -0.343 N 
HETATM   25  C3  UNL     1      43.221  -2.150  28.393  1.00  0.00     0.316 C 
HETATM   26  N1  UNL     1      42.993  -3.212  27.493  1.00  0.00    -0.344 N 
HETATM   27  O1  UNL     1      44.338  -1.608  28.447  1.00  0.00    -0.247 OA
ATOM     28  H1  UNL     1      42.077  -3.658  27.447  1.00  0.00     0.164 HD
ATOM     29  H2  UNL     1      41.262  -2.148  29.188  1.00  0.00     0.164 HD
BRANCH  26  30
HETATM   30  C2  UNL     1      44.064  -3.664  26.636  1.00  0.00     0.120 C 
HETATM   31  C1  UNL     1      43.999  -2.929  25.306  1.00  0.00     0.026 C 
ENDBRANCH  26  30
ENDBRANCH  23  24
ENDBRANCH  19  23
ENDBRANCH   1  18
TORSDOF 4
ENDMDL
MODEL 5
REMARK VINA RESULT: -6.467136593      1.079      1.138
REMARK  4 active torsions:
REMARK  status: ('A' for Active; 'I' for Inactive)
REMARK    1  A    between atoms: C2_2  and  N1_3 
REMARK       I    between atoms: N1_3  and  C3_5 
REMARK       I    between atoms: C3_5  and  N2_7 
REMARK    2  A    between atoms: N2_7  and  C4_9 
REMARK    3  A    between atoms: C4_9  and  C5_10 
REMARK    4  A    between atoms: C9_14  and  N3_15 
REMARK       I    between atoms: N3_15  and  C10_17 
REMARK       I    between atoms: C10_17  and  N4_19 
REMARK       I    between atoms: N5_24  and  C15_25 
ROOT
HETATM    1  N3  UNL     1      41.288   0.086  33.817  1.00  0.00    -0.338 N 
ATOM      2  H3  UNL     1      40.676   0.750  34.292  1.00  0.00     0.164 HD
HETATM    3  C10 UNL     1      42.667   0.160  34.065  1.00  0.00     0.318 C 
HETATM    4  O2  UNL     1      43.373  -0.712  33.435  1.00  0.00    -0.247 OA
HETATM    5  N4  UNL     1      43.317   1.072  34.913  1.00  0.00    -0.333 N 
HETATM    6  C11 UNL     1      42.483   2.038  35.574  1.00  0.00     0.129 C 
HETATM    7  C12 UNL     1      41.986   1.502  36.898  1.00  0.00     0.045 C 
HETATM    8  C13 UNL     1      43.081   0.778  37.650  1.00  0.00     0.084 C 
HETATM    9  C14 UNL     1      42.989  -0.724  37.372  1.00  0.00     0.032 C 
HETATM   10  N5  UNL     1      44.388   1.299  37.469  1.00  0.00    -0.350 N 
HETATM   11  C15 UNL     1      45.091   1.608  38.692  1.00  0.00     0.184 C 
HETATM   12  N6  UNL     1      44.431   2.063  39.697  1.00  0.00    -0.374 N 
ATOM     13  H61 UNL     1      44.928   2.281  40.560  1.00  0.00     0.158 HD
ATOM     14  H62 UNL     1      43.423   2.200  39.621  1.00  0.00     0.158 HD
HETATM   15  N7  UNL     1      46.491   1.418  38.797  1.00  0.00    -0.064 NA
HETATM   16  C16 UNL     1      45.187   1.593  36.310  1.00  0.00     0.146 C 
HETATM   17  C17 UNL     1      44.757   0.938  35.047  1.00  0.00     0.147 C 
ENDROOT
BRANCH   1  18
HETATM   18  C9  UNL     1      40.682  -0.888  32.920  1.00  0.00     0.091 C 
HETATM   19  C5  UNL     1      40.612  -0.272  31.548  1.00  0.00     0.026 C 
HETATM   20  C6  UNL     1      39.176   0.182  31.345  1.00  0.00     0.008 C 
HETATM   21  C7  UNL     1      38.570   0.116  32.741  1.00  0.00     0.002 C 
HETATM   22  C8  UNL     1      39.235  -1.133  33.281  1.00  0.00     0.026 C 
BRANCH  19  23
HETATM   23  C4  UNL     1      41.042  -1.253  30.509  1.00  0.00     0.131 C 
BRANCH  23  24
HETATM   24  N2  UNL     1      42.224  -0.761  29.847  1.00  0.00    -0.343 N 
HETATM   25  C3  UNL     1      42.754  -1.467  28.750  1.00  0.00     0.316 C 
HETATM   26  N1  UNL     1      43.911  -0.989  28.101  1.00  0.00    -0.344 N 
HETATM   27  O1  UNL     1      42.204  -2.509  28.357  1.00  0.00    -0.247 OA
ATOM     28  H1  UNL     1      44.364  -0.134  28.422  1.00  0.00     0.164 HD
ATOM     29  H2  UNL     1      42.674   0.095  30.172  1.00  0.00     0.164 HD
BRANCH  26  30
HETATM   30  C2  UNL     1      44.450  -1.718  26.976  1.00  0.00     0.120 C 
HETATM   31  C1  UNL     1      44.084  -1.007  25.683  1.00  0.00     0.026 C 
ENDBRANCH  26  30
ENDBRANCH  23  24
ENDBRANCH  19  23
ENDBRANCH   1  18
TORSDOF 4
ENDMDL
