MODEL 1
REMARK VINA RESULT: -6.118847211      0.000      0.000
REMARK  8 active torsions:
REMARK  status: ('A' for Active; 'I' for Inactive)
REMARK    1  A    between atoms: C2_2  and  N1_3 
REMARK    2  A    between atoms: C2_2  and  C3_7 
REMARK    3  A    between atoms: C4_8  and  C5_9 
REMARK    4  A    between atoms: C12_16  and  C13_17 
REMARK    5  A    between atoms: C13_17  and  C14_18 
REMARK    6  A    between atoms: C13_17  and  C16_25 
REMARK       I    between atoms: C14_18  and  N2_20 
REMARK    7  A    between atoms: C16_25  and  O2_26 
REMARK    8  A    between atoms: C16_25  and  C17_28 
ROOT
HETATM    1  C5  UNL     1      42.218  -2.122  32.501  1.00  0.00     0.024 C 
HETATM    2  C6  UNL     1      42.328  -3.614  32.856  1.00  0.00     0.029 C 
HETATM    3  C7  UNL     1      40.799  -1.735  32.750  1.00  0.00     0.022 C 
HETATM    4  C8  UNL     1      40.636  -0.282  33.033  1.00  0.00     0.002 C 
HETATM    5  C9  UNL     1      41.630   0.328  33.957  1.00  0.00     0.010 C 
HETATM    6  C10 UNL     1      42.798  -0.486  34.378  1.00  0.00    -0.034 C 
HETATM    7  C11 UNL     1      42.557  -1.552  35.386  1.00  0.00     0.016 C 
HETATM    8  C12 UNL     1      44.087   0.190  34.599  1.00  0.00     0.010 C 
HETATM    9  C18 UNL     1      44.377   0.843  33.255  1.00  0.00     0.007 C 
HETATM   10  C19 UNL     1      43.692  -0.099  32.287  1.00  0.00     0.007 C 
HETATM   11  C20 UNL     1      43.235  -1.270  33.093  1.00  0.00     0.014 C 
ENDROOT
BRANCH   8  12
HETATM   12  C13 UNL     1      44.537   0.908  35.753  1.00  0.00     0.113 C 
BRANCH  12  13
HETATM   13  C14 UNL     1      45.732   0.142  36.305  1.00  0.00     0.230 C 
HETATM   14  O1  UNL     1      45.519  -0.688  37.215  1.00  0.00    -0.273 OA
HETATM   15  N2  UNL     1      47.038   0.316  35.852  1.00  0.00    -0.303 N 
HETATM   16  C15 UNL     1      48.099  -0.196  36.286  1.00  0.00     0.203 C 
ATOM     17  H2  UNL     1      47.147   0.946  35.058  1.00  0.00     0.171 HD
HETATM   18  N3  UNL     1      48.091  -1.104  37.403  1.00  0.00    -0.066 NA
HETATM   19  N4  UNL     1      49.354   0.094  35.703  1.00  0.00    -0.066 NA
ENDBRANCH  12  13
BRANCH  12  20
HETATM   20  C16 UNL     1      44.800   2.359  35.855  1.00  0.00     0.145 C 
BRANCH  20  21
HETATM   21  O2  UNL     1      45.557   2.522  37.107  1.00  0.00    -0.394 OA
ATOM     22  H2  UNL     1      46.470   2.482  36.850  1.00  0.00     0.210 HD
ENDBRANCH  20  21
BRANCH  20  23
HETATM   23  C17 UNL     1      43.638   3.257  36.217  1.00  0.00     0.147 C 
HETATM   24 CL1  UNL     1      42.302   2.340  36.951  1.00  0.00    -0.128 Cl
ENDBRANCH  20  23
ENDBRANCH  12  20
ENDBRANCH   8  12
BRANCH   1  25
HETATM   25  C4  UNL     1      42.447  -2.102  31.027  1.00  0.00    -0.094 C 
HETATM   26  C3  UNL     1      42.651  -2.096  29.835  1.00  0.00    -0.073 C 
BRANCH  26  27
HETATM   27  C2  UNL     1      42.887  -2.064  28.393  1.00  0.00     0.257 C 
HETATM   28  C1  UNL     1      43.682  -3.301  28.046  1.00  0.00     0.053 C 
BRANCH  27  29
HETATM   29  N1  UNL     1      43.682  -0.871  28.121  1.00  0.00    -0.065 N 
ATOM     30  H13 UNL     1      43.868  -0.334  28.968  1.00  0.00     0.275 HD
ATOM     31  H12 UNL     1      44.646  -1.101  27.877  1.00  0.00     0.275 HD
ATOM     32  H11 UNL     1      43.227  -0.308  27.402  1.00  0.00     0.275 HD
ENDBRANCH  27  29
ENDBRANCH  26  27
ENDBRANCH   1  25
TORSDOF 8
ENDMDL
MODEL 2
REMARK VINA RESULT: -6.004855941      5.810      8.014
REMARK  8 active torsions:
REMARK  status: ('A' for Active; 'I' for Inactive)
REMARK    1  A    between atoms: C2_2  and  N1_3 
REMARK    2  A    between atoms: C2_2  and  C3_7 
REMARK    3  A    between atoms: C4_8  and  C5_9 
REMARK    4  A    between atoms: C12_16  and  C13_17 
REMARK    5  A    between atoms: C13_17  and  C14_18 
REMARK    6  A    between atoms: C13_17  and  C16_25 
REMARK       I    between atoms: C14_18  and  N2_20 
REMARK    7  A    between atoms: C16_25  and  O2_26 
REMARK    8  A    between atoms: C16_25  and  C17_28 
ROOT
HETATM    1  C5  UNL     1      37.427  -1.451  31.091  1.00  0.00     0.024 C 
HETATM    2  C6  UNL     1      36.383  -1.295  29.973  1.00  0.00     0.029 C 
HETATM    3  C7  UNL     1      36.983  -2.608  31.922  1.00  0.00     0.022 C 
HETATM    4  C8  UNL     1      38.106  -3.266  32.647  1.00  0.00     0.002 C 
HETATM    5  C9  UNL     1      39.355  -3.488  31.870  1.00  0.00     0.010 C 
HETATM    6  C10 UNL     1      39.464  -2.888  30.516  1.00  0.00    -0.034 C 
HETATM    7  C11 UNL     1      38.699  -3.538  29.420  1.00  0.00     0.016 C 
HETATM    8  C12 UNL     1      40.781  -2.417  30.057  1.00  0.00     0.010 C 
HETATM    9  C18 UNL     1      41.172  -1.387  31.107  1.00  0.00     0.007 C 
HETATM   10  C19 UNL     1      39.825  -0.861  31.557  1.00  0.00     0.007 C 
HETATM   11  C20 UNL     1      38.811  -1.469  30.645  1.00  0.00     0.014 C 
ENDROOT
BRANCH   8  12
HETATM   12  C13 UNL     1      41.857  -3.174  29.493  1.00  0.00     0.113 C 
BRANCH  12  13
HETATM   13  C14 UNL     1      42.851  -2.166  28.930  1.00  0.00     0.230 C 
HETATM   14  O1  UNL     1      43.273  -1.277  29.699  1.00  0.00    -0.273 OA
HETATM   15  N2  UNL     1      43.309  -2.185  27.614  1.00  0.00    -0.303 N 
HETATM   16  C15 UNL     1      44.056  -1.364  27.027  1.00  0.00     0.203 C 
ATOM     17  H2  UNL     1      42.994  -2.974  27.051  1.00  0.00     0.171 HD
HETATM   18  N3  UNL     1      44.574  -0.204  27.703  1.00  0.00    -0.066 NA
HETATM   19  N4  UNL     1      44.426  -1.537  25.673  1.00  0.00    -0.066 NA
ENDBRANCH  12  13
BRANCH  12  20
HETATM   20  C16 UNL     1      42.598  -4.283  30.129  1.00  0.00     0.145 C 
BRANCH  20  21
HETATM   21  O2  UNL     1      43.991  -4.115  29.685  1.00  0.00    -0.394 OA
ATOM     22  H2  UNL     1      43.929  -3.770  28.803  1.00  0.00     0.210 HD
ENDBRANCH  20  21
BRANCH  20  23
HETATM   23  C17 UNL     1      42.388  -5.674  29.571  1.00  0.00     0.147 C 
HETATM   24 CL1  UNL     1      40.833  -6.364  30.093  1.00  0.00    -0.128 Cl
ENDBRANCH  20  23
ENDBRANCH  12  20
ENDBRANCH   8  12
BRANCH   1  25
HETATM   25  C4  UNL     1      37.254  -0.211  31.900  1.00  0.00    -0.094 C 
HETATM   26  C3  UNL     1      37.093   0.789  32.562  1.00  0.00    -0.073 C 
BRANCH  26  27
HETATM   27  C2  UNL     1      36.913   2.011  33.344  1.00  0.00     0.257 C 
HETATM   28  C1  UNL     1      37.857   1.928  34.520  1.00  0.00     0.053 C 
BRANCH  27  29
HETATM   29  N1  UNL     1      35.532   2.010  33.816  1.00  0.00    -0.065 N 
ATOM     30  H13 UNL     1      35.134   1.071  33.834  1.00  0.00     0.275 HD
ATOM     31  H12 UNL     1      35.468   2.217  34.812  1.00  0.00     0.275 HD
ATOM     32  H11 UNL     1      34.973   2.651  33.253  1.00  0.00     0.275 HD
ENDBRANCH  27  29
ENDBRANCH  26  27
ENDBRANCH   1  25
TORSDOF 8
ENDMDL
MODEL 3
REMARK VINA RESULT: -5.920075874      2.571      3.872
REMARK  8 active torsions:
REMARK  status: ('A' for Active; 'I' for Inactive)
REMARK    1  A    between atoms: C2_2  and  N1_3 
REMARK    2  A    between atoms: C2_2  and  C3_7 
REMARK    3  A    between atoms: C4_8  and  C5_9 
REMARK    4  A    between atoms: C12_16  and  C13_17 
REMARK    5  A    between atoms: C13_17  and  C14_18 
REMARK    6  A    between atoms: C13_17  and  C16_25 
REMARK       I    between atoms: C14_18  and  N2_20 
REMARK    7  A    between atoms: C16_25  and  O2_26 
REMARK    8  A    between atoms: C16_25  and  C17_28 
ROOT
HETATM    1  C5  UNL     1      42.730  -4.046  30.194  1.00  0.00     0.024 C 
HETATM    2  C6  UNL     1      43.659  -5.191  30.628  1.00  0.00     0.029 C 
HETATM    3  C7  UNL     1      41.410  -4.668  29.886  1.00  0.00     0.022 C 
HETATM    4  C8  UNL     1      40.273  -3.717  30.027  1.00  0.00     0.002 C 
HETATM    5  C9  UNL     1      40.293  -2.836  31.226  1.00  0.00     0.010 C 
HETATM    6  C10 UNL     1      41.505  -2.832  32.083  1.00  0.00    -0.034 C 
HETATM    7  C11 UNL     1      41.713  -4.003  32.974  1.00  0.00     0.016 C 
HETATM    8  C12 UNL     1      41.905  -1.574  32.735  1.00  0.00     0.010 C 
HETATM    9  C18 UNL     1      42.100  -0.618  31.567  1.00  0.00     0.007 C 
HETATM   10  C19 UNL     1      42.525  -1.554  30.455  1.00  0.00     0.007 C 
HETATM   11  C20 UNL     1      42.711  -2.896  31.084  1.00  0.00     0.014 C 
ENDROOT
BRANCH   8  12
HETATM   12  C13 UNL     1      41.402  -0.991  33.942  1.00  0.00     0.113 C 
BRANCH  12  13
HETATM   13  C14 UNL     1      42.569  -0.940  34.920  1.00  0.00     0.230 C 
HETATM   14  O1  UNL     1      42.601  -1.795  35.830  1.00  0.00    -0.273 OA
HETATM   15  N2  UNL     1      43.593   0.002  34.852  1.00  0.00    -0.303 N 
HETATM   16  C15 UNL     1      44.549   0.187  35.645  1.00  0.00     0.203 C 
ATOM     17  H2  UNL     1      43.562   0.628  34.048  1.00  0.00     0.171 HD
HETATM   18  N3  UNL     1      44.715  -0.624  36.821  1.00  0.00    -0.066 NA
HETATM   19  N4  UNL     1      45.510   1.201  35.423  1.00  0.00    -0.066 NA
ENDBRANCH  12  13
BRANCH  12  20
HETATM   20  C16 UNL     1      40.605   0.247  34.071  1.00  0.00     0.145 C 
BRANCH  20  21
HETATM   21  O2  UNL     1      40.512   0.492  35.520  1.00  0.00    -0.394 OA
ATOM     22  H2  UNL     1      39.727   0.036  35.797  1.00  0.00     0.210 HD
ENDBRANCH  20  21
BRANCH  20  23
HETATM   23  C17 UNL     1      39.120   0.153  33.800  1.00  0.00     0.147 C 
HETATM   24 CL1  UNL     1      38.733   0.565  32.113  1.00  0.00    -0.128 Cl
ENDBRANCH  20  23
ENDBRANCH  12  20
ENDBRANCH   8  12
BRANCH   1  25
HETATM   25  C4  UNL     1      43.331  -3.583  28.909  1.00  0.00    -0.094 C 
HETATM   26  C3  UNL     1      43.806  -3.223  27.857  1.00  0.00    -0.073 C 
BRANCH  26  27
HETATM   27  C2  UNL     1      44.403  -2.784  26.597  1.00  0.00     0.257 C 
HETATM   28  C1  UNL     1      44.097  -1.312  26.452  1.00  0.00     0.053 C 
BRANCH  27  29
HETATM   29  N1  UNL     1      43.744  -3.534  25.534  1.00  0.00    -0.065 N 
ATOM     30  H13 UNL     1      43.285  -2.921  24.860  1.00  0.00     0.275 HD
ATOM     31  H12 UNL     1      44.414  -3.973  24.903  1.00  0.00     0.275 HD
ATOM     32  H11 UNL     1      43.096  -4.211  25.938  1.00  0.00     0.275 HD
ENDBRANCH  27  29
ENDBRANCH  26  27
ENDBRANCH   1  25
TORSDOF 8
ENDMDL
MODEL 4
REMARK VINA RESULT: -5.802020723      1.818      2.135
REMARK  8 active torsions:
REMARK  status: ('A' for Active; 'I' for Inactive)
REMARK    1  A    between atoms: C2_2  and  N1_3 
REMARK    2  A    between atoms: C2_2  and  C3_7 
REMARK    3  A    between atoms: C4_8  and  C5_9 
REMARK    4  A    between atoms: C12_16  and  C13_17 
REMARK    5  A    between atoms: C13_17  and  C14_18 
REMARK    6  A    between atoms: C13_17  and  C16_25 
REMARK       I    between atoms: C14_18  and  N2_20 
REMARK    7  A    between atoms: C16_25  and  O2_26 
REMARK    8  A    between atoms: C16_25  and  C17_28 
ROOT
HETATM    1  C5  UNL     1      42.116  -2.889  32.212  1.00  0.00     0.024 C 
HETATM    2  C6  UNL     1      42.236  -4.295  32.823  1.00  0.00     0.029 C 
HETATM    3  C7  UNL     1      40.657  -2.595  32.116  1.00  0.00     0.022 C 
HETATM    4  C8  UNL     1      40.359  -1.136  32.119  1.00  0.00     0.002 C 
HETATM    5  C9  UNL     1      41.108  -0.309  33.104  1.00  0.00     0.010 C 
HETATM    6  C10 UNL     1      42.209  -0.945  33.871  1.00  0.00    -0.034 C 
HETATM    7  C11 UNL     1      41.827  -1.864  34.974  1.00  0.00     0.016 C 
HETATM    8  C12 UNL     1      43.385  -0.133  34.221  1.00  0.00     0.010 C 
HETATM    9  C18 UNL     1      43.906   0.334  32.869  1.00  0.00     0.007 C 
HETATM   10  C19 UNL     1      43.487  -0.799  31.956  1.00  0.00     0.007 C 
HETATM   11  C20 UNL     1      42.942  -1.872  32.840  1.00  0.00     0.014 C 
ENDROOT
BRANCH   8  12
HETATM   12  C13 UNL     1      43.549   0.787  35.305  1.00  0.00     0.113 C 
BRANCH  12  13
HETATM   13  C14 UNL     1      44.432   0.095  36.335  1.00  0.00     0.230 C 
HETATM   14  O1  UNL     1      45.498  -0.419  35.934  1.00  0.00    -0.273 OA
HETATM   15  N2  UNL     1      44.117   0.007  37.689  1.00  0.00    -0.303 N 
HETATM   16  C15 UNL     1      44.723  -0.604  38.604  1.00  0.00     0.203 C 
ATOM     17  H2  UNL     1      43.277   0.509  37.978  1.00  0.00     0.171 HD
HETATM   18  N3  UNL     1      45.923  -1.352  38.336  1.00  0.00    -0.066 NA
HETATM   19  N4  UNL     1      44.259  -0.588  39.939  1.00  0.00    -0.066 NA
ENDBRANCH  12  13
BRANCH  12  20
HETATM   20  C16 UNL     1      43.932   2.212  35.217  1.00  0.00     0.145 C 
BRANCH  20  21
HETATM   21  O2  UNL     1      45.307   2.272  35.738  1.00  0.00    -0.394 OA
ATOM     22  H2  UNL     1      45.813   2.688  35.051  1.00  0.00     0.210 HD
ENDBRANCH  20  21
BRANCH  20  23
HETATM   23  C17 UNL     1      43.310   3.166  36.213  1.00  0.00     0.147 C 
HETATM   24 CL1  UNL     1      44.502   3.744  37.401  1.00  0.00    -0.128 Cl
ENDBRANCH  20  23
ENDBRANCH  12  20
ENDBRANCH   8  12
BRANCH   1  25
HETATM   25  C4  UNL     1      42.639  -3.071  30.827  1.00  0.00    -0.094 C 
HETATM   26  C3  UNL     1      43.054  -3.237  29.703  1.00  0.00    -0.073 C 
BRANCH  26  27
HETATM   27  C2  UNL     1      43.578  -3.425  28.352  1.00  0.00     0.257 C 
HETATM   28  C1  UNL     1      43.558  -2.074  27.677  1.00  0.00     0.053 C 
BRANCH  27  29
HETATM   29  N1  UNL     1      42.664  -4.334  27.668  1.00  0.00    -0.065 N 
ATOM     30  H13 UNL     1      41.770  -3.892  27.456  1.00  0.00     0.275 HD
ATOM     31  H12 UNL     1      42.963  -4.530  26.712  1.00  0.00     0.275 HD
ATOM     32  H11 UNL     1      42.549  -5.186  28.217  1.00  0.00     0.275 HD
ENDBRANCH  27  29
ENDBRANCH  26  27
ENDBRANCH   1  25
TORSDOF 8
ENDMDL
MODEL 5
REMARK VINA RESULT: -5.796920138      4.770      7.061
REMARK  8 active torsions:
REMARK  status: ('A' for Active; 'I' for Inactive)
REMARK    1  A    between atoms: C2_2  and  N1_3 
REMARK    2  A    between atoms: C2_2  and  C3_7 
REMARK    3  A    between atoms: C4_8  and  C5_9 
REMARK    4  A    between atoms: C12_16  and  C13_17 
REMARK    5  A    between atoms: C13_17  and  C14_18 
REMARK    6  A    between atoms: C13_17  and  C16_25 
REMARK       I    between atoms: C14_18  and  N2_20 
REMARK    7  A    between atoms: C16_25  and  O2_26 
REMARK    8  A    between atoms: C16_25  and  C17_28 
ROOT
HETATM    1  C5  UNL     1      40.328  -6.346  30.914  1.00  0.00     0.024 C 
HETATM    2  C6  UNL     1      41.162  -7.602  30.614  1.00  0.00     0.029 C 
HETATM    3  C7  UNL     1      40.035  -6.375  32.377  1.00  0.00     0.022 C 
HETATM    4  C8  UNL     1      39.775  -5.022  32.943  1.00  0.00     0.002 C 
HETATM    5  C9  UNL     1      40.690  -3.934  32.503  1.00  0.00     0.010 C 
HETATM    6  C10 UNL     1      41.658  -4.220  31.414  1.00  0.00    -0.034 C 
HETATM    7  C11 UNL     1      42.847  -5.042  31.759  1.00  0.00     0.016 C 
HETATM    8  C12 UNL     1      41.997  -3.143  30.470  1.00  0.00     0.010 C 
HETATM    9  C18 UNL     1      40.650  -2.764  29.871  1.00  0.00     0.007 C 
HETATM   10  C19 UNL     1      39.889  -4.071  29.941  1.00  0.00     0.007 C 
HETATM   11  C20 UNL     1      40.870  -5.105  30.388  1.00  0.00     0.014 C 
ENDROOT
BRANCH   8  12
HETATM   12  C13 UNL     1      42.933  -2.072  30.630  1.00  0.00     0.113 C 
BRANCH  12  13
HETATM   13  C14 UNL     1      43.625  -1.893  29.285  1.00  0.00     0.230 C 
HETATM   14  O1  UNL     1      44.416  -0.934  29.162  1.00  0.00    -0.273 OA
HETATM   15  N2  UNL     1      43.424  -2.737  28.194  1.00  0.00    -0.303 N 
HETATM   16  C15 UNL     1      43.873  -2.637  27.026  1.00  0.00     0.203 C 
ATOM     17  H2  UNL     1      42.830  -3.547  28.369  1.00  0.00     0.171 HD
HETATM   18  N3  UNL     1      44.724  -1.543  26.641  1.00  0.00    -0.066 NA
HETATM   19  N4  UNL     1      43.565  -3.593  26.030  1.00  0.00    -0.066 NA
ENDBRANCH  12  13
BRANCH  12  20
HETATM   20  C16 UNL     1      42.677  -0.743  31.225  1.00  0.00     0.145 C 
BRANCH  20  21
HETATM   21  O2  UNL     1      43.980  -0.303  31.751  1.00  0.00    -0.394 OA
ATOM     22  H2  UNL     1      43.783   0.108  32.584  1.00  0.00     0.210 HD
ENDBRANCH  20  21
BRANCH  20  23
HETATM   23  C17 UNL     1      41.919  -0.698  32.534  1.00  0.00     0.147 C 
HETATM   24 CL1  UNL     1      40.209  -0.273  32.288  1.00  0.00    -0.128 Cl
ENDBRANCH  20  23
ENDBRANCH  12  20
ENDBRANCH   8  12
BRANCH   1  25
HETATM   25  C4  UNL     1      39.051  -6.599  30.185  1.00  0.00    -0.094 C 
HETATM   26  C3  UNL     1      38.026  -6.819  29.581  1.00  0.00    -0.073 C 
BRANCH  26  27
HETATM   27  C2  UNL     1      36.781  -7.058  28.854  1.00  0.00     0.257 C 
HETATM   28  C1  UNL     1      36.780  -8.512  28.445  1.00  0.00     0.053 C 
BRANCH  27  29
HETATM   29  N1  UNL     1      36.815  -6.209  27.668  1.00  0.00    -0.065 N 
ATOM     30  H13 UNL     1      37.112  -6.722  26.838  1.00  0.00     0.275 HD
ATOM     31  H12 UNL     1      35.879  -5.950  27.355  1.00  0.00     0.275 HD
ATOM     32  H11 UNL     1      37.402  -5.393  27.844  1.00  0.00     0.275 HD
ENDBRANCH  27  29
ENDBRANCH  26  27
ENDBRANCH   1  25
TORSDOF 8
ENDMDL
