MODEL 1
REMARK VINA RESULT: -7.419991765      0.000      0.000
REMARK  4 active torsions:
REMARK  status: ('A' for Active; 'I' for Inactive)
REMARK    1  A    between atoms: C16_17  and  N1_18 
REMARK       I    between atoms: N1_18  and  C17_20 
REMARK       I    between atoms: C17_20  and  N6_30 
REMARK    2  A    between atoms: N2_21  and  C18_23 
REMARK    3  A    between atoms: C18_23  and  C19_24 
REMARK    4  A    between atoms: C19_24  and  N3_25 
ROOT
HETATM    1  C1  UNL     1      45.929   2.714  39.602  1.00  0.00     0.097 C 
HETATM    2  C2  UNL     1      45.064   2.007  39.107  1.00  0.00    -0.182 C 
HETATM    3  C3  UNL     1      44.043   1.141  38.509  1.00  0.00     0.062 C 
HETATM    4  C4  UNL     1      43.188   0.526  39.572  1.00  0.00     0.043 C 
HETATM    5  C5  UNL     1      41.746   0.730  39.437  1.00  0.00    -0.026 C 
HETATM    6  C6  UNL     1      41.094   1.115  38.359  1.00  0.00     0.012 C 
HETATM    7  C7  UNL     1      41.960   1.371  37.135  1.00  0.00     0.126 C 
HETATM    8  F1  UNL     1      41.249   2.272  36.370  1.00  0.00    -0.238 F 
HETATM    9  C8  UNL     1      42.019   0.066  36.496  1.00  0.00     0.049 C 
HETATM   10  C9  UNL     1      42.937  -0.254  35.404  1.00  0.00     0.014 C 
HETATM   11  C10 UNL     1      43.089   0.800  34.335  1.00  0.00     0.038 C 
HETATM   12  C11 UNL     1      44.313   1.553  34.700  1.00  0.00    -0.075 C 
HETATM   13  C12 UNL     1      44.605   2.401  35.657  1.00  0.00    -0.023 C 
HETATM   14  C13 UNL     1      43.894   2.981  36.775  1.00  0.00     0.037 C 
HETATM   15  C14 UNL     1      43.155   2.041  37.671  1.00  0.00     0.048 C 
HETATM   16  C15 UNL     1      45.008   0.939  33.565  1.00  0.00     0.060 C 
HETATM   17  C16 UNL     1      43.705   0.428  33.049  1.00  0.00     0.111 C 
ENDROOT
BRANCH  17  18
HETATM   18  N1  UNL     1      43.666  -0.920  32.603  1.00  0.00    -0.221 N 
HETATM   19  C17 UNL     1      42.859  -1.221  31.436  1.00  0.00     0.673 C 
HETATM   20  N2  UNL     1      43.397  -1.237  30.314  1.00  0.00    -0.204 N 
HETATM   21  N6  UNL     1      41.475  -1.489  31.625  1.00  0.00    -0.231 N 
ATOM     22  H2  UNL     1      44.392  -1.022  30.377  1.00  0.00     0.183 HD
HETATM   23  C21 UNL     1      40.585  -0.371  31.909  1.00  0.00     0.165 C 
ATOM     24  H6  UNL     1      41.114  -2.441  31.564  1.00  0.00     0.177 HD
ATOM     25  H1  UNL     1      44.188  -1.651  33.087  1.00  0.00     0.178 HD
BRANCH  20  26
HETATM   26  C18 UNL     1      43.008  -1.468  28.994  1.00  0.00     0.098 C 
BRANCH  26  27
HETATM   27  C19 UNL     1      44.089  -1.689  27.978  1.00  0.00     0.167 C 
BRANCH  27  28
HETATM   28  N3  UNL     1      43.905  -0.764  26.863  1.00  0.00    -0.362 N 
HETATM   29  C20 UNL     1      44.083  -1.104  25.640  1.00  0.00     0.197 C 
HETATM   30  N4  UNL     1      43.870  -0.104  24.650  1.00  0.00    -0.067 NA
HETATM   31  N5  UNL     1      44.474  -2.399  25.218  1.00  0.00    -0.067 NA
ATOM     32  H3  UNL     1      43.623   0.195  27.067  1.00  0.00     0.162 HD
ENDBRANCH  27  28
ENDBRANCH  26  27
ENDBRANCH  20  26
ENDBRANCH  17  18
TORSDOF 4
ENDMDL
MODEL 2
REMARK VINA RESULT: -7.107167028      1.527      1.797
REMARK  4 active torsions:
REMARK  status: ('A' for Active; 'I' for Inactive)
REMARK    1  A    between atoms: C16_17  and  N1_18 
REMARK       I    between atoms: N1_18  and  C17_20 
REMARK       I    between atoms: C17_20  and  N6_30 
REMARK    2  A    between atoms: N2_21  and  C18_23 
REMARK    3  A    between atoms: C18_23  and  C19_24 
REMARK    4  A    between atoms: C19_24  and  N3_25 
ROOT
HETATM    1  C1  UNL     1      47.439   0.846  37.716  1.00  0.00     0.097 C 
HETATM    2  C2  UNL     1      46.328   0.353  37.588  1.00  0.00    -0.182 C 
HETATM    3  C3  UNL     1      45.006  -0.260  37.425  1.00  0.00     0.062 C 
HETATM    4  C4  UNL     1      44.501  -0.777  38.734  1.00  0.00     0.043 C 
HETATM    5  C5  UNL     1      43.185  -0.295  39.154  1.00  0.00    -0.026 C 
HETATM    6  C6  UNL     1      42.272   0.284  38.401  1.00  0.00     0.012 C 
HETATM    7  C7  UNL     1      42.654   0.459  36.939  1.00  0.00     0.126 C 
HETATM    8  F1  UNL     1      41.909   1.530  36.495  1.00  0.00    -0.238 F 
HETATM    9  C8  UNL     1      42.207  -0.785  36.331  1.00  0.00     0.049 C 
HETATM   10  C9  UNL     1      42.569  -1.192  34.974  1.00  0.00     0.014 C 
HETATM   11  C10 UNL     1      42.523  -0.112  33.923  1.00  0.00     0.038 C 
HETATM   12  C11 UNL     1      43.920   0.368  33.794  1.00  0.00    -0.075 C 
HETATM   13  C12 UNL     1      44.712   1.074  34.566  1.00  0.00    -0.023 C 
HETATM   14  C13 UNL     1      44.600   1.695  35.867  1.00  0.00     0.037 C 
HETATM   15  C14 UNL     1      44.072   0.850  36.980  1.00  0.00     0.048 C 
HETATM   16  C15 UNL     1      44.005  -0.284  32.483  1.00  0.00     0.060 C 
HETATM   17  C16 UNL     1      42.529  -0.501  32.501  1.00  0.00     0.111 C 
ENDROOT
BRANCH  17  18
HETATM   18  N1  UNL     1      42.056  -1.781  32.109  1.00  0.00    -0.221 N 
HETATM   19  C17 UNL     1      41.645  -1.955  30.729  1.00  0.00     0.673 C 
HETATM   20  N2  UNL     1      42.465  -2.396  29.903  1.00  0.00    -0.204 N 
HETATM   21  N6  UNL     1      40.312  -1.611  30.374  1.00  0.00    -0.231 N 
ATOM     22  H2  UNL     1      43.367  -2.586  30.340  1.00  0.00     0.183 HD
HETATM   23  C21 UNL     1      39.966  -0.200  30.263  1.00  0.00     0.165 C 
ATOM     24  H6  UNL     1      39.614  -2.335  30.202  1.00  0.00     0.177 HD
ATOM     25  H1  UNL     1      42.006  -2.552  32.776  1.00  0.00     0.178 HD
BRANCH  20  26
HETATM   26  C18 UNL     1      42.485  -2.703  28.542  1.00  0.00     0.098 C 
BRANCH  26  27
HETATM   27  C19 UNL     1      43.734  -3.317  27.984  1.00  0.00     0.167 C 
BRANCH  27  28
HETATM   28  N3  UNL     1      43.633  -3.390  26.530  1.00  0.00    -0.362 N 
HETATM   29  C20 UNL     1      44.278  -2.606  25.747  1.00  0.00     0.197 C 
HETATM   30  N4  UNL     1      44.088  -2.785  24.348  1.00  0.00    -0.067 NA
HETATM   31  N5  UNL     1      45.159  -1.585  26.183  1.00  0.00    -0.067 NA
ATOM     32  H3  UNL     1      43.021  -4.095  26.118  1.00  0.00     0.162 HD
ENDBRANCH  27  28
ENDBRANCH  26  27
ENDBRANCH  20  26
ENDBRANCH  17  18
TORSDOF 4
ENDMDL
MODEL 3
REMARK VINA RESULT: -6.917890135      2.263      3.185
REMARK  4 active torsions:
REMARK  status: ('A' for Active; 'I' for Inactive)
REMARK    1  A    between atoms: C16_17  and  N1_18 
REMARK       I    between atoms: N1_18  and  C17_20 
REMARK       I    between atoms: C17_20  and  N6_30 
REMARK    2  A    between atoms: N2_21  and  C18_23 
REMARK    3  A    between atoms: C18_23  and  C19_24 
REMARK    4  A    between atoms: C19_24  and  N3_25 
ROOT
HETATM    1  C1  UNL     1      48.392   0.104  35.695  1.00  0.00     0.097 C 
HETATM    2  C2  UNL     1      47.217   0.021  36.019  1.00  0.00    -0.182 C 
HETATM    3  C3  UNL     1      45.808  -0.104  36.405  1.00  0.00     0.062 C 
HETATM    4  C4  UNL     1      45.662  -0.028  37.892  1.00  0.00     0.043 C 
HETATM    5  C5  UNL     1      44.735   0.983  38.398  1.00  0.00    -0.026 C 
HETATM    6  C6  UNL     1      43.800   1.617  37.719  1.00  0.00     0.012 C 
HETATM    7  C7  UNL     1      43.696   1.237  36.250  1.00  0.00     0.126 C 
HETATM    8  F1  UNL     1      43.143   2.337  35.629  1.00  0.00    -0.238 F 
HETATM    9  C8  UNL     1      42.769   0.116  36.265  1.00  0.00     0.049 C 
HETATM   10  C9  UNL     1      42.535  -0.748  35.109  1.00  0.00     0.014 C 
HETATM   11  C10 UNL     1      42.412  -0.054  33.776  1.00  0.00     0.038 C 
HETATM   12  C11 UNL     1      43.756  -0.155  33.158  1.00  0.00    -0.075 C 
HETATM   13  C12 UNL     1      44.915   0.408  33.409  1.00  0.00    -0.023 C 
HETATM   14  C13 UNL     1      45.411   1.361  34.377  1.00  0.00     0.037 C 
HETATM   15  C14 UNL     1      45.094   1.097  35.813  1.00  0.00     0.048 C 
HETATM   16  C15 UNL     1      43.225  -1.127  32.198  1.00  0.00     0.060 C 
HETATM   17  C16 UNL     1      41.838  -0.794  32.638  1.00  0.00     0.111 C 
ENDROOT
BRANCH  17  18
HETATM   18  N1  UNL     1      40.951  -1.879  32.866  1.00  0.00    -0.221 N 
HETATM   19  C17 UNL     1      40.367  -2.529  31.708  1.00  0.00     0.673 C 
HETATM   20  N2  UNL     1      40.919  -3.540  31.238  1.00  0.00    -0.204 N 
HETATM   21  N6  UNL     1      39.179  -1.978  31.154  1.00  0.00    -0.231 N 
ATOM     22  H2  UNL     1      41.756  -3.786  31.766  1.00  0.00     0.183 HD
HETATM   23  C21 UNL     1      39.282  -0.753  30.371  1.00  0.00     0.165 C 
ATOM     24  H6  UNL     1      38.277  -2.429  31.301  1.00  0.00     0.177 HD
ATOM     25  H1  UNL     1      40.731  -2.190  33.813  1.00  0.00     0.178 HD
BRANCH  20  26
HETATM   26  C18 UNL     1      40.703  -4.430  30.185  1.00  0.00     0.098 C 
BRANCH  26  27
HETATM   27  C19 UNL     1      41.876  -5.223  29.691  1.00  0.00     0.167 C 
BRANCH  27  28
HETATM   28  N3  UNL     1      42.238  -4.772  28.350  1.00  0.00    -0.362 N 
HETATM   29  C20 UNL     1      43.060  -3.812  28.137  1.00  0.00     0.197 C 
HETATM   30  N4  UNL     1      43.325  -3.472  26.781  1.00  0.00    -0.067 NA
HETATM   31  N5  UNL     1      43.713  -3.076  29.157  1.00  0.00    -0.067 NA
ATOM     32  H3  UNL     1      41.818  -5.242  27.548  1.00  0.00     0.162 HD
ENDBRANCH  27  28
ENDBRANCH  26  27
ENDBRANCH  20  26
ENDBRANCH  17  18
TORSDOF 4
ENDMDL
MODEL 4
REMARK VINA RESULT: -6.841984914      1.129      1.328
REMARK  4 active torsions:
REMARK  status: ('A' for Active; 'I' for Inactive)
REMARK    1  A    between atoms: C16_17  and  N1_18 
REMARK       I    between atoms: N1_18  and  C17_20 
REMARK       I    between atoms: C17_20  and  N6_30 
REMARK    2  A    between atoms: N2_21  and  C18_23 
REMARK    3  A    between atoms: C18_23  and  C19_24 
REMARK    4  A    between atoms: C19_24  and  N3_25 
ROOT
HETATM    1  C1  UNL     1      45.544   2.763  38.457  1.00  0.00     0.097 C 
HETATM    2  C2  UNL     1      44.655   2.001  38.107  1.00  0.00    -0.182 C 
HETATM    3  C3  UNL     1      43.606   1.067  37.686  1.00  0.00     0.062 C 
HETATM    4  C4  UNL     1      42.780   0.642  38.859  1.00  0.00     0.043 C 
HETATM    5  C5  UNL     1      41.336   0.845  38.738  1.00  0.00    -0.026 C 
HETATM    6  C6  UNL     1      40.653   1.066  37.634  1.00  0.00     0.012 C 
HETATM    7  C7  UNL     1      41.481   1.111  36.358  1.00  0.00     0.126 C 
HETATM    8  F1  UNL     1      40.755   1.890  35.482  1.00  0.00    -0.238 F 
HETATM    9  C8  UNL     1      41.505  -0.280  35.933  1.00  0.00     0.049 C 
HETATM   10  C9  UNL     1      42.382  -0.783  34.877  1.00  0.00     0.014 C 
HETATM   11  C10 UNL     1      42.510   0.086  33.651  1.00  0.00     0.038 C 
HETATM   12  C11 UNL     1      43.754   0.867  33.853  1.00  0.00    -0.075 C 
HETATM   13  C12 UNL     1      44.087   1.852  34.654  1.00  0.00    -0.023 C 
HETATM   14  C13 UNL     1      43.420   2.612  35.688  1.00  0.00     0.037 C 
HETATM   15  C14 UNL     1      42.700   1.837  36.744  1.00  0.00     0.048 C 
HETATM   16  C15 UNL     1      44.405   0.070  32.809  1.00  0.00     0.060 C 
HETATM   17  C16 UNL     1      43.079  -0.495  32.422  1.00  0.00     0.111 C 
ENDROOT
BRANCH  17  18
HETATM   18  N1  UNL     1      43.011  -1.895  32.196  1.00  0.00    -0.221 N 
HETATM   19  C17 UNL     1      42.272  -2.357  31.036  1.00  0.00     0.673 C 
HETATM   20  N2  UNL     1      42.883  -2.573  29.974  1.00  0.00    -0.204 N 
HETATM   21  N6  UNL     1      40.868  -2.544  31.163  1.00  0.00    -0.231 N 
ATOM     22  H2  UNL     1      43.880  -2.384  30.075  1.00  0.00     0.183 HD
HETATM   23  C21 UNL     1      40.011  -1.366  31.197  1.00  0.00     0.165 C 
ATOM     24  H6  UNL     1      40.470  -3.481  31.229  1.00  0.00     0.177 HD
ATOM     25  H1  UNL     1      43.466  -2.554  32.829  1.00  0.00     0.178 HD
BRANCH  20  26
HETATM   26  C18 UNL     1      42.574  -3.004  28.684  1.00  0.00     0.098 C 
BRANCH  26  27
HETATM   27  C19 UNL     1      43.708  -3.447  27.807  1.00  0.00     0.167 C 
BRANCH  27  28
HETATM   28  N3  UNL     1      43.728  -2.638  26.592  1.00  0.00    -0.362 N 
HETATM   29  C20 UNL     1      44.055  -1.398  26.587  1.00  0.00     0.197 C 
HETATM   30  N4  UNL     1      44.032  -0.726  25.333  1.00  0.00    -0.067 NA
HETATM   31  N5  UNL     1      44.433  -0.666  27.739  1.00  0.00    -0.067 NA
ATOM     32  H3  UNL     1      43.470  -3.078  25.709  1.00  0.00     0.162 HD
ENDBRANCH  27  28
ENDBRANCH  26  27
ENDBRANCH  20  26
ENDBRANCH  17  18
TORSDOF 4
ENDMDL
MODEL 5
REMARK VINA RESULT: -6.805147873      6.953      9.197
REMARK  4 active torsions:
REMARK  status: ('A' for Active; 'I' for Inactive)
REMARK    1  A    between atoms: C16_17  and  N1_18 
REMARK       I    between atoms: N1_18  and  C17_20 
REMARK       I    between atoms: C17_20  and  N6_30 
REMARK    2  A    between atoms: N2_21  and  C18_23 
REMARK    3  A    between atoms: C18_23  and  C19_24 
REMARK    4  A    between atoms: C19_24  and  N3_25 
ROOT
HETATM    1  C1  UNL     1      44.061  -1.222  27.618  1.00  0.00     0.097 C 
HETATM    2  C2  UNL     1      43.397  -1.470  28.614  1.00  0.00    -0.182 C 
HETATM    3  C3  UNL     1      42.621  -1.763  29.823  1.00  0.00     0.062 C 
HETATM    4  C4  UNL     1      41.764  -0.594  30.193  1.00  0.00     0.043 C 
HETATM    5  C5  UNL     1      40.335  -0.865  30.348  1.00  0.00    -0.026 C 
HETATM    6  C6  UNL     1      39.761  -2.040  30.501  1.00  0.00     0.012 C 
HETATM    7  C7  UNL     1      40.709  -3.229  30.514  1.00  0.00     0.126 C 
HETATM    8  F1  UNL     1      39.951  -4.303  30.099  1.00  0.00    -0.238 F 
HETATM    9  C8  UNL     1      41.070  -3.347  31.918  1.00  0.00     0.049 C 
HETATM   10  C9  UNL     1      42.154  -4.202  32.400  1.00  0.00     0.014 C 
HETATM   11  C10 UNL     1      42.248  -5.571  31.774  1.00  0.00     0.038 C 
HETATM   12  C11 UNL     1      43.270  -5.444  30.708  1.00  0.00    -0.075 C 
HETATM   13  C12 UNL     1      43.295  -4.846  29.540  1.00  0.00    -0.023 C 
HETATM   14  C13 UNL     1      42.365  -4.051  28.768  1.00  0.00     0.037 C 
HETATM   15  C14 UNL     1      41.698  -2.913  29.470  1.00  0.00     0.048 C 
HETATM   16  C15 UNL     1      44.193  -6.242  31.520  1.00  0.00     0.060 C 
HETATM   17  C16 UNL     1      43.069  -6.602  32.434  1.00  0.00     0.111 C 
ENDROOT
BRANCH  17  18
HETATM   18  N1  UNL     1      43.318  -6.530  33.830  1.00  0.00    -0.221 N 
HETATM   19  C17 UNL     1      43.652  -7.762  34.520  1.00  0.00     0.673 C 
HETATM   20  N2  UNL     1      44.849  -8.061  34.680  1.00  0.00    -0.204 N 
HETATM   21  N6  UNL     1      42.589  -8.581  34.987  1.00  0.00    -0.231 N 
ATOM     22  H2  UNL     1      45.466  -7.355  34.279  1.00  0.00     0.183 HD
HETATM   23  C21 UNL     1      41.841  -9.369  34.016  1.00  0.00     0.165 C 
ATOM     24  H6  UNL     1      42.355  -8.617  35.980  1.00  0.00     0.177 HD
ATOM     25  H1  UNL     1      43.263  -5.642  34.331  1.00  0.00     0.178 HD
BRANCH  20  26
HETATM   26  C18 UNL     1      45.577  -9.102  35.260  1.00  0.00     0.098 C 
BRANCH  26  27
HETATM   27  C19 UNL     1      45.884 -10.297  34.407  1.00  0.00     0.167 C 
BRANCH  27  28
HETATM   28  N3  UNL     1      46.664  -9.878  33.247  1.00  0.00    -0.362 N 
HETATM   29  C20 UNL     1      46.144  -9.689  32.090  1.00  0.00     0.197 C 
HETATM   30  N4  UNL     1      47.018  -9.282  31.043  1.00  0.00    -0.067 NA
HETATM   31  N5  UNL     1      44.769  -9.859  31.793  1.00  0.00    -0.067 NA
ATOM     32  H3  UNL     1      47.667  -9.729  33.361  1.00  0.00     0.162 HD
ENDBRANCH  27  28
ENDBRANCH  26  27
ENDBRANCH  20  26
ENDBRANCH  17  18
TORSDOF 4
ENDMDL
