MODEL 1
REMARK VINA RESULT: -7.494777050      0.000      0.000
REMARK  2 active torsions:
REMARK  status: ('A' for Active; 'I' for Inactive)
REMARK    1  A    between atoms: C10_10  and  N1_11 
REMARK       I    between atoms: N1_11  and  C11_13 
REMARK       I    between atoms: C11_13  and  N2_15 
REMARK    2  A    between atoms: N2_15  and  C12_17 
REMARK       I    between atoms: N3_20  and  C15_21 
ROOT
HETATM    1  N1  UNL     1      10.568   6.099  23.555  1.00  0.00    -0.338 N 
ATOM      2  H1  UNL     1      11.223   5.487  24.042  1.00  0.00     0.164 HD
HETATM    3  C11 UNL     1      11.073   7.308  23.027  1.00  0.00     0.316 C 
HETATM    4  O1  UNL     1      10.287   8.085  22.419  1.00  0.00    -0.247 OA
HETATM    5  N2  UNL     1      12.421   7.711  23.137  1.00  0.00    -0.338 N 
ATOM      6  H2  UNL     1      13.062   7.088  23.628  1.00  0.00     0.164 HD
ENDROOT
BRANCH   1   7
HETATM    7  C10 UNL     1       9.209   5.669  23.457  1.00  0.00     0.091 C 
HETATM    8  C9  UNL     1       9.027   4.196  23.739  1.00  0.00     0.012 C 
HETATM    9  C4  UNL     1       8.563   4.047  25.172  1.00  0.00    -0.008 C 
HETATM   10  C8  UNL     1      10.279   3.405  23.566  1.00  0.00     0.007 C 
HETATM   11  C3  UNL     1       7.092   4.445  25.192  1.00  0.00     0.009 C 
HETATM   12  C5  UNL     1       8.797   2.667  25.691  1.00  0.00     0.005 C 
HETATM   13  C2  UNL     1       6.964   5.749  24.449  1.00  0.00    -0.016 C 
HETATM   14  C1  UNL     1       5.985   6.616  25.222  1.00  0.00     0.010 C 
HETATM   15  C18 UNL     1       8.281   6.483  24.343  1.00  0.00     0.029 C 
HETATM   16  C6  UNL     1       8.876   1.618  24.620  1.00  0.00     0.000 C 
HETATM   17  C7  UNL     1       9.880   1.925  23.553  1.00  0.00     0.000 C 
ENDBRANCH   1   7
BRANCH   5  18
HETATM   18  C12 UNL     1      12.955   8.930  22.611  1.00  0.00     0.089 C 
HETATM   19  C13 UNL     1      14.019   9.489  23.493  1.00  0.00     0.045 C 
HETATM   20  C14 UNL     1      15.260   9.945  22.747  1.00  0.00     0.127 C 
HETATM   21  N3  UNL     1      14.820  10.715  21.613  1.00  0.00    -0.356 N 
HETATM   22  C15 UNL     1      15.223  12.061  21.487  1.00  0.00     0.183 C 
HETATM   23  C16 UNL     1      13.975  10.082  20.635  1.00  0.00     0.127 C 
HETATM   24  N4  UNL     1      14.936  12.934  22.418  1.00  0.00    -0.374 N 
HETATM   25  N5  UNL     1      15.954  12.545  20.362  1.00  0.00    -0.064 NA
ATOM     26  H42 UNL     1      14.413  12.587  23.222  1.00  0.00     0.158 HD
ATOM     27  H41 UNL     1      15.227  13.907  22.326  1.00  0.00     0.158 HD
HETATM   28  C17 UNL     1      13.346   8.814  21.155  1.00  0.00     0.045 C 
ENDBRANCH   5  18
TORSDOF 2
ENDMDL
MODEL 2
REMARK VINA RESULT: -7.460118146      1.111      1.208
REMARK  2 active torsions:
REMARK  status: ('A' for Active; 'I' for Inactive)
REMARK    1  A    between atoms: C10_10  and  N1_11 
REMARK       I    between atoms: N1_11  and  C11_13 
REMARK       I    between atoms: C11_13  and  N2_15 
REMARK    2  A    between atoms: N2_15  and  C12_17 
REMARK       I    between atoms: N3_20  and  C15_21 
ROOT
HETATM    1  N1  UNL     1      10.389   5.347  23.883  1.00  0.00    -0.338 N 
ATOM      2  H1  UNL     1      11.094   4.610  23.889  1.00  0.00     0.164 HD
HETATM    3  C11 UNL     1      10.793   6.634  23.465  1.00  0.00     0.316 C 
HETATM    4  O1  UNL     1       9.943   7.566  23.446  1.00  0.00    -0.247 OA
HETATM    5  N2  UNL     1      12.107   6.952  23.058  1.00  0.00    -0.338 N 
ATOM      6  H2  UNL     1      12.799   6.203  23.071  1.00  0.00     0.164 HD
ENDROOT
BRANCH   1   7
HETATM    7  C10 UNL     1       9.067   5.002  24.299  1.00  0.00     0.091 C 
HETATM    8  C9  UNL     1       8.789   3.517  24.233  1.00  0.00     0.012 C 
HETATM    9  C4  UNL     1       8.957   2.947  25.625  1.00  0.00    -0.008 C 
HETATM   10  C8  UNL     1       9.708   2.787  23.313  1.00  0.00     0.007 C 
HETATM   11  C3  UNL     1       7.715   3.355  26.410  1.00  0.00     0.009 C 
HETATM   12  C5  UNL     1       9.166   1.469  25.598  1.00  0.00     0.005 C 
HETATM   13  C2  UNL     1       7.495   4.827  26.177  1.00  0.00    -0.016 C 
HETATM   14  C1  UNL     1       7.085   5.439  27.507  1.00  0.00     0.010 C 
HETATM   15  C18 UNL     1       8.741   5.527  25.687  1.00  0.00     0.029 C 
HETATM   16  C6  UNL     1       8.617   0.798  24.373  1.00  0.00     0.000 C 
HETATM   17  C7  UNL     1       9.111   1.393  23.091  1.00  0.00     0.000 C 
ENDBRANCH   1   7
BRANCH   5  18
HETATM   18  C12 UNL     1      12.539   8.247  22.630  1.00  0.00     0.089 C 
HETATM   19  C13 UNL     1      13.636   8.773  23.492  1.00  0.00     0.045 C 
HETATM   20  C14 UNL     1      14.794   9.373  22.717  1.00  0.00     0.127 C 
HETATM   21  N3  UNL     1      14.235  10.229  21.704  1.00  0.00    -0.356 N 
HETATM   22  C15 UNL     1      14.560  11.601  21.695  1.00  0.00     0.183 C 
HETATM   23  C16 UNL     1      13.354   9.652  20.724  1.00  0.00     0.127 C 
HETATM   24  N4  UNL     1      14.298  12.357  22.731  1.00  0.00    -0.374 N 
HETATM   25  N5  UNL     1      15.182  12.240  20.582  1.00  0.00    -0.064 NA
ATOM     26  H42 UNL     1      13.853  11.900  23.527  1.00  0.00     0.158 HD
ATOM     27  H41 UNL     1      14.533  13.349  22.724  1.00  0.00     0.158 HD
HETATM   28  C17 UNL     1      12.828   8.303  21.147  1.00  0.00     0.045 C 
ENDBRANCH   5  18
TORSDOF 2
ENDMDL
MODEL 3
REMARK VINA RESULT: -7.443542100      5.197      8.762
REMARK  2 active torsions:
REMARK  status: ('A' for Active; 'I' for Inactive)
REMARK    1  A    between atoms: C10_10  and  N1_11 
REMARK       I    between atoms: N1_11  and  C11_13 
REMARK       I    between atoms: C11_13  and  N2_15 
REMARK    2  A    between atoms: N2_15  and  C12_17 
REMARK       I    between atoms: N3_20  and  C15_21 
ROOT
HETATM    1  N1  UNL     1       7.737   5.715  26.375  1.00  0.00    -0.338 N 
ATOM      2  H1  UNL     1       8.415   5.711  27.137  1.00  0.00     0.164 HD
HETATM    3  C11 UNL     1       7.566   4.517  25.646  1.00  0.00     0.316 C 
HETATM    4  O1  UNL     1       6.733   4.491  24.698  1.00  0.00    -0.247 OA
HETATM    5  N2  UNL     1       8.276   3.327  25.912  1.00  0.00    -0.338 N 
ATOM      6  H2  UNL     1       8.951   3.340  26.676  1.00  0.00     0.164 HD
ENDROOT
BRANCH   1   7
HETATM    7  C10 UNL     1       7.031   6.931  26.124  1.00  0.00     0.091 C 
HETATM    8  C9  UNL     1       7.755   7.856  25.173  1.00  0.00     0.012 C 
HETATM    9  C4  UNL     1       7.150   7.677  23.796  1.00  0.00    -0.008 C 
HETATM   10  C8  UNL     1       9.217   7.581  25.082  1.00  0.00     0.007 C 
HETATM   11  C3  UNL     1       5.812   8.406  23.816  1.00  0.00     0.009 C 
HETATM   12  C5  UNL     1       8.061   8.170  22.722  1.00  0.00     0.005 C 
HETATM   13  C2  UNL     1       5.081   7.981  25.064  1.00  0.00    -0.016 C 
HETATM   14  C1  UNL     1       3.622   7.783  24.689  1.00  0.00     0.010 C 
HETATM   15  C18 UNL     1       5.615   6.687  25.631  1.00  0.00     0.029 C 
HETATM   16  C6  UNL     1       9.046   9.205  23.184  1.00  0.00     0.000 C 
HETATM   17  C7  UNL     1       9.858   8.775  24.366  1.00  0.00     0.000 C 
ENDBRANCH   1   7
BRANCH   5  18
HETATM   18  C12 UNL     1       8.119   2.103  25.188  1.00  0.00     0.089 C 
HETATM   19  C13 UNL     1       8.983   2.069  23.973  1.00  0.00     0.045 C 
HETATM   20  C14 UNL     1       9.738   0.765  23.790  1.00  0.00     0.127 C 
HETATM   21  N3  UNL     1       8.802  -0.307  24.009  1.00  0.00    -0.356 N 
HETATM   22  C15 UNL     1       8.551  -1.234  22.976  1.00  0.00     0.183 C 
HETATM   23  C16 UNL     1       8.147  -0.400  25.286  1.00  0.00     0.127 C 
HETATM   24  N4  UNL     1       8.097  -0.834  21.816  1.00  0.00    -0.374 N 
HETATM   25  N5  UNL     1       8.774  -2.635  23.125  1.00  0.00    -0.064 NA
ATOM     26  H42 UNL     1       7.938   0.168  21.710  1.00  0.00     0.158 HD
ATOM     27  H41 UNL     1       7.915  -1.504  21.069  1.00  0.00     0.158 HD
HETATM   28  C17 UNL     1       8.239   0.883  26.074  1.00  0.00     0.045 C 
ENDBRANCH   5  18
TORSDOF 2
ENDMDL
MODEL 4
REMARK VINA RESULT: -7.213832508      3.203      8.740
REMARK  2 active torsions:
REMARK  status: ('A' for Active; 'I' for Inactive)
REMARK    1  A    between atoms: C10_10  and  N1_11 
REMARK       I    between atoms: N1_11  and  C11_13 
REMARK       I    between atoms: C11_13  and  N2_15 
REMARK    2  A    between atoms: N2_15  and  C12_17 
REMARK       I    between atoms: N3_20  and  C15_21 
ROOT
HETATM    1  N1  UNL     1      10.131   6.873  22.963  1.00  0.00    -0.338 N 
ATOM      2  H1  UNL     1      10.213   6.877  21.946  1.00  0.00     0.164 HD
HETATM    3  C11 UNL     1       9.630   5.702  23.574  1.00  0.00     0.316 C 
HETATM    4  O1  UNL     1       9.519   5.667  24.830  1.00  0.00    -0.247 OA
HETATM    5  N2  UNL     1       9.239   4.549  22.860  1.00  0.00    -0.338 N 
ATOM      6  H2  UNL     1       9.326   4.570  21.844  1.00  0.00     0.164 HD
ENDROOT
BRANCH   1   7
HETATM    7  C10 UNL     1      10.533   8.051  23.663  1.00  0.00     0.091 C 
HETATM    8  C9  UNL     1      11.919   8.524  23.289  1.00  0.00     0.012 C 
HETATM    9  C4  UNL     1      11.774   9.643  22.280  1.00  0.00    -0.008 C 
HETATM   10  C8  UNL     1      12.763   7.454  22.686  1.00  0.00     0.007 C 
HETATM   11  C3  UNL     1      11.339  10.876  23.063  1.00  0.00     0.009 C 
HETATM   12  C5  UNL     1      13.034   9.862  21.509  1.00  0.00     0.005 C 
HETATM   13  C2  UNL     1      10.200  10.466  23.959  1.00  0.00    -0.016 C 
HETATM   14  C1  UNL     1       9.172  11.585  23.926  1.00  0.00     0.010 C 
HETATM   15  C18 UNL     1       9.537   9.187  23.501  1.00  0.00     0.029 C 
HETATM   16  C6  UNL     1      14.272   9.398  22.221  1.00  0.00     0.000 C 
HETATM   17  C7  UNL     1      14.206   7.971  22.671  1.00  0.00     0.000 C 
ENDBRANCH   1   7
BRANCH   5  18
HETATM   18  C12 UNL     1       8.729   3.353  23.457  1.00  0.00     0.089 C 
HETATM   19  C13 UNL     1       9.464   2.146  22.983  1.00  0.00     0.045 C 
HETATM   20  C14 UNL     1       9.854   1.187  24.093  1.00  0.00     0.127 C 
HETATM   21  N3  UNL     1       8.700   1.012  24.934  1.00  0.00    -0.356 N 
HETATM   22  C15 UNL     1       8.150  -0.276  25.102  1.00  0.00     0.183 C 
HETATM   23  C16 UNL     1       8.137   2.166  25.582  1.00  0.00     0.127 C 
HETATM   24  N4  UNL     1       7.725  -0.961  24.072  1.00  0.00    -0.374 N 
HETATM   25  N5  UNL     1       8.026  -0.901  26.378  1.00  0.00    -0.064 NA
ATOM     26  H42 UNL     1       7.814  -0.514  23.159  1.00  0.00     0.158 HD
ATOM     27  H41 UNL     1       7.328  -1.893  24.194  1.00  0.00     0.158 HD
HETATM   28  C17 UNL     1       8.605   3.459  24.960  1.00  0.00     0.045 C 
ENDBRANCH   5  18
TORSDOF 2
ENDMDL
MODEL 5
REMARK VINA RESULT: -7.177870641      3.504      8.958
REMARK  2 active torsions:
REMARK  status: ('A' for Active; 'I' for Inactive)
REMARK    1  A    between atoms: C10_10  and  N1_11 
REMARK       I    between atoms: N1_11  and  C11_13 
REMARK       I    between atoms: C11_13  and  N2_15 
REMARK    2  A    between atoms: N2_15  and  C12_17 
REMARK       I    between atoms: N3_20  and  C15_21 
ROOT
HETATM    1  N1  UNL     1       9.822   6.601  24.384  1.00  0.00    -0.338 N 
ATOM      2  H1  UNL     1       9.959   6.771  25.380  1.00  0.00     0.164 HD
HETATM    3  C11 UNL     1       9.418   5.306  23.991  1.00  0.00     0.316 C 
HETATM    4  O1  UNL     1       9.240   5.067  22.765  1.00  0.00    -0.247 OA
HETATM    5  N2  UNL     1       9.198   4.244  24.893  1.00  0.00    -0.338 N 
ATOM      6  H2  UNL     1       9.341   4.430  25.886  1.00  0.00     0.164 HD
ENDROOT
BRANCH   1   7
HETATM    7  C10 UNL     1      10.052   7.691  23.490  1.00  0.00     0.091 C 
HETATM    8  C9  UNL     1       9.709   9.036  24.088  1.00  0.00     0.012 C 
HETATM    9  C4  UNL     1      10.994   9.673  24.575  1.00  0.00    -0.008 C 
HETATM   10  C8  UNL     1       8.766   8.945  25.238  1.00  0.00     0.007 C 
HETATM   11  C3  UNL     1      11.721  10.178  23.334  1.00  0.00     0.009 C 
HETATM   12  C5  UNL     1      10.735  10.752  25.573  1.00  0.00     0.005 C 
HETATM   13  C2  UNL     1      11.724   9.060  22.323  1.00  0.00    -0.016 C 
HETATM   14  C1  UNL     1      13.096   9.045  21.669  1.00  0.00     0.010 C 
HETATM   15  C18 UNL     1      11.474   7.711  22.955  1.00  0.00     0.029 C 
HETATM   16  C6  UNL     1       9.369  11.365  25.468  1.00  0.00     0.000 C 
HETATM   17  C7  UNL     1       8.257  10.364  25.519  1.00  0.00     0.000 C 
ENDBRANCH   1   7
BRANCH   5  18
HETATM   18  C12 UNL     1       8.789   2.925  24.519  1.00  0.00     0.089 C 
HETATM   19  C13 UNL     1       9.633   2.380  23.417  1.00  0.00     0.045 C 
HETATM   20  C14 UNL     1      10.094   0.952  23.644  1.00  0.00     0.127 C 
HETATM   21  N3  UNL     1       8.951   0.196  24.083  1.00  0.00    -0.356 N 
HETATM   22  C15 UNL     1       8.515  -0.910  23.325  1.00  0.00     0.183 C 
HETATM   23  C16 UNL     1       8.283   0.597  25.292  1.00  0.00     0.127 C 
HETATM   24  N4  UNL     1       8.163  -0.766  22.073  1.00  0.00    -0.374 N 
HETATM   25  N5  UNL     1       8.434  -2.230  23.862  1.00  0.00    -0.064 NA
ATOM     26  H42 UNL     1       8.222   0.178  21.690  1.00  0.00     0.158 HD
ATOM     27  H41 UNL     1       7.848  -1.566  21.525  1.00  0.00     0.158 HD
HETATM   28  C17 UNL     1       8.641   2.002  25.708  1.00  0.00     0.045 C 
ENDBRANCH   5  18
TORSDOF 2
ENDMDL
