MODEL 1
REMARK VINA RESULT: -6.910658112      0.000      0.000
REMARK  4 active torsions:
REMARK  status: ('A' for Active; 'I' for Inactive)
REMARK    1  A    between atoms: C2_2  and  C5_5 
REMARK    2  A    between atoms: C5_5  and  C6_6 
REMARK    3  A    between atoms: C6_6  and  N1_7 
REMARK       I    between atoms: N1_7  and  C7_9 
REMARK       I    between atoms: C7_9  and  N2_11 
REMARK       I    between atoms: C8_13  and  N4_15 
REMARK    4  A    between atoms: N4_15  and  C9_17 
ROOT
HETATM    1  N1  UNL     1      14.315   9.741  22.300  1.00  0.00    -0.343 N 
ATOM      2  H1  UNL     1      13.861   9.436  21.438  1.00  0.00     0.164 HD
HETATM    3  C7  UNL     1      13.728   9.335  23.526  1.00  0.00     0.322 C 
HETATM    4  O1  UNL     1      14.249   9.688  24.606  1.00  0.00    -0.247 OA
HETATM    5  N2  UNL     1      12.550   8.528  23.561  1.00  0.00    -0.283 N 
ATOM      6  H2  UNL     1      11.732   8.877  24.059  1.00  0.00     0.173 HD
HETATM    7  C8  UNL     1      12.482   7.380  22.990  1.00  0.00     0.193 C 
HETATM    8  N3  UNL     1      13.620   6.893  22.296  1.00  0.00    -0.063 NA
HETATM    9  N4  UNL     1      11.288   6.619  23.055  1.00  0.00    -0.343 N 
ATOM     10  H4  UNL     1      11.198   5.779  22.483  1.00  0.00     0.164 HD
ENDROOT
BRANCH   9  11
HETATM   11  C9  UNL     1      10.194   7.013  23.922  1.00  0.00     0.181 C 
HETATM   12  C10 UNL     1       9.200   7.820  23.190  1.00  0.00     0.051 C 
HETATM   13  C11 UNL     1       7.765   7.455  23.405  1.00  0.00    -0.010 C 
HETATM   14  C12 UNL     1       7.329   7.575  24.829  1.00  0.00     0.011 C 
HETATM   15  C16 UNL     1       7.397   6.132  22.772  1.00  0.00     0.011 C 
HETATM   16  C13 UNL     1       7.587   6.371  25.668  1.00  0.00     0.004 C 
HETATM   17  C14 UNL     1       6.989   5.165  24.990  1.00  0.00     0.012 C 
HETATM   18  C18 UNL     1       9.063   6.107  25.844  1.00  0.00     0.123 C 
HETATM   19  C15 UNL     1       7.668   4.964  23.674  1.00  0.00     0.004 C 
HETATM   20  C17 UNL     1       9.171   4.831  23.807  1.00  0.00     0.123 C 
HETATM   21  N5  UNL     1       9.709   5.866  24.606  1.00  0.00    -0.392 N 
ENDBRANCH   9  11
BRANCH   1  22
HETATM   22  C6  UNL     1      15.493  10.545  22.175  1.00  0.00     0.125 C 
BRANCH  22  23
HETATM   23  C5  UNL     1      15.579  11.243  20.857  1.00  0.00     0.028 C 
BRANCH  23  24
HETATM   24  C2  UNL     1      15.966  12.705  21.049  1.00  0.00    -0.050 C 
HETATM   25  C1  UNL     1      17.446  12.811  21.230  1.00  0.00     0.014 C 
HETATM   26  C3  UNL     1      15.586  13.429  19.764  1.00  0.00     0.014 C 
HETATM   27  C4  UNL     1      15.279  13.319  22.239  1.00  0.00     0.014 C 
ENDBRANCH  23  24
ENDBRANCH  22  23
ENDBRANCH   1  22
TORSDOF 4
ENDMDL
MODEL 2
REMARK VINA RESULT: -6.891220940      1.095      1.567
REMARK  4 active torsions:
REMARK  status: ('A' for Active; 'I' for Inactive)
REMARK    1  A    between atoms: C2_2  and  C5_5 
REMARK    2  A    between atoms: C5_5  and  C6_6 
REMARK    3  A    between atoms: C6_6  and  N1_7 
REMARK       I    between atoms: N1_7  and  C7_9 
REMARK       I    between atoms: C7_9  and  N2_11 
REMARK       I    between atoms: C8_13  and  N4_15 
REMARK    4  A    between atoms: N4_15  and  C9_17 
ROOT
HETATM    1  N1  UNL     1      14.172  10.025  22.796  1.00  0.00    -0.343 N 
ATOM      2  H1  UNL     1      13.351  10.631  22.787  1.00  0.00     0.164 HD
HETATM    3  C7  UNL     1      13.963   8.646  23.056  1.00  0.00     0.322 C 
HETATM    4  O1  UNL     1      14.941   7.867  23.079  1.00  0.00    -0.247 OA
HETATM    5  N2  UNL     1      12.657   8.119  23.293  1.00  0.00    -0.283 N 
ATOM      6  H2  UNL     1      12.480   7.622  24.166  1.00  0.00     0.173 HD
HETATM    7  C8  UNL     1      11.697   8.246  22.451  1.00  0.00     0.193 C 
HETATM    8  N3  UNL     1      11.941   8.938  21.236  1.00  0.00    -0.063 NA
HETATM    9  N4  UNL     1      10.419   7.704  22.736  1.00  0.00    -0.343 N 
ATOM     10  H4  UNL     1       9.631   7.932  22.129  1.00  0.00     0.164 HD
ENDROOT
BRANCH   9  11
HETATM   11  C9  UNL     1      10.212   6.830  23.876  1.00  0.00     0.181 C 
HETATM   12  C10 UNL     1       9.589   7.556  24.997  1.00  0.00     0.051 C 
HETATM   13  C11 UNL     1       8.448   6.869  25.678  1.00  0.00    -0.010 C 
HETATM   14  C12 UNL     1       8.823   5.555  26.281  1.00  0.00     0.011 C 
HETATM   15  C16 UNL     1       7.206   6.804  24.817  1.00  0.00     0.011 C 
HETATM   16  C13 UNL     1       8.750   4.393  25.351  1.00  0.00     0.004 C 
HETATM   17  C14 UNL     1       7.382   4.359  24.718  1.00  0.00     0.012 C 
HETATM   18  C18 UNL     1       9.763   4.493  24.236  1.00  0.00     0.123 C 
HETATM   19  C15 UNL     1       7.189   5.605  23.915  1.00  0.00     0.004 C 
HETATM   20  C17 UNL     1       8.272   5.802  22.875  1.00  0.00     0.123 C 
HETATM   21  N5  UNL     1       9.560   5.646  23.438  1.00  0.00    -0.392 N 
ENDBRANCH   9  11
BRANCH   1  22
HETATM   22  C6  UNL     1      15.445  10.634  22.545  1.00  0.00     0.125 C 
BRANCH  22  23
HETATM   23  C5  UNL     1      15.589  11.109  21.136  1.00  0.00     0.028 C 
BRANCH  23  24
HETATM   24  C2  UNL     1      15.980  12.581  21.105  1.00  0.00    -0.050 C 
HETATM   25  C1  UNL     1      17.464  12.709  21.236  1.00  0.00     0.014 C 
HETATM   26  C3  UNL     1      15.572  13.111  19.736  1.00  0.00     0.014 C 
HETATM   27  C4  UNL     1      15.319  13.364  22.207  1.00  0.00     0.014 C 
ENDBRANCH  23  24
ENDBRANCH  22  23
ENDBRANCH   1  22
TORSDOF 4
ENDMDL
MODEL 3
REMARK VINA RESULT: -6.703849183      1.272      1.871
REMARK  4 active torsions:
REMARK  status: ('A' for Active; 'I' for Inactive)
REMARK    1  A    between atoms: C2_2  and  C5_5 
REMARK    2  A    between atoms: C5_5  and  C6_6 
REMARK    3  A    between atoms: C6_6  and  N1_7 
REMARK       I    between atoms: N1_7  and  C7_9 
REMARK       I    between atoms: C7_9  and  N2_11 
REMARK       I    between atoms: C8_13  and  N4_15 
REMARK    4  A    between atoms: N4_15  and  C9_17 
ROOT
HETATM    1  N1  UNL     1      13.348   9.265  21.265  1.00  0.00    -0.343 N 
ATOM      2  H1  UNL     1      13.164   8.460  20.666  1.00  0.00     0.164 HD
HETATM    3  C7  UNL     1      12.504   9.450  22.390  1.00  0.00     0.322 C 
HETATM    4  O1  UNL     1      12.693  10.425  23.149  1.00  0.00    -0.247 OA
HETATM    5  N2  UNL     1      11.438   8.546  22.682  1.00  0.00    -0.283 N 
ATOM      6  H2  UNL     1      10.489   8.914  22.754  1.00  0.00     0.173 HD
HETATM    7  C8  UNL     1      11.626   7.288  22.857  1.00  0.00     0.193 C 
HETATM    8  N3  UNL     1      12.946   6.775  22.757  1.00  0.00    -0.063 NA
HETATM    9  N4  UNL     1      10.533   6.434  23.145  1.00  0.00    -0.343 N 
ATOM     10  H4  UNL     1      10.672   5.423  23.142  1.00  0.00     0.164 HD
ENDROOT
BRANCH   9  11
HETATM   11  C9  UNL     1       9.219   6.973  23.444  1.00  0.00     0.181 C 
HETATM   12  C10 UNL     1       8.169   6.259  22.696  1.00  0.00     0.051 C 
HETATM   13  C11 UNL     1       6.955   5.861  23.476  1.00  0.00    -0.010 C 
HETATM   14  C12 UNL     1       6.229   7.022  24.074  1.00  0.00     0.011 C 
HETATM   15  C16 UNL     1       7.233   4.751  24.464  1.00  0.00     0.011 C 
HETATM   16  C13 UNL     1       6.735   7.462  25.404  1.00  0.00     0.004 C 
HETATM   17  C14 UNL     1       6.770   6.274  26.332  1.00  0.00     0.012 C 
HETATM   18  C18 UNL     1       8.137   8.016  25.324  1.00  0.00     0.123 C 
HETATM   19  C15 UNL     1       7.726   5.262  25.786  1.00  0.00     0.004 C 
HETATM   20  C17 UNL     1       9.113   5.829  25.566  1.00  0.00     0.123 C 
HETATM   21  N5  UNL     1       9.061   7.050  24.854  1.00  0.00    -0.392 N 
ENDBRANCH   9  11
BRANCH   1  22
HETATM   22  C6  UNL     1      14.439  10.120  20.902  1.00  0.00     0.125 C 
BRANCH  22  23
HETATM   23  C5  UNL     1      14.047  11.167  19.910  1.00  0.00     0.028 C 
BRANCH  23  24
HETATM   24  C2  UNL     1      14.724  12.493  20.234  1.00  0.00    -0.050 C 
HETATM   25  C1  UNL     1      13.933  13.219  21.275  1.00  0.00     0.014 C 
HETATM   26  C3  UNL     1      16.088  12.153  20.820  1.00  0.00     0.014 C 
HETATM   27  C4  UNL     1      14.860  13.370  19.019  1.00  0.00     0.014 C 
ENDBRANCH  23  24
ENDBRANCH  22  23
ENDBRANCH   1  22
TORSDOF 4
ENDMDL
MODEL 4
REMARK VINA RESULT: -6.627869761      2.199      8.781
REMARK  4 active torsions:
REMARK  status: ('A' for Active; 'I' for Inactive)
REMARK    1  A    between atoms: C2_2  and  C5_5 
REMARK    2  A    between atoms: C5_5  and  C6_6 
REMARK    3  A    between atoms: C6_6  and  N1_7 
REMARK       I    between atoms: N1_7  and  C7_9 
REMARK       I    between atoms: C7_9  and  N2_11 
REMARK       I    between atoms: C8_13  and  N4_15 
REMARK    4  A    between atoms: N4_15  and  C9_17 
ROOT
HETATM    1  N1  UNL     1      10.337   6.801  24.383  1.00  0.00    -0.343 N 
ATOM      2  H1  UNL     1      11.185   6.992  24.916  1.00  0.00     0.164 HD
HETATM    3  C7  UNL     1      10.160   7.503  23.163  1.00  0.00     0.322 C 
HETATM    4  O1  UNL     1       9.134   7.302  22.478  1.00  0.00    -0.247 OA
HETATM    5  N2  UNL     1      11.129   8.441  22.692  1.00  0.00    -0.283 N 
ATOM      6  H2  UNL     1      10.835   9.400  22.509  1.00  0.00     0.173 HD
HETATM    7  C8  UNL     1      12.357   8.124  22.491  1.00  0.00     0.193 C 
HETATM    8  N3  UNL     1      12.769   6.790  22.746  1.00  0.00    -0.063 NA
HETATM    9  N4  UNL     1      13.279   9.093  22.023  1.00  0.00    -0.343 N 
ATOM     10  H4  UNL     1      14.274   8.869  22.002  1.00  0.00     0.164 HD
ENDROOT
BRANCH   9  11
HETATM   11  C9  UNL     1      12.831  10.398  21.573  1.00  0.00     0.181 C 
HETATM   12  C10 UNL     1      13.026  11.417  22.620  1.00  0.00     0.051 C 
HETATM   13  C11 UNL     1      13.635  12.710  22.179  1.00  0.00    -0.010 C 
HETATM   14  C12 UNL     1      12.827  13.424  21.145  1.00  0.00     0.011 C 
HETATM   15  C16 UNL     1      15.096  12.574  21.812  1.00  0.00     0.011 C 
HETATM   16  C13 UNL     1      13.098  13.010  19.739  1.00  0.00     0.004 C 
HETATM   17  C14 UNL     1      14.579  13.113  19.476  1.00  0.00     0.012 C 
HETATM   18  C18 UNL     1      12.691  11.579  19.481  1.00  0.00     0.123 C 
HETATM   19  C15 UNL     1      15.299  12.168  20.383  1.00  0.00     0.004 C 
HETATM   20  C17 UNL     1      14.814  10.740  20.241  1.00  0.00     0.123 C 
HETATM   21  N5  UNL     1      13.403  10.669  20.301  1.00  0.00    -0.392 N 
ENDBRANCH   9  11
BRANCH   1  22
HETATM   22  C6  UNL     1       9.418   5.844  24.924  1.00  0.00     0.125 C 
BRANCH  22  23
HETATM   23  C5  UNL     1       9.755   4.440  24.542  1.00  0.00     0.028 C 
BRANCH  23  24
HETATM   24  C2  UNL     1       8.667   3.481  25.010  1.00  0.00    -0.050 C 
HETATM   25  C1  UNL     1       8.800   3.253  26.482  1.00  0.00     0.014 C 
HETATM   26  C3  UNL     1       7.336   4.174  24.751  1.00  0.00     0.014 C 
HETATM   27  C4  UNL     1       8.736   2.157  24.299  1.00  0.00     0.014 C 
ENDBRANCH  23  24
ENDBRANCH  22  23
ENDBRANCH   1  22
TORSDOF 4
ENDMDL
MODEL 5
REMARK VINA RESULT: -6.619305750      1.826      8.784
REMARK  4 active torsions:
REMARK  status: ('A' for Active; 'I' for Inactive)
REMARK    1  A    between atoms: C2_2  and  C5_5 
REMARK    2  A    between atoms: C5_5  and  C6_6 
REMARK    3  A    between atoms: C6_6  and  N1_7 
REMARK       I    between atoms: N1_7  and  C7_9 
REMARK       I    between atoms: C7_9  and  N2_11 
REMARK       I    between atoms: C8_13  and  N4_15 
REMARK    4  A    between atoms: N4_15  and  C9_17 
ROOT
HETATM    1  N1  UNL     1      10.679   6.500  23.822  1.00  0.00    -0.343 N 
ATOM      2  H1  UNL     1      11.482   6.214  24.383  1.00  0.00     0.164 HD
HETATM    3  C7  UNL     1      10.804   7.691  23.062  1.00  0.00     0.322 C 
HETATM    4  O1  UNL     1       9.844   8.081  22.362  1.00  0.00    -0.247 OA
HETATM    5  N2  UNL     1      12.005   8.464  23.074  1.00  0.00    -0.283 N 
ATOM      6  H2  UNL     1      11.955   9.444  23.353  1.00  0.00     0.173 HD
HETATM    7  C8  UNL     1      13.146   7.973  22.748  1.00  0.00     0.193 C 
HETATM    8  N3  UNL     1      13.218   6.609  22.362  1.00  0.00    -0.063 NA
HETATM    9  N4  UNL     1      14.308   8.783  22.777  1.00  0.00    -0.343 N 
ATOM     10  H4  UNL     1      15.224   8.351  22.655  1.00  0.00     0.164 HD
ENDROOT
BRANCH   9  11
HETATM   11  C9  UNL     1      14.218  10.217  22.978  1.00  0.00     0.181 C 
HETATM   12  C10 UNL     1      15.447  10.747  23.595  1.00  0.00     0.051 C 
HETATM   13  C11 UNL     1      16.009  11.993  22.987  1.00  0.00    -0.010 C 
HETATM   14  C12 UNL     1      15.069  13.152  23.034  1.00  0.00     0.011 C 
HETATM   15  C16 UNL     1      16.605  11.757  21.617  1.00  0.00     0.011 C 
HETATM   16  C13 UNL     1      14.109  13.230  21.897  1.00  0.00     0.004 C 
HETATM   17  C14 UNL     1      14.878  13.175  20.602  1.00  0.00     0.012 C 
HETATM   18  C18 UNL     1      13.136  12.076  21.896  1.00  0.00     0.123 C 
HETATM   19  C15 UNL     1      15.589  11.862  20.518  1.00  0.00     0.004 C 
HETATM   20  C17 UNL     1      14.650  10.681  20.650  1.00  0.00     0.123 C 
HETATM   21  N5  UNL     1      13.795  10.828  21.767  1.00  0.00    -0.392 N 
ENDBRANCH   9  11
BRANCH   1  22
HETATM   22  C6  UNL     1       9.514   5.667  23.865  1.00  0.00     0.125 C 
BRANCH  22  23
HETATM   23  C5  UNL     1       9.819   4.272  24.304  1.00  0.00     0.028 C 
BRANCH  23  24
HETATM   24  C2  UNL     1       8.662   3.701  25.115  1.00  0.00    -0.050 C 
HETATM   25  C1  UNL     1       8.839   4.052  26.557  1.00  0.00     0.014 C 
HETATM   26  C3  UNL     1       7.397   4.382  24.607  1.00  0.00     0.014 C 
HETATM   27  C4  UNL     1       8.562   2.205  24.981  1.00  0.00     0.014 C 
ENDBRANCH  23  24
ENDBRANCH  22  23
ENDBRANCH   1  22
TORSDOF 4
ENDMDL
