MODEL 1
REMARK VINA RESULT: -6.713343684      0.000      0.000
REMARK  4 active torsions:
REMARK  status: ('A' for Active; 'I' for Inactive)
REMARK    1  A    between atoms: C2_2  and  N1_5 
REMARK       I    between atoms: N1_5  and  C5_7 
REMARK       I    between atoms: C5_7  and  N2_9 
REMARK    2  A    between atoms: C8_12  and  C9_13 
REMARK    3  A    between atoms: C9_13  and  N3_14 
REMARK       I    between atoms: N3_14  and  C10_16 
REMARK       I    between atoms: C10_16  and  N5_20 
REMARK    4  A    between atoms: N5_20  and  C11_22 
ROOT
HETATM    1  C9  UNL     1       9.628   6.213  24.135  1.00  0.00     0.144 C 
ENDROOT
BRANCH   1   2
HETATM    2  C8  UNL     1       9.260   7.638  24.468  1.00  0.00     0.024 C 
HETATM    3  C7  UNL     1       7.804   7.749  24.883  1.00  0.00     0.028 C 
HETATM    4  C6  UNL     1       7.139   7.879  23.530  1.00  0.00     0.128 C 
HETATM    5  N2  UNL     1       8.008   8.823  22.863  1.00  0.00    -0.334 N 
HETATM    6  C5  UNL     1       7.646   9.946  22.055  1.00  0.00     0.318 C 
HETATM    7  C17 UNL     1       9.361   8.421  23.167  1.00  0.00     0.134 C 
HETATM    8  N1  UNL     1       8.647  10.758  21.478  1.00  0.00    -0.335 N 
HETATM    9  O1  UNL     1       6.414  10.155  21.897  1.00  0.00    -0.247 OA
ATOM     10  H1  UNL     1       9.623  10.520  21.657  1.00  0.00     0.165 HD
BRANCH   8  11
HETATM   11  C2  UNL     1       8.369  11.894  20.658  1.00  0.00     0.023 C 
HETATM   12  C1  UNL     1       7.756  13.013  21.490  1.00  0.00     0.037 C 
HETATM   13  C3  UNL     1       9.708  12.454  20.166  1.00  0.00     0.037 C 
HETATM   14  C4  UNL     1       7.501  11.574  19.449  1.00  0.00     0.037 C 
ENDBRANCH   8  11
ENDBRANCH   1   2
BRANCH   1  15
HETATM   15  N3  UNL     1       9.244   5.368  25.240  1.00  0.00    -0.226 N 
HETATM   16  C10 UNL     1       8.465   4.193  24.928  1.00  0.00     0.667 C 
HETATM   17  N4  UNL     1       7.202   4.253  24.987  1.00  0.00    -0.235 N 
HETATM   18  N5  UNL     1       9.193   3.043  24.581  1.00  0.00    -0.222 N 
ATOM     19  H42 UNL     1       6.674   5.088  25.239  1.00  0.00     0.174 HD
ATOM     20  H41 UNL     1       6.652   3.423  24.766  1.00  0.00     0.174 HD
ATOM     21  H5  UNL     1      10.187   3.135  24.372  1.00  0.00     0.178 HD
ATOM     22  H3  UNL     1       9.512   5.591  26.199  1.00  0.00     0.177 HD
BRANCH  18  23
HETATM   23  C11 UNL     1       8.589   1.746  24.509  1.00  0.00     0.099 C 
HETATM   24  C12 UNL     1       8.754   1.035  25.834  1.00  0.00     0.026 C 
HETATM   25  C13 UNL     1       7.790  -0.154  25.746  1.00  0.00     0.002 C 
HETATM   26  C14 UNL     1       8.394  -1.086  24.724  1.00  0.00     0.000 C 
HETATM   27  C15 UNL     1       8.642  -0.485  23.387  1.00  0.00     0.002 C 
HETATM   28  C16 UNL     1       9.178   0.931  23.412  1.00  0.00     0.026 C 
ENDBRANCH  18  23
ENDBRANCH   1  15
TORSDOF 4
ENDMDL
MODEL 2
REMARK VINA RESULT: -6.654573305      3.400      4.137
REMARK  4 active torsions:
REMARK  status: ('A' for Active; 'I' for Inactive)
REMARK    1  A    between atoms: C2_2  and  N1_5 
REMARK       I    between atoms: N1_5  and  C5_7 
REMARK       I    between atoms: C5_7  and  N2_9 
REMARK    2  A    between atoms: C8_12  and  C9_13 
REMARK    3  A    between atoms: C9_13  and  N3_14 
REMARK       I    between atoms: N3_14  and  C10_16 
REMARK       I    between atoms: C10_16  and  N5_20 
REMARK    4  A    between atoms: N5_20  and  C11_22 
ROOT
HETATM    1  C9  UNL     1      11.034   7.346  22.989  1.00  0.00     0.144 C 
ENDROOT
BRANCH   1   2
HETATM    2  C8  UNL     1      11.475   8.682  23.535  1.00  0.00     0.024 C 
HETATM    3  C7  UNL     1      10.343   9.693  23.500  1.00  0.00     0.028 C 
HETATM    4  C6  UNL     1      10.479  10.212  22.085  1.00  0.00     0.128 C 
HETATM    5  N2  UNL     1      11.909  10.389  21.971  1.00  0.00    -0.334 N 
HETATM    6  C5  UNL     1      12.626  11.483  21.396  1.00  0.00     0.318 C 
HETATM    7  C17 UNL     1      12.515   9.220  22.563  1.00  0.00     0.134 C 
HETATM    8  N1  UNL     1      14.038  11.474  21.371  1.00  0.00    -0.335 N 
HETATM    9  O1  UNL     1      11.936  12.427  20.925  1.00  0.00    -0.247 OA
ATOM     10  H1  UNL     1      14.522  10.671  21.774  1.00  0.00     0.165 HD
BRANCH   8  11
HETATM   11  C2  UNL     1      14.828  12.526  20.813  1.00  0.00     0.023 C 
HETATM   12  C1  UNL     1      14.730  13.778  21.676  1.00  0.00     0.037 C 
HETATM   13  C3  UNL     1      16.297  12.101  20.895  1.00  0.00     0.037 C 
HETATM   14  C4  UNL     1      14.489  12.836  19.361  1.00  0.00     0.037 C 
ENDBRANCH   8  11
ENDBRANCH   1   2
BRANCH   1  15
HETATM   15  N3  UNL     1       9.765   7.003  23.581  1.00  0.00    -0.226 N 
HETATM   16  C10 UNL     1       9.261   5.673  23.329  1.00  0.00     0.667 C 
HETATM   17  N4  UNL     1       8.468   5.483  22.362  1.00  0.00    -0.235 N 
HETATM   18  N5  UNL     1       9.700   4.669  24.208  1.00  0.00    -0.222 N 
ATOM     19  H42 UNL     1       8.149   6.212  21.723  1.00  0.00     0.174 HD
ATOM     20  H41 UNL     1       8.113   4.543  22.184  1.00  0.00     0.174 HD
ATOM     21  H5  UNL     1      10.481   4.870  24.834  1.00  0.00     0.178 HD
ATOM     22  H3  UNL     1       9.246   7.669  24.153  1.00  0.00     0.177 HD
BRANCH  18  23
HETATM   23  C11 UNL     1       9.092   3.373  24.259  1.00  0.00     0.099 C 
HETATM   24  C12 UNL     1       9.050   2.887  25.691  1.00  0.00     0.026 C 
HETATM   25  C13 UNL     1       8.089   1.693  25.656  1.00  0.00     0.002 C 
HETATM   26  C14 UNL     1       8.819   0.612  24.896  1.00  0.00     0.000 C 
HETATM   27  C15 UNL     1       9.268   0.990  23.531  1.00  0.00     0.002 C 
HETATM   28  C16 UNL     1       9.820   2.396  23.405  1.00  0.00     0.026 C 
ENDBRANCH  18  23
ENDBRANCH   1  15
TORSDOF 4
ENDMDL
MODEL 3
REMARK VINA RESULT: -6.651264164      2.799      3.793
REMARK  4 active torsions:
REMARK  status: ('A' for Active; 'I' for Inactive)
REMARK    1  A    between atoms: C2_2  and  N1_5 
REMARK       I    between atoms: N1_5  and  C5_7 
REMARK       I    between atoms: C5_7  and  N2_9 
REMARK    2  A    between atoms: C8_12  and  C9_13 
REMARK    3  A    between atoms: C9_13  and  N3_14 
REMARK       I    between atoms: N3_14  and  C10_16 
REMARK       I    between atoms: C10_16  and  N5_20 
REMARK    4  A    between atoms: N5_20  and  C11_22 
ROOT
HETATM    1  C9  UNL     1       7.323   7.909  25.337  1.00  0.00     0.144 C 
ENDROOT
BRANCH   1   2
HETATM    2  C8  UNL     1       8.739   8.234  25.745  1.00  0.00     0.024 C 
HETATM    3  C7  UNL     1       8.903   9.714  26.039  1.00  0.00     0.028 C 
HETATM    4  C6  UNL     1       9.168  10.245  24.647  1.00  0.00     0.128 C 
HETATM    5  N2  UNL     1      10.107   9.273  24.134  1.00  0.00    -0.334 N 
HETATM    6  C5  UNL     1      11.304   9.501  23.387  1.00  0.00     0.318 C 
HETATM    7  C17 UNL     1       9.608   7.975  24.523  1.00  0.00     0.134 C 
HETATM    8  N1  UNL     1      12.097   8.412  22.963  1.00  0.00    -0.335 N 
HETATM    9  O1  UNL     1      11.594  10.702  23.137  1.00  0.00    -0.247 OA
ATOM     10  H1  UNL     1      11.792   7.470  23.208  1.00  0.00     0.165 HD
BRANCH   8  11
HETATM   11  C2  UNL     1      13.304   8.556  22.212  1.00  0.00     0.023 C 
HETATM   12  C1  UNL     1      14.356   9.291  23.033  1.00  0.00     0.037 C 
HETATM   13  C3  UNL     1      13.883   7.156  21.986  1.00  0.00     0.037 C 
HETATM   14  C4  UNL     1      13.102   9.224  20.859  1.00  0.00     0.037 C 
ENDBRANCH   8  11
ENDBRANCH   1   2
BRANCH   1  15
HETATM   15  N3  UNL     1       6.910   6.710  26.024  1.00  0.00    -0.226 N 
HETATM   16  C10 UNL     1       6.917   5.482  25.264  1.00  0.00     0.667 C 
HETATM   17  N4  UNL     1       5.856   5.102  24.688  1.00  0.00    -0.235 N 
HETATM   18  N5  UNL     1       8.136   4.784  25.228  1.00  0.00    -0.222 N 
ATOM     19  H42 UNL     1       4.971   5.609  24.714  1.00  0.00     0.174 HD
ATOM     20  H41 UNL     1       5.861   4.235  24.151  1.00  0.00     0.174 HD
ATOM     21  H5  UNL     1       8.980   5.254  25.554  1.00  0.00     0.178 HD
ATOM     22  H3  UNL     1       6.625   6.728  27.003  1.00  0.00     0.177 HD
BRANCH  18  23
HETATM   23  C11 UNL     1       8.235   3.437  24.752  1.00  0.00     0.099 C 
HETATM   24  C12 UNL     1       8.734   2.540  25.864  1.00  0.00     0.026 C 
HETATM   25  C13 UNL     1       8.465   1.120  25.354  1.00  0.00     0.002 C 
HETATM   26  C14 UNL     1       9.437   0.912  24.217  1.00  0.00     0.000 C 
HETATM   27  C15 UNL     1       9.351   1.911  23.119  1.00  0.00     0.002 C 
HETATM   28  C16 UNL     1       9.135   3.341  23.571  1.00  0.00     0.026 C 
ENDBRANCH  18  23
ENDBRANCH   1  15
TORSDOF 4
ENDMDL
MODEL 4
REMARK VINA RESULT: -6.616064673      4.436     10.497
REMARK  4 active torsions:
REMARK  status: ('A' for Active; 'I' for Inactive)
REMARK    1  A    between atoms: C2_2  and  N1_5 
REMARK       I    between atoms: N1_5  and  C5_7 
REMARK       I    between atoms: C5_7  and  N2_9 
REMARK    2  A    between atoms: C8_12  and  C9_13 
REMARK    3  A    between atoms: C9_13  and  N3_14 
REMARK       I    between atoms: N3_14  and  C10_16 
REMARK       I    between atoms: C10_16  and  N5_20 
REMARK    4  A    between atoms: N5_20  and  C11_22 
ROOT
HETATM    1  C9  UNL     1      12.521  10.309  22.650  1.00  0.00     0.144 C 
ENDROOT
BRANCH   1   2
HETATM    2  C8  UNL     1      12.538   9.323  23.792  1.00  0.00     0.024 C 
HETATM    3  C7  UNL     1      13.394   8.113  23.464  1.00  0.00     0.028 C 
HETATM    4  C6  UNL     1      12.391   7.257  22.722  1.00  0.00     0.128 C 
HETATM    5  N2  UNL     1      11.217   7.387  23.555  1.00  0.00    -0.334 N 
HETATM    6  C5  UNL     1      10.305   6.368  23.970  1.00  0.00     0.318 C 
HETATM    7  C17 UNL     1      11.120   8.783  23.912  1.00  0.00     0.134 C 
HETATM    8  N1  UNL     1       9.201   6.693  24.789  1.00  0.00    -0.335 N 
HETATM    9  O1  UNL     1      10.543   5.198  23.568  1.00  0.00    -0.247 OA
ATOM     10  H1  UNL     1       9.080   7.666  25.071  1.00  0.00     0.165 HD
BRANCH   8  11
HETATM   11  C2  UNL     1       8.243   5.734  25.244  1.00  0.00     0.023 C 
HETATM   12  C1  UNL     1       8.873   4.802  26.272  1.00  0.00     0.037 C 
HETATM   13  C3  UNL     1       7.153   6.491  26.009  1.00  0.00     0.037 C 
HETATM   14  C4  UNL     1       7.591   4.945  24.118  1.00  0.00     0.037 C 
ENDBRANCH   8  11
ENDBRANCH   1   2
BRANCH   1  15
HETATM   15  N3  UNL     1      13.865  10.787  22.435  1.00  0.00    -0.226 N 
HETATM   16  C10 UNL     1      14.222  11.159  21.086  1.00  0.00     0.667 C 
HETATM   17  N4  UNL     1      14.775  10.306  20.333  1.00  0.00    -0.235 N 
HETATM   18  N5  UNL     1      13.922  12.478  20.709  1.00  0.00    -0.222 N 
ATOM     19  H42 UNL     1      14.993   9.347  20.606  1.00  0.00     0.174 HD
ATOM     20  H41 UNL     1      15.026  10.569  19.380  1.00  0.00     0.174 HD
ATOM     21  H5  UNL     1      13.308  13.032  21.306  1.00  0.00     0.178 HD
ATOM     22  H3  UNL     1      14.534  10.859  23.201  1.00  0.00     0.177 HD
BRANCH  18  23
HETATM   23  C11 UNL     1      14.447  13.074  19.517  1.00  0.00     0.099 C 
HETATM   24  C12 UNL     1      15.778  13.728  19.820  1.00  0.00     0.026 C 
HETATM   25  C13 UNL     1      16.384  14.007  18.440  1.00  0.00     0.002 C 
HETATM   26  C14 UNL     1      15.535  15.104  17.844  1.00  0.00     0.000 C 
HETATM   27  C15 UNL     1      14.082  14.802  17.750  1.00  0.00     0.002 C 
HETATM   28  C16 UNL     1      13.503  14.072  18.945  1.00  0.00     0.026 C 
ENDBRANCH  18  23
ENDBRANCH   1  15
TORSDOF 4
ENDMDL
MODEL 5
REMARK VINA RESULT: -6.585653051      2.463      2.948
REMARK  4 active torsions:
REMARK  status: ('A' for Active; 'I' for Inactive)
REMARK    1  A    between atoms: C2_2  and  N1_5 
REMARK       I    between atoms: N1_5  and  C5_7 
REMARK       I    between atoms: C5_7  and  N2_9 
REMARK    2  A    between atoms: C8_12  and  C9_13 
REMARK    3  A    between atoms: C9_13  and  N3_14 
REMARK       I    between atoms: N3_14  and  C10_16 
REMARK       I    between atoms: C10_16  and  N5_20 
REMARK    4  A    between atoms: N5_20  and  C11_22 
ROOT
HETATM    1  C9  UNL     1      10.066   6.322  23.658  1.00  0.00     0.144 C 
ENDROOT
BRANCH   1   2
HETATM    2  C8  UNL     1      10.609   7.655  24.109  1.00  0.00     0.024 C 
HETATM    3  C7  UNL     1       9.500   8.682  24.255  1.00  0.00     0.028 C 
HETATM    4  C6  UNL     1       9.403   9.188  22.832  1.00  0.00     0.128 C 
HETATM    5  N2  UNL     1      10.796   9.343  22.477  1.00  0.00    -0.334 N 
HETATM    6  C5  UNL     1      11.420  10.423  21.779  1.00  0.00     0.318 C 
HETATM    7  C17 UNL     1      11.478   8.171  22.971  1.00  0.00     0.134 C 
HETATM    8  N1  UNL     1      12.807  10.393  21.518  1.00  0.00    -0.335 N 
HETATM    9  O1  UNL     1      10.672  11.373  21.422  1.00  0.00    -0.247 OA
ATOM     10  H1  UNL     1      13.342   9.587  21.842  1.00  0.00     0.165 HD
BRANCH   8  11
HETATM   11  C2  UNL     1      13.505  11.430  20.824  1.00  0.00     0.023 C 
HETATM   12  C1  UNL     1      13.466  12.725  21.627  1.00  0.00     0.037 C 
HETATM   13  C3  UNL     1      14.985  11.040  20.770  1.00  0.00     0.037 C 
HETATM   14  C4  UNL     1      13.007  11.654  19.403  1.00  0.00     0.037 C 
ENDBRANCH   8  11
ENDBRANCH   1   2
BRANCH   1  15
HETATM   15  N3  UNL     1       9.565   5.614  24.812  1.00  0.00    -0.226 N 
HETATM   16  C10 UNL     1       8.744   4.453  24.564  1.00  0.00     0.667 C 
HETATM   17  N4  UNL     1       7.485   4.579  24.528  1.00  0.00    -0.235 N 
HETATM   18  N5  UNL     1       9.428   3.239  24.385  1.00  0.00    -0.222 N 
ATOM     19  H42 UNL     1       6.988   5.461  24.658  1.00  0.00     0.174 HD
ATOM     20  H41 UNL     1       6.905   3.758  24.352  1.00  0.00     0.174 HD
ATOM     21  H5  UNL     1      10.437   3.261  24.238  1.00  0.00     0.178 HD
ATOM     22  H3  UNL     1       9.782   5.921  25.760  1.00  0.00     0.177 HD
BRANCH  18  23
HETATM   23  C11 UNL     1       8.760   1.972  24.399  1.00  0.00     0.099 C 
HETATM   24  C12 UNL     1       8.923   1.328  25.759  1.00  0.00     0.026 C 
HETATM   25  C13 UNL     1       7.900   0.187  25.760  1.00  0.00     0.002 C 
HETATM   26  C14 UNL     1       8.431  -0.830  24.779  1.00  0.00     0.000 C 
HETATM   27  C15 UNL     1       8.674  -0.317  23.405  1.00  0.00     0.002 C 
HETATM   28  C16 UNL     1       9.280   1.069  23.337  1.00  0.00     0.026 C 
ENDBRANCH  18  23
ENDBRANCH   1  15
TORSDOF 4
ENDMDL
