MODEL 1
REMARK VINA RESULT: -7.781637789      0.000      0.000
REMARK  3 active torsions:
REMARK  status: ('A' for Active; 'I' for Inactive)
REMARK       I    between atoms: C1_4  and  N2_5 
REMARK       I    between atoms: C1_4  and  N4_22 
REMARK       I    between atoms: N2_5  and  C2_7 
REMARK       I    between atoms: C2_7  and  N3_9 
REMARK    1  A    between atoms: N3_9  and  C3_11 
REMARK    2  A    between atoms: C3_11  and  C4_12 
REMARK    3  A    between atoms: N4_22  and  C14_24 
ROOT
HETATM    1  N1  UNL     1       6.903   4.725  25.005  1.00  0.00    -0.235 N 
ATOM      2  H11 UNL     1       6.490   3.889  25.419  1.00  0.00     0.174 HD
ATOM      3  H12 UNL     1       6.403   5.601  24.846  1.00  0.00     0.174 HD
HETATM    4  C1  UNL     1       8.145   4.648  24.671  1.00  0.00     0.676 C 
HETATM    5  N2  UNL     1       8.716   5.806  24.098  1.00  0.00    -0.142 N 
ATOM      6  H2  UNL     1       8.114   6.620  23.978  1.00  0.00     0.189 HD
HETATM    7  C2  UNL     1      10.084   5.921  23.670  1.00  0.00     0.338 C 
HETATM    8  O1  UNL     1      10.799   4.927  23.828  1.00  0.00    -0.246 OA
HETATM    9  N3  UNL     1      10.564   7.117  23.102  1.00  0.00    -0.321 N 
ATOM     10  H3  UNL     1       9.904   7.892  23.049  1.00  0.00     0.169 HD
HETATM   11  N4  UNL     1       8.829   3.449  24.888  1.00  0.00    -0.222 N 
ATOM     12  H4  UNL     1       9.674   3.536  25.453  1.00  0.00     0.178 HD
ENDROOT
BRANCH   9  13
HETATM   13  C3  UNL     1      11.848   7.356  22.602  1.00  0.00     0.075 C 
BRANCH  13  14
HETATM   14  C4  UNL     1      12.565   8.632  22.814  1.00  0.00    -0.007 C 
HETATM   15  C5  UNL     1      12.256   9.476  23.978  1.00  0.00     0.019 C 
HETATM   16  C6  UNL     1      13.020  10.801  23.863  1.00  0.00    -0.013 C 
HETATM   17  C7  UNL     1      12.658  11.573  22.637  1.00  0.00     0.009 C 
HETATM   18  C11 UNL     1      14.508  10.551  23.885  1.00  0.00     0.009 C 
HETATM   19  C8  UNL     1      13.030  10.701  21.428  1.00  0.00    -0.013 C 
HETATM   20  C9  UNL     1      14.497  10.436  21.454  1.00  0.00     0.009 C 
HETATM   21  C13 UNL     1      12.224   9.462  21.547  1.00  0.00     0.019 C 
HETATM   22  C10 UNL     1      14.836   9.664  22.712  1.00  0.00    -0.013 C 
HETATM   23  C12 UNL     1      14.083   8.387  22.832  1.00  0.00     0.019 C 
ENDBRANCH  13  14
ENDBRANCH   9  13
BRANCH  11  24
HETATM   24  C14 UNL     1       8.543   2.147  24.456  1.00  0.00     0.103 C 
HETATM   25  C15 UNL     1       8.432   1.339  25.975  1.00  0.00     0.052 C 
HETATM   26  C16 UNL     1       8.413   0.153  25.307  1.00  0.00    -0.029 C 
HETATM   27  C17 UNL     1       8.520  -0.272  24.520  1.00  0.00    -0.030 C 
HETATM   28  C18 UNL     1       8.850  -0.164  23.220  1.00  0.00     0.029 C 
HETATM   29  C19 UNL     1       9.405   1.456  23.523  1.00  0.00     0.029 C 
ENDBRANCH  11  24
TORSDOF 3
ENDMDL
MODEL 2
REMARK VINA RESULT: -7.747804356      0.694      1.179
REMARK  3 active torsions:
REMARK  status: ('A' for Active; 'I' for Inactive)
REMARK       I    between atoms: C1_4  and  N2_5 
REMARK       I    between atoms: C1_4  and  N4_22 
REMARK       I    between atoms: N2_5  and  C2_7 
REMARK       I    between atoms: C2_7  and  N3_9 
REMARK    1  A    between atoms: N3_9  and  C3_11 
REMARK    2  A    between atoms: C3_11  and  C4_12 
REMARK    3  A    between atoms: N4_22  and  C14_24 
ROOT
HETATM    1  N1  UNL     1       6.755   4.768  24.985  1.00  0.00    -0.235 N 
ATOM      2  H11 UNL     1       6.358   3.926  25.403  1.00  0.00     0.174 HD
ATOM      3  H12 UNL     1       6.235   5.627  24.805  1.00  0.00     0.174 HD
HETATM    4  C1  UNL     1       8.004   4.720  24.673  1.00  0.00     0.676 C 
HETATM    5  N2  UNL     1       8.554   5.885  24.094  1.00  0.00    -0.142 N 
ATOM      6  H2  UNL     1       7.932   6.681  23.952  1.00  0.00     0.189 HD
HETATM    7  C2  UNL     1       9.926   6.033  23.689  1.00  0.00     0.338 C 
HETATM    8  O1  UNL     1      10.664   5.061  23.872  1.00  0.00    -0.246 OA
HETATM    9  N3  UNL     1      10.383   7.233  23.112  1.00  0.00    -0.321 N 
ATOM     10  H3  UNL     1       9.703   7.989  23.037  1.00  0.00     0.169 HD
HETATM   11  N4  UNL     1       8.717   3.543  24.919  1.00  0.00    -0.222 N 
ATOM     12  H4  UNL     1       9.549   3.661  25.497  1.00  0.00     0.178 HD
ENDROOT
BRANCH   9  13
HETATM   13  C3  UNL     1      11.669   7.500  22.632  1.00  0.00     0.075 C 
BRANCH  13  14
HETATM   14  C4  UNL     1      12.123   8.862  22.275  1.00  0.00    -0.007 C 
HETATM   15  C5  UNL     1      11.146   9.922  21.986  1.00  0.00     0.019 C 
HETATM   16  C6  UNL     1      11.883  11.173  21.491  1.00  0.00    -0.013 C 
HETATM   17  C7  UNL     1      12.665  10.928  20.243  1.00  0.00     0.009 C 
HETATM   18  C11 UNL     1      12.798  11.702  22.568  1.00  0.00     0.009 C 
HETATM   19  C8  UNL     1      13.714   9.853  20.571  1.00  0.00    -0.013 C 
HETATM   20  C9  UNL     1      14.610  10.365  21.648  1.00  0.00     0.009 C 
HETATM   21  C13 UNL     1      12.957   8.647  20.984  1.00  0.00     0.019 C 
HETATM   22  C10 UNL     1      13.789  10.615  22.895  1.00  0.00    -0.013 C 
HETATM   23  C12 UNL     1      13.061   9.406  23.365  1.00  0.00     0.019 C 
ENDBRANCH  13  14
ENDBRANCH   9  13
BRANCH  11  24
HETATM   24  C14 UNL     1       8.473   2.229  24.500  1.00  0.00     0.103 C 
HETATM   25  C15 UNL     1       8.454   1.422  26.023  1.00  0.00     0.052 C 
HETATM   26  C16 UNL     1       8.463   0.233  25.358  1.00  0.00    -0.029 C 
HETATM   27  C17 UNL     1       8.561  -0.189  24.570  1.00  0.00    -0.030 C 
HETATM   28  C18 UNL     1       8.839  -0.071  23.258  1.00  0.00     0.029 C 
HETATM   29  C19 UNL     1       9.332   1.574  23.538  1.00  0.00     0.029 C 
ENDBRANCH  11  24
TORSDOF 3
ENDMDL
MODEL 3
REMARK VINA RESULT: -7.730297326      0.123      1.493
REMARK  3 active torsions:
REMARK  status: ('A' for Active; 'I' for Inactive)
REMARK       I    between atoms: C1_4  and  N2_5 
REMARK       I    between atoms: C1_4  and  N4_22 
REMARK       I    between atoms: N2_5  and  C2_7 
REMARK       I    between atoms: C2_7  and  N3_9 
REMARK    1  A    between atoms: N3_9  and  C3_11 
REMARK    2  A    between atoms: C3_11  and  C4_12 
REMARK    3  A    between atoms: N4_22  and  C14_24 
ROOT
HETATM    1  N1  UNL     1       6.904   4.735  25.002  1.00  0.00    -0.235 N 
ATOM      2  H11 UNL     1       6.485   3.905  25.421  1.00  0.00     0.174 HD
ATOM      3  H12 UNL     1       6.410   5.610  24.827  1.00  0.00     0.174 HD
HETATM    4  C1  UNL     1       8.149   4.650  24.681  1.00  0.00     0.676 C 
HETATM    5  N2  UNL     1       8.730   5.798  24.099  1.00  0.00    -0.142 N 
ATOM      6  H2  UNL     1       8.133   6.613  23.964  1.00  0.00     0.189 HD
HETATM    7  C2  UNL     1      10.104   5.904  23.685  1.00  0.00     0.338 C 
HETATM    8  O1  UNL     1      10.813   4.909  23.861  1.00  0.00    -0.246 OA
HETATM    9  N3  UNL     1      10.593   7.091  23.107  1.00  0.00    -0.321 N 
ATOM     10  H3  UNL     1       9.936   7.868  23.038  1.00  0.00     0.169 HD
HETATM   11  N4  UNL     1       8.827   3.451  24.919  1.00  0.00    -0.222 N 
ATOM     12  H4  UNL     1       9.667   3.541  25.491  1.00  0.00     0.178 HD
ENDROOT
BRANCH   9  13
HETATM   13  C3  UNL     1      11.883   7.319  22.618  1.00  0.00     0.075 C 
BRANCH  13  14
HETATM   14  C4  UNL     1      12.486   8.668  22.550  1.00  0.00    -0.007 C 
HETATM   15  C5  UNL     1      12.215   9.549  21.404  1.00  0.00     0.019 C 
HETATM   16  C6  UNL     1      13.087  10.807  21.511  1.00  0.00    -0.013 C 
HETATM   17  C7  UNL     1      14.549  10.498  21.508  1.00  0.00     0.009 C 
HETATM   18  C11 UNL     1      12.735  11.584  22.756  1.00  0.00     0.009 C 
HETATM   19  C8  UNL     1      14.827   9.617  22.736  1.00  0.00    -0.013 C 
HETATM   20  C9  UNL     1      14.465  10.375  23.968  1.00  0.00     0.009 C 
HETATM   21  C13 UNL     1      14.014   8.391  22.559  1.00  0.00     0.019 C 
HETATM   22  C10 UNL     1      12.982  10.683  23.939  1.00  0.00    -0.013 C 
HETATM   23  C12 UNL     1      12.137   9.465  23.818  1.00  0.00     0.019 C 
ENDBRANCH  13  14
ENDBRANCH   9  13
BRANCH  11  24
HETATM   24  C14 UNL     1       8.541   2.145  24.500  1.00  0.00     0.103 C 
HETATM   25  C15 UNL     1       8.460   1.346  26.025  1.00  0.00     0.052 C 
HETATM   26  C16 UNL     1       8.435   0.155  25.364  1.00  0.00    -0.029 C 
HETATM   27  C17 UNL     1       8.531  -0.274  24.579  1.00  0.00    -0.030 C 
HETATM   28  C18 UNL     1       8.839  -0.173  23.273  1.00  0.00     0.029 C 
HETATM   29  C19 UNL     1       9.391   1.453  23.557  1.00  0.00     0.029 C 
ENDBRANCH  11  24
TORSDOF 3
ENDMDL
MODEL 4
REMARK VINA RESULT: -7.707716892      0.800      1.335
REMARK  3 active torsions:
REMARK  status: ('A' for Active; 'I' for Inactive)
REMARK       I    between atoms: C1_4  and  N2_5 
REMARK       I    between atoms: C1_4  and  N4_22 
REMARK       I    between atoms: N2_5  and  C2_7 
REMARK       I    between atoms: C2_7  and  N3_9 
REMARK    1  A    between atoms: N3_9  and  C3_11 
REMARK    2  A    between atoms: C3_11  and  C4_12 
REMARK    3  A    between atoms: N4_22  and  C14_24 
ROOT
HETATM    1  N1  UNL     1       6.768   4.802  24.758  1.00  0.00    -0.235 N 
ATOM      2  H11 UNL     1       6.329   3.977  25.168  1.00  0.00     0.174 HD
ATOM      3  H12 UNL     1       6.275   5.665  24.523  1.00  0.00     0.174 HD
HETATM    4  C1  UNL     1       8.034   4.728  24.533  1.00  0.00     0.676 C 
HETATM    5  N2  UNL     1       8.641   5.869  23.965  1.00  0.00    -0.142 N 
ATOM      6  H2  UNL     1       8.045   6.671  23.763  1.00  0.00     0.189 HD
HETATM    7  C2  UNL     1      10.040   5.986  23.651  1.00  0.00     0.338 C 
HETATM    8  O1  UNL     1      10.748   5.007  23.907  1.00  0.00    -0.246 OA
HETATM    9  N3  UNL     1      10.556   7.164  23.079  1.00  0.00    -0.321 N 
ATOM     10  H3  UNL     1       9.895   7.929  22.940  1.00  0.00     0.169 HD
HETATM   11  N4  UNL     1       8.709   3.546  24.854  1.00  0.00    -0.222 N 
ATOM     12  H4  UNL     1       9.502   3.664  25.484  1.00  0.00     0.178 HD
ENDROOT
BRANCH   9  13
HETATM   13  C3  UNL     1      11.875   7.400  22.681  1.00  0.00     0.075 C 
BRANCH  13  14
HETATM   14  C4  UNL     1      12.359   8.734  22.262  1.00  0.00    -0.007 C 
HETATM   15  C5  UNL     1      13.399   9.426  23.037  1.00  0.00     0.019 C 
HETATM   16  C6  UNL     1      13.590  10.843  22.480  1.00  0.00    -0.013 C 
HETATM   17  C7  UNL     1      12.347  11.667  22.555  1.00  0.00     0.009 C 
HETATM   18  C11 UNL     1      14.073  10.783  21.052  1.00  0.00     0.009 C 
HETATM   19  C8  UNL     1      11.282  10.957  21.703  1.00  0.00    -0.013 C 
HETATM   20  C9  UNL     1      11.763  10.880  20.294  1.00  0.00     0.009 C 
HETATM   21  C13 UNL     1      11.086   9.621  22.314  1.00  0.00     0.019 C 
HETATM   22  C10 UNL     1      13.029  10.050  20.250  1.00  0.00    -0.013 C 
HETATM   23  C12 UNL     1      12.848   8.682  20.806  1.00  0.00     0.019 C 
ENDBRANCH  13  14
ENDBRANCH   9  13
BRANCH  11  24
HETATM   24  C14 UNL     1       8.471   2.225  24.450  1.00  0.00     0.103 C 
HETATM   25  C15 UNL     1       8.473   1.433  25.981  1.00  0.00     0.052 C 
HETATM   26  C16 UNL     1       8.486   0.238  25.327  1.00  0.00    -0.029 C 
HETATM   27  C17 UNL     1       8.579  -0.191  24.542  1.00  0.00    -0.030 C 
HETATM   28  C18 UNL     1       8.843  -0.084  23.227  1.00  0.00     0.029 C 
HETATM   29  C19 UNL     1       9.325   1.568  23.486  1.00  0.00     0.029 C 
ENDBRANCH  11  24
TORSDOF 3
ENDMDL
MODEL 5
REMARK VINA RESULT: -7.649529065      4.335      7.314
REMARK  3 active torsions:
REMARK  status: ('A' for Active; 'I' for Inactive)
REMARK       I    between atoms: C1_4  and  N2_5 
REMARK       I    between atoms: C1_4  and  N4_22 
REMARK       I    between atoms: N2_5  and  C2_7 
REMARK       I    between atoms: C2_7  and  N3_9 
REMARK    1  A    between atoms: N3_9  and  C3_11 
REMARK    2  A    between atoms: C3_11  and  C4_12 
REMARK    3  A    between atoms: N4_22  and  C14_24 
ROOT
HETATM    1  N1  UNL     1      10.775   5.916  23.486  1.00  0.00    -0.235 N 
ATOM      2  H11 UNL     1      11.367   5.086  23.443  1.00  0.00     0.174 HD
ATOM      3  H12 UNL     1      11.121   6.869  23.603  1.00  0.00     0.174 HD
HETATM    4  C1  UNL     1       9.506   5.723  23.378  1.00  0.00     0.676 C 
HETATM    5  N2  UNL     1       8.687   6.872  23.438  1.00  0.00    -0.142 N 
ATOM      6  H2  UNL     1       9.145   7.773  23.569  1.00  0.00     0.189 HD
HETATM    7  C2  UNL     1       7.253   6.865  23.327  1.00  0.00     0.338 C 
HETATM    8  O1  UNL     1       6.716   5.766  23.164  1.00  0.00    -0.246 OA
HETATM    9  N3  UNL     1       6.518   8.063  23.405  1.00  0.00    -0.321 N 
ATOM     10  H3  UNL     1       7.058   8.923  23.504  1.00  0.00     0.169 HD
HETATM   11  N4  UNL     1       9.033   4.417  23.219  1.00  0.00    -0.222 N 
ATOM     12  H4  UNL     1       8.452   4.272  22.393  1.00  0.00     0.178 HD
ENDROOT
BRANCH   9  13
HETATM   13  C3  UNL     1       5.127   8.202  23.361  1.00  0.00     0.075 C 
BRANCH  13  14
HETATM   14  C4  UNL     1       4.293   8.296  24.579  1.00  0.00    -0.007 C 
HETATM   15  C5  UNL     1       3.032   9.052  24.563  1.00  0.00     0.019 C 
HETATM   16  C6  UNL     1       2.461   9.120  25.985  1.00  0.00    -0.013 C 
HETATM   17  C7  UNL     1       3.382   9.799  26.946  1.00  0.00     0.009 C 
HETATM   18  C11 UNL     1       2.136   7.734  26.486  1.00  0.00     0.009 C 
HETATM   19  C8  UNL     1       4.677   8.973  26.990  1.00  0.00    -0.013 C 
HETATM   20  C9  UNL     1       4.358   7.597  27.468  1.00  0.00     0.009 C 
HETATM   21  C13 UNL     1       5.224   8.986  25.612  1.00  0.00     0.019 C 
HETATM   22  C10 UNL     1       3.416   6.939  26.482  1.00  0.00    -0.013 C 
HETATM   23  C12 UNL     1       3.962   6.888  25.100  1.00  0.00     0.019 C 
ENDBRANCH  13  14
ENDBRANCH   9  13
BRANCH  11  24
HETATM   24  C14 UNL     1       9.227   3.277  24.009  1.00  0.00     0.103 C 
HETATM   25  C15 UNL     1       9.549   2.108  22.784  1.00  0.00     0.052 C 
HETATM   26  C16 UNL     1       9.446   1.134  23.730  1.00  0.00    -0.029 C 
HETATM   27  C17 UNL     1       9.214   0.923  24.574  1.00  0.00    -0.030 C 
HETATM   28  C18 UNL     1       8.695   1.355  25.737  1.00  0.00     0.029 C 
HETATM   29  C19 UNL     1       8.221   2.831  24.948  1.00  0.00     0.029 C 
ENDBRANCH  11  24
TORSDOF 3
ENDMDL
