MODEL 1
REMARK VINA RESULT: -6.602939801      0.000      0.000
REMARK  6 active torsions:
REMARK  status: ('A' for Active; 'I' for Inactive)
REMARK    1  A    between atoms: C2_2  and  C5_5 
REMARK       I    between atoms: C5_5  and  N1_7 
REMARK    2  A    between atoms: N1_7  and  C6_9 
REMARK    3  A    between atoms: C6_9  and  C7_10 
REMARK    4  A    between atoms: C7_10  and  C8_11 
REMARK       I    between atoms: C8_11  and  N2_13 
REMARK    5  A    between atoms: N2_13  and  N3_15 
REMARK       I    between atoms: N3_15  and  C9_17 
REMARK       I    between atoms: C9_17  and  N4_19 
REMARK    6  A    between atoms: N4_19  and  C10_21 
ROOT
HETATM    1  C8  UNL     1       8.727   8.769  23.697  1.00  0.00     0.237 C 
HETATM    2  O2  UNL     1       9.219   8.638  24.837  1.00  0.00    -0.272 OA
HETATM    3  N2  UNL     1       8.990   7.830  22.653  1.00  0.00    -0.266 N 
ATOM      4  H2  UNL     1       8.594   7.919  21.717  1.00  0.00     0.190 HD
ENDROOT
BRANCH   3   5
HETATM    5  N3  UNL     1       9.843   6.766  23.025  1.00  0.00    -0.249 N 
HETATM    6  C9  UNL     1       9.254   5.519  23.339  1.00  0.00     0.339 C 
HETATM    7  O3  UNL     1       8.000   5.410  23.279  1.00  0.00    -0.245 OA
HETATM    8  N4  UNL     1      10.068   4.432  23.705  1.00  0.00    -0.308 N 
ATOM      9  H4  UNL     1      11.076   4.589  23.726  1.00  0.00     0.170 HD
ATOM     10  H3  UNL     1      10.855   6.894  23.064  1.00  0.00     0.192 HD
BRANCH   8  11
HETATM   11  C10 UNL     1       9.605   3.135  24.047  1.00  0.00     0.036 A 
HETATM   12  C11 UNL     1       9.157   2.885  25.358  1.00  0.00     0.031 A 
HETATM   13  C12 UNL     1       8.683   1.661  25.766  1.00  0.00     0.021 A 
HETATM   14  C13 UNL     1       8.627   0.602  24.881  1.00  0.00     0.011 A 
HETATM   15 BR1  UNL     1       7.972  -1.117  25.425  1.00  0.00    -0.051 Br
HETATM   16  C14 UNL     1       9.057   0.817  23.594  1.00  0.00     0.021 A 
HETATM   17  C15 UNL     1       9.542   2.074  23.181  1.00  0.00     0.031 A 
ENDBRANCH   8  11
ENDBRANCH   3   5
BRANCH   1  18
HETATM   18  C7  UNL     1       7.850   9.934  23.427  1.00  0.00     0.124 C 
BRANCH  18  19
HETATM   19  C6  UNL     1       6.446   9.474  23.124  1.00  0.00     0.132 C 
BRANCH  19  20
HETATM   20  N1  UNL     1       5.939   8.656  24.159  1.00  0.00    -0.360 N 
HETATM   21  C5  UNL     1       5.179   7.500  23.953  1.00  0.00     0.225 C 
HETATM   22  O1  UNL     1       4.898   7.101  22.795  1.00  0.00    -0.273 OA
ATOM     23  H1  UNL     1       6.140   8.927  25.121  1.00  0.00     0.162 HD
BRANCH  21  24
HETATM   24  C2  UNL     1       4.650   6.666  25.071  1.00  0.00     0.030 C 
HETATM   25  C1  UNL     1       4.124   5.376  24.437  1.00  0.00     0.024 C 
HETATM   26  C3  UNL     1       3.495   7.318  25.765  1.00  0.00     0.024 C 
HETATM   27  C4  UNL     1       5.751   6.302  26.030  1.00  0.00     0.024 C 
ENDBRANCH  21  24
ENDBRANCH  19  20
ENDBRANCH  18  19
ENDBRANCH   1  18
TORSDOF 6
ENDMDL
MODEL 2
REMARK VINA RESULT: -6.395450910      5.175      7.503
REMARK  6 active torsions:
REMARK  status: ('A' for Active; 'I' for Inactive)
REMARK    1  A    between atoms: C2_2  and  C5_5 
REMARK       I    between atoms: C5_5  and  N1_7 
REMARK    2  A    between atoms: N1_7  and  C6_9 
REMARK    3  A    between atoms: C6_9  and  C7_10 
REMARK    4  A    between atoms: C7_10  and  C8_11 
REMARK       I    between atoms: C8_11  and  N2_13 
REMARK    5  A    between atoms: N2_13  and  N3_15 
REMARK       I    between atoms: N3_15  and  C9_17 
REMARK       I    between atoms: C9_17  and  N4_19 
REMARK    6  A    between atoms: N4_19  and  C10_21 
ROOT
HETATM    1  C8  UNL     1      12.383   8.273  22.069  1.00  0.00     0.237 C 
HETATM    2  O2  UNL     1      11.347   8.834  21.657  1.00  0.00    -0.272 OA
HETATM    3  N2  UNL     1      12.330   7.081  22.855  1.00  0.00    -0.266 N 
ATOM      4  H2  UNL     1      13.167   6.607  23.197  1.00  0.00     0.190 HD
ENDROOT
BRANCH   3   5
HETATM    5  N3  UNL     1      11.023   6.612  23.118  1.00  0.00    -0.249 N 
HETATM    6  C9  UNL     1      10.858   5.240  23.420  1.00  0.00     0.339 C 
HETATM    7  O3  UNL     1      11.875   4.497  23.438  1.00  0.00    -0.245 OA
HETATM    8  N4  UNL     1       9.575   4.734  23.698  1.00  0.00    -0.308 N 
ATOM      9  H4  UNL     1       8.796   5.393  23.673  1.00  0.00     0.170 HD
ATOM     10  H3  UNL     1      10.223   7.245  23.092  1.00  0.00     0.192 HD
BRANCH   8  11
HETATM   11  C10 UNL     1       9.272   3.383  24.010  1.00  0.00     0.036 A 
HETATM   12  C11 UNL     1       8.771   3.064  25.287  1.00  0.00     0.031 A 
HETATM   13  C12 UNL     1       8.444   1.784  25.663  1.00  0.00     0.021 A 
HETATM   14  C13 UNL     1       8.597   0.734  24.779  1.00  0.00     0.011 A 
HETATM   15 BR1  UNL     1       8.149  -1.063  25.281  1.00  0.00    -0.051 Br
HETATM   16  C14 UNL     1       9.083   1.014  23.526  1.00  0.00     0.021 A 
HETATM   17  C15 UNL     1       9.418   2.330  23.145  1.00  0.00     0.031 A 
ENDBRANCH   8  11
ENDBRANCH   3   5
BRANCH   1  18
HETATM   18  C7  UNL     1      13.700   8.868  21.732  1.00  0.00     0.124 C 
BRANCH  18  19
HETATM   19  C6  UNL     1      13.591   9.701  20.479  1.00  0.00     0.132 C 
BRANCH  19  20
HETATM   20  N1  UNL     1      14.549  10.740  20.470  1.00  0.00    -0.360 N 
HETATM   21  C5  UNL     1      14.327  12.014  19.938  1.00  0.00     0.225 C 
HETATM   22  O1  UNL     1      13.223  12.325  19.424  1.00  0.00    -0.273 OA
ATOM     23  H1  UNL     1      15.463  10.548  20.878  1.00  0.00     0.162 HD
BRANCH  21  24
HETATM   24  C2  UNL     1      15.366  13.085  19.935  1.00  0.00     0.030 C 
HETATM   25  C1  UNL     1      14.854  14.187  20.865  1.00  0.00     0.024 C 
HETATM   26  C3  UNL     1      15.541  13.699  18.580  1.00  0.00     0.024 C 
HETATM   27  C4  UNL     1      16.665  12.568  20.491  1.00  0.00     0.024 C 
ENDBRANCH  21  24
ENDBRANCH  19  20
ENDBRANCH  18  19
ENDBRANCH   1  18
TORSDOF 6
ENDMDL
MODEL 3
REMARK VINA RESULT: -6.375049059      1.301      1.662
REMARK  6 active torsions:
REMARK  status: ('A' for Active; 'I' for Inactive)
REMARK    1  A    between atoms: C2_2  and  C5_5 
REMARK       I    between atoms: C5_5  and  N1_7 
REMARK    2  A    between atoms: N1_7  and  C6_9 
REMARK    3  A    between atoms: C6_9  and  C7_10 
REMARK    4  A    between atoms: C7_10  and  C8_11 
REMARK       I    between atoms: C8_11  and  N2_13 
REMARK    5  A    between atoms: N2_13  and  N3_15 
REMARK       I    between atoms: N3_15  and  C9_17 
REMARK       I    between atoms: C9_17  and  N4_19 
REMARK    6  A    between atoms: N4_19  and  C10_21 
ROOT
HETATM    1  C8  UNL     1       9.196   9.038  23.353  1.00  0.00     0.237 C 
HETATM    2  O2  UNL     1      10.188   9.107  24.109  1.00  0.00    -0.272 OA
HETATM    3  N2  UNL     1       8.861   7.834  22.663  1.00  0.00    -0.266 N 
ATOM      4  H2  UNL     1       8.052   7.759  22.044  1.00  0.00     0.190 HD
ENDROOT
BRANCH   3   5
HETATM    5  N3  UNL     1       9.739   6.755  22.907  1.00  0.00    -0.249 N 
HETATM    6  C9  UNL     1       9.177   5.509  23.271  1.00  0.00     0.339 C 
HETATM    7  O3  UNL     1       7.925   5.414  23.365  1.00  0.00    -0.245 OA
HETATM    8  N4  UNL     1      10.016   4.406  23.515  1.00  0.00    -0.308 N 
ATOM      9  H4  UNL     1      11.021   4.552  23.414  1.00  0.00     0.170 HD
ATOM     10  H3  UNL     1      10.750   6.871  22.824  1.00  0.00     0.192 HD
BRANCH   8  11
HETATM   11  C10 UNL     1       9.582   3.107  23.889  1.00  0.00     0.036 A 
HETATM   12  C11 UNL     1       9.151   2.877  25.210  1.00  0.00     0.031 A 
HETATM   13  C12 UNL     1       8.705   1.654  25.648  1.00  0.00     0.021 A 
HETATM   14  C13 UNL     1       8.662   0.575  24.787  1.00  0.00     0.011 A 
HETATM   15 BR1  UNL     1       8.046  -1.144  25.375  1.00  0.00    -0.051 Br
HETATM   16  C14 UNL     1       9.076   0.770  23.492  1.00  0.00     0.021 A 
HETATM   17  C15 UNL     1       9.532   2.027  23.047  1.00  0.00     0.031 A 
ENDBRANCH   8  11
ENDBRANCH   3   5
BRANCH   1  18
HETATM   18  C7  UNL     1       8.352  10.245  23.172  1.00  0.00     0.124 C 
BRANCH  18  19
HETATM   19  C6  UNL     1       7.339  10.015  22.079  1.00  0.00     0.132 C 
BRANCH  19  20
HETATM   20  N1  UNL     1       6.019  10.070  22.583  1.00  0.00    -0.360 N 
HETATM   21  C5  UNL     1       5.291   8.957  23.015  1.00  0.00     0.225 C 
HETATM   22  O1  UNL     1       5.785   7.801  22.987  1.00  0.00    -0.273 OA
ATOM     23  H1  UNL     1       5.568  10.983  22.635  1.00  0.00     0.162 HD
BRANCH  21  24
HETATM   24  C2  UNL     1       3.895   9.050  23.532  1.00  0.00     0.030 C 
HETATM   25  C1  UNL     1       2.985   9.151  22.306  1.00  0.00     0.024 C 
HETATM   26  C3  UNL     1       3.675  10.288  24.346  1.00  0.00     0.024 C 
HETATM   27  C4  UNL     1       3.525   7.804  24.291  1.00  0.00     0.024 C 
ENDBRANCH  21  24
ENDBRANCH  19  20
ENDBRANCH  18  19
ENDBRANCH   1  18
TORSDOF 6
ENDMDL
MODEL 4
REMARK VINA RESULT: -6.370751004      6.059      8.895
REMARK  6 active torsions:
REMARK  status: ('A' for Active; 'I' for Inactive)
REMARK    1  A    between atoms: C2_2  and  C5_5 
REMARK       I    between atoms: C5_5  and  N1_7 
REMARK    2  A    between atoms: N1_7  and  C6_9 
REMARK    3  A    between atoms: C6_9  and  C7_10 
REMARK    4  A    between atoms: C7_10  and  C8_11 
REMARK       I    between atoms: C8_11  and  N2_13 
REMARK    5  A    between atoms: N2_13  and  N3_15 
REMARK       I    between atoms: N3_15  and  C9_17 
REMARK       I    between atoms: C9_17  and  N4_19 
REMARK    6  A    between atoms: N4_19  and  C10_21 
ROOT
HETATM    1  C8  UNL     1      10.730   6.436  23.300  1.00  0.00     0.237 C 
HETATM    2  O2  UNL     1      11.623   5.577  23.453  1.00  0.00    -0.272 OA
HETATM    3  N2  UNL     1      10.955   7.626  22.544  1.00  0.00    -0.266 N 
ATOM      4  H2  UNL     1      10.235   8.337  22.406  1.00  0.00     0.190 HD
ENDROOT
BRANCH   3   5
HETATM    5  N3  UNL     1      12.255   7.739  22.002  1.00  0.00    -0.249 N 
HETATM    6  C9  UNL     1      12.733   9.031  21.685  1.00  0.00     0.339 C 
HETATM    7  O3  UNL     1      11.984  10.022  21.893  1.00  0.00    -0.245 OA
HETATM    8  N4  UNL     1      14.026   9.189  21.152  1.00  0.00    -0.308 N 
ATOM      9  H4  UNL     1      14.581   8.344  21.016  1.00  0.00     0.170 HD
ATOM     10  H3  UNL     1      12.832   6.912  21.845  1.00  0.00     0.192 HD
BRANCH   8  11
HETATM   11  C10 UNL     1      14.622  10.424  20.788  1.00  0.00     0.036 A 
HETATM   12  C11 UNL     1      15.734  10.895  21.514  1.00  0.00     0.031 A 
HETATM   13  C12 UNL     1      16.374  12.074  21.219  1.00  0.00     0.021 A 
HETATM   14  C13 UNL     1      15.940  12.863  20.171  1.00  0.00     0.011 A 
HETATM   15 BR1  UNL     1      16.815  14.515  19.739  1.00  0.00    -0.051 Br
HETATM   16  C14 UNL     1      14.858  12.429  19.445  1.00  0.00     0.021 A 
HETATM   17  C15 UNL     1      14.205  11.218  19.752  1.00  0.00     0.031 A 
ENDBRANCH   8  11
ENDBRANCH   3   5
BRANCH   1  18
HETATM   18  C7  UNL     1       9.405   6.206  23.926  1.00  0.00     0.124 C 
BRANCH  18  19
HETATM   19  C6  UNL     1       8.582   5.266  23.080  1.00  0.00     0.132 C 
BRANCH  19  20
HETATM   20  N1  UNL     1       9.210   4.006  22.954  1.00  0.00    -0.360 N 
HETATM   21  C5  UNL     1       8.884   2.881  23.717  1.00  0.00     0.225 C 
HETATM   22  O1  UNL     1       7.976   2.921  24.586  1.00  0.00    -0.273 OA
ATOM     23  H1  UNL     1       9.952   3.911  22.260  1.00  0.00     0.162 HD
BRANCH  21  24
HETATM   24  C2  UNL     1       9.576   1.568  23.565  1.00  0.00     0.030 C 
HETATM   25  C1  UNL     1       9.463   0.861  24.918  1.00  0.00     0.024 C 
HETATM   26  C3  UNL     1      11.036   1.729  23.272  1.00  0.00     0.024 C 
HETATM   27  C4  UNL     1       8.884   0.719  22.533  1.00  0.00     0.024 C 
ENDBRANCH  21  24
ENDBRANCH  19  20
ENDBRANCH  18  19
ENDBRANCH   1  18
TORSDOF 6
ENDMDL
MODEL 5
REMARK VINA RESULT: -6.347251038      4.841      7.389
REMARK  6 active torsions:
REMARK  status: ('A' for Active; 'I' for Inactive)
REMARK    1  A    between atoms: C2_2  and  C5_5 
REMARK       I    between atoms: C5_5  and  N1_7 
REMARK    2  A    between atoms: N1_7  and  C6_9 
REMARK    3  A    between atoms: C6_9  and  C7_10 
REMARK    4  A    between atoms: C7_10  and  C8_11 
REMARK       I    between atoms: C8_11  and  N2_13 
REMARK    5  A    between atoms: N2_13  and  N3_15 
REMARK       I    between atoms: N3_15  and  C9_17 
REMARK       I    between atoms: C9_17  and  N4_19 
REMARK    6  A    between atoms: N4_19  and  C10_21 
ROOT
HETATM    1  C8  UNL     1       9.055   4.141  23.522  1.00  0.00     0.237 C 
HETATM    2  O2  UNL     1       7.999   4.713  23.178  1.00  0.00    -0.272 OA
HETATM    3  N2  UNL     1      10.283   4.855  23.663  1.00  0.00    -0.266 N 
ATOM      4  H2  UNL     1      11.154   4.405  23.947  1.00  0.00     0.190 HD
ENDROOT
BRANCH   3   5
HETATM    5  N3  UNL     1      10.193   6.237  23.378  1.00  0.00    -0.249 N 
HETATM    6  C9  UNL     1      11.386   6.930  23.065  1.00  0.00     0.339 C 
HETATM    7  O3  UNL     1      12.472   6.292  23.058  1.00  0.00    -0.245 OA
HETATM    8  N4  UNL     1      11.339   8.304  22.766  1.00  0.00    -0.308 N 
ATOM      9  H4  UNL     1      10.425   8.756  22.784  1.00  0.00     0.170 HD
ATOM     10  H3  UNL     1       9.294   6.719  23.396  1.00  0.00     0.192 HD
BRANCH   8  11
HETATM   11  C10 UNL     1      12.459   9.114  22.442  1.00  0.00     0.036 A 
HETATM   12  C11 UNL     1      12.831   9.269  21.092  1.00  0.00     0.031 A 
HETATM   13  C12 UNL     1      13.894  10.044  20.694  1.00  0.00     0.021 A 
HETATM   14  C13 UNL     1      14.656  10.719  21.628  1.00  0.00     0.011 A 
HETATM   15 BR1  UNL     1      16.146  11.806  21.099  1.00  0.00    -0.051 Br
HETATM   16  C14 UNL     1      14.315  10.588  22.952  1.00  0.00     0.021 A 
HETATM   17  C15 UNL     1      13.225   9.791  23.355  1.00  0.00     0.031 A 
ENDBRANCH   8  11
ENDBRANCH   3   5
BRANCH   1  18
HETATM   18  C7  UNL     1       9.022   2.682  23.787  1.00  0.00     0.124 C 
BRANCH  18  19
HETATM   19  C6  UNL     1       8.358   2.406  25.113  1.00  0.00     0.132 C 
BRANCH  19  20
HETATM   20  N1  UNL     1       7.956   3.604  25.745  1.00  0.00    -0.360 N 
HETATM   21  C5  UNL     1       8.639   4.205  26.807  1.00  0.00     0.225 C 
HETATM   22  O1  UNL     1       9.691   3.701  27.276  1.00  0.00    -0.273 OA
ATOM     23  H1  UNL     1       7.111   4.062  25.404  1.00  0.00     0.162 HD
BRANCH  21  24
HETATM   24  C2  UNL     1       8.180   5.466  27.459  1.00  0.00     0.030 C 
HETATM   25  C1  UNL     1       8.876   5.528  28.820  1.00  0.00     0.024 C 
HETATM   26  C3  UNL     1       6.704   5.463  27.718  1.00  0.00     0.024 C 
HETATM   27  C4  UNL     1       8.609   6.665  26.657  1.00  0.00     0.024 C 
ENDBRANCH  21  24
ENDBRANCH  19  20
ENDBRANCH  18  19
ENDBRANCH   1  18
TORSDOF 6
ENDMDL
