MODEL 1
REMARK VINA RESULT: -7.993003997      0.000      0.000
REMARK  8 active torsions:
REMARK  status: ('A' for Active; 'I' for Inactive)
REMARK    1  A    between atoms: C2_2  and  C3_3 
REMARK    2  A    between atoms: C8_8  and  N1_9 
REMARK       I    between atoms: N1_9  and  C9_11 
REMARK    3  A    between atoms: C9_11  and  C10_13 
REMARK       I    between atoms: C10_13  and  N2_15 
REMARK    4  A    between atoms: N2_15  and  N3_17 
REMARK    5  A    between atoms: N3_17  and  C11_19 
REMARK    6  A    between atoms: C11_19  and  N4_21 
REMARK    7  A    between atoms: N4_21  and  C12_23 
REMARK    8  A    between atoms: C12_23  and  C13_24 
ROOT
HETATM    1  C10 UNL     1      11.990   7.371  22.719  1.00  0.00     0.328 C 
HETATM    2  O2  UNL     1      12.857   6.462  22.793  1.00  0.00    -0.261 OA
HETATM    3  N2  UNL     1      10.665   7.063  23.123  1.00  0.00    -0.260 N 
ATOM      4  H2  UNL     1       9.951   7.790  23.070  1.00  0.00     0.190 HD
ENDROOT
BRANCH   3   5
HETATM    5  N3  UNL     1      10.312   5.808  23.586  1.00  0.00    -0.273 N 
ATOM      6  H3  UNL     1      10.902   5.346  24.279  1.00  0.00     0.189 HD
BRANCH   5   7
HETATM    7  C11 UNL     1       9.154   5.155  23.120  1.00  0.00     0.186 C 
HETATM    8  S1  UNL     1       7.812   6.039  22.740  1.00  0.00    -0.040 SA
BRANCH   7   9
HETATM    9  N4  UNL     1       9.090   3.755  22.941  1.00  0.00    -0.362 N 
ATOM     10  H4  UNL     1       8.351   3.369  22.354  1.00  0.00     0.162 HD
BRANCH   9  11
HETATM   11  C12 UNL     1      10.019   2.861  23.553  1.00  0.00     0.162 C 
BRANCH  11  12
HETATM   12  C13 UNL     1       9.405   1.646  24.096  1.00  0.00    -0.019 A 
HETATM   13  C14 UNL     1       9.278   0.503  23.351  1.00  0.00     0.010 A 
HETATM   14  C15 UNL     1       8.666  -0.634  23.886  1.00  0.00     0.001 A 
HETATM   15  C16 UNL     1       8.177  -0.628  25.170  1.00  0.00     0.002 A 
HETATM   16  C17 UNL     1       8.316   0.534  25.899  1.00  0.00     0.024 A 
HETATM   17  C18 UNL     1       8.910   1.659  25.402  1.00  0.00     0.042 A 
HETATM   18 CL1  UNL     1       9.067   3.120  26.366  1.00  0.00    -0.084 Cl
ENDBRANCH  11  12
ENDBRANCH   9  11
ENDBRANCH   7   9
ENDBRANCH   5   7
ENDBRANCH   3   5
BRANCH   1  19
HETATM   19  C9  UNL     1      12.338   8.731  22.225  1.00  0.00     0.315 C 
HETATM   20  N1  UNL     1      13.542   8.949  21.546  1.00  0.00    -0.318 N 
ATOM     21  H1  UNL     1      14.136   8.130  21.428  1.00  0.00     0.169 HD
HETATM   22  O1  UNL     1      11.513   9.616  22.453  1.00  0.00    -0.262 OA
BRANCH  20  23
HETATM   23  C8  UNL     1      14.043  10.147  21.005  1.00  0.00     0.045 A 
HETATM   24  C3  UNL     1      15.185  10.721  21.618  1.00  0.00    -0.010 A 
HETATM   25  C4  UNL     1      15.663  11.875  21.039  1.00  0.00     0.013 A 
HETATM   26  C5  UNL     1      15.073  12.447  19.929  1.00  0.00     0.001 A 
HETATM   27  C6  UNL     1      13.971  11.904  19.327  1.00  0.00     0.002 A 
HETATM   28  C7  UNL     1      13.472  10.742  19.891  1.00  0.00     0.030 A 
BRANCH  24  29
HETATM   29  C2  UNL     1      15.808  10.139  22.794  1.00  0.00     0.003 C 
HETATM   30  C1  UNL     1      16.608  10.840  23.556  1.00  0.00     0.012 C 
ENDBRANCH  24  29
ENDBRANCH  20  23
ENDBRANCH   1  19
TORSDOF 8
ENDMDL
MODEL 2
REMARK VINA RESULT: -7.847518378      1.057      2.133
REMARK  8 active torsions:
REMARK  status: ('A' for Active; 'I' for Inactive)
REMARK    1  A    between atoms: C2_2  and  C3_3 
REMARK    2  A    between atoms: C8_8  and  N1_9 
REMARK       I    between atoms: N1_9  and  C9_11 
REMARK    3  A    between atoms: C9_11  and  C10_13 
REMARK       I    between atoms: C10_13  and  N2_15 
REMARK    4  A    between atoms: N2_15  and  N3_17 
REMARK    5  A    between atoms: N3_17  and  C11_19 
REMARK    6  A    between atoms: C11_19  and  N4_21 
REMARK    7  A    between atoms: N4_21  and  C12_23 
REMARK    8  A    between atoms: C12_23  and  C13_24 
ROOT
HETATM    1  C10 UNL     1      10.928   7.826  22.800  1.00  0.00     0.328 C 
HETATM    2  O2  UNL     1       9.926   8.507  23.143  1.00  0.00    -0.261 OA
HETATM    3  N2  UNL     1      10.971   6.462  23.189  1.00  0.00    -0.260 N 
ATOM      4  H2  UNL     1      11.775   5.896  22.919  1.00  0.00     0.190 HD
ENDROOT
BRANCH   3   5
HETATM    5  N3  UNL     1       9.955   5.876  23.924  1.00  0.00    -0.273 N 
ATOM      6  H3  UNL     1       9.942   5.988  24.938  1.00  0.00     0.189 HD
BRANCH   5   7
HETATM    7  C11 UNL     1       8.938   5.127  23.300  1.00  0.00     0.186 C 
HETATM    8  S1  UNL     1       7.486   5.839  22.962  1.00  0.00    -0.040 SA
BRANCH   7   9
HETATM    9  N4  UNL     1       9.109   3.777  22.923  1.00  0.00    -0.362 N 
ATOM     10  H4  UNL     1       8.555   3.409  22.150  1.00  0.00     0.162 HD
BRANCH   9  11
HETATM   11  C12 UNL     1      10.028   2.907  23.585  1.00  0.00     0.162 C 
BRANCH  11  12
HETATM   12  C13 UNL     1       9.417   1.682  24.106  1.00  0.00    -0.019 A 
HETATM   13  C14 UNL     1       9.308   0.546  23.346  1.00  0.00     0.010 A 
HETATM   14  C15 UNL     1       8.697  -0.602  23.860  1.00  0.00     0.001 A 
HETATM   15  C16 UNL     1       8.192  -0.614  25.138  1.00  0.00     0.002 A 
HETATM   16  C17 UNL     1       8.312   0.541  25.882  1.00  0.00     0.024 A 
HETATM   17  C18 UNL     1       8.904   1.676  25.406  1.00  0.00     0.042 A 
HETATM   18 CL1  UNL     1       9.038   3.126  26.388  1.00  0.00    -0.084 Cl
ENDBRANCH  11  12
ENDBRANCH   9  11
ENDBRANCH   7   9
ENDBRANCH   5   7
ENDBRANCH   3   5
BRANCH   1  19
HETATM   19  C9  UNL     1      12.036   8.426  22.011  1.00  0.00     0.315 C 
HETATM   20  N1  UNL     1      12.531   9.694  22.338  1.00  0.00    -0.318 N 
ATOM     21  H1  UNL     1      12.081  10.152  23.130  1.00  0.00     0.169 HD
HETATM   22  O1  UNL     1      12.468   7.745  21.080  1.00  0.00    -0.262 OA
BRANCH  20  23
HETATM   23  C8  UNL     1      13.564  10.422  21.723  1.00  0.00     0.045 A 
HETATM   24  C3  UNL     1      13.210  11.327  20.691  1.00  0.00    -0.010 A 
HETATM   25  C4  UNL     1      14.248  12.044  20.136  1.00  0.00     0.013 A 
HETATM   26  C5  UNL     1      15.556  11.896  20.552  1.00  0.00     0.001 A 
HETATM   27  C6  UNL     1      15.913  11.026  21.546  1.00  0.00     0.002 A 
HETATM   28  C7  UNL     1      14.887  10.294  22.120  1.00  0.00     0.030 A 
BRANCH  24  29
HETATM   29  C2  UNL     1      11.841  11.484  20.234  1.00  0.00     0.003 C 
HETATM   30  C1  UNL     1      11.335  12.667  19.996  1.00  0.00     0.012 C 
ENDBRANCH  24  29
ENDBRANCH  20  23
ENDBRANCH   1  19
TORSDOF 8
ENDMDL
MODEL 3
REMARK VINA RESULT: -7.812536776      1.438      2.425
REMARK  8 active torsions:
REMARK  status: ('A' for Active; 'I' for Inactive)
REMARK    1  A    between atoms: C2_2  and  C3_3 
REMARK    2  A    between atoms: C8_8  and  N1_9 
REMARK       I    between atoms: N1_9  and  C9_11 
REMARK    3  A    between atoms: C9_11  and  C10_13 
REMARK       I    between atoms: C10_13  and  N2_15 
REMARK    4  A    between atoms: N2_15  and  N3_17 
REMARK    5  A    between atoms: N3_17  and  C11_19 
REMARK    6  A    between atoms: C11_19  and  N4_21 
REMARK    7  A    between atoms: N4_21  and  C12_23 
REMARK    8  A    between atoms: C12_23  and  C13_24 
ROOT
HETATM    1  C10 UNL     1      12.072   7.337  22.820  1.00  0.00     0.328 C 
HETATM    2  O2  UNL     1      12.888   6.379  22.822  1.00  0.00    -0.261 OA
HETATM    3  N2  UNL     1      10.742   7.081  23.242  1.00  0.00    -0.260 N 
ATOM      4  H2  UNL     1      10.068   7.847  23.248  1.00  0.00     0.190 HD
ENDROOT
BRANCH   3   5
HETATM    5  N3  UNL     1      10.330   5.823  23.648  1.00  0.00    -0.273 N 
ATOM      6  H3  UNL     1      10.864   5.329  24.364  1.00  0.00     0.189 HD
BRANCH   5   7
HETATM    7  C11 UNL     1       9.190   5.211  23.092  1.00  0.00     0.186 C 
HETATM    8  S1  UNL     1       7.907   6.141  22.623  1.00  0.00    -0.040 SA
BRANCH   7   9
HETATM    9  N4  UNL     1       9.095   3.816  22.893  1.00  0.00    -0.362 N 
ATOM     10  H4  UNL     1       8.330   3.452  22.327  1.00  0.00     0.162 HD
BRANCH   9  11
HETATM   11  C12 UNL     1      10.030   2.897  23.457  1.00  0.00     0.162 C 
BRANCH  11  12
HETATM   12  C13 UNL     1       9.412   1.699  24.033  1.00  0.00    -0.019 A 
HETATM   13  C14 UNL     1       9.268   0.541  23.314  1.00  0.00     0.010 A 
HETATM   14  C15 UNL     1       8.653  -0.580  23.880  1.00  0.00     0.001 A 
HETATM   15  C16 UNL     1       8.177  -0.542  25.168  1.00  0.00     0.002 A 
HETATM   16  C17 UNL     1       8.332   0.635  25.871  1.00  0.00     0.024 A 
HETATM   17  C18 UNL     1       8.930   1.744  25.343  1.00  0.00     0.042 A 
HETATM   18 CL1  UNL     1       9.109   3.224  26.274  1.00  0.00    -0.084 Cl
ENDBRANCH  11  12
ENDBRANCH   9  11
ENDBRANCH   7   9
ENDBRANCH   5   7
ENDBRANCH   3   5
BRANCH   1  19
HETATM   19  C9  UNL     1      12.483   8.701  22.390  1.00  0.00     0.315 C 
HETATM   20  N1  UNL     1      12.134   9.176  21.121  1.00  0.00    -0.318 N 
ATOM     21  H1  UNL     1      11.599   8.532  20.540  1.00  0.00     0.169 HD
HETATM   22  O1  UNL     1      13.131   9.353  23.209  1.00  0.00    -0.262 OA
BRANCH  20  23
HETATM   23  C8  UNL     1      12.423  10.423  20.538  1.00  0.00     0.045 A 
HETATM   24  C3  UNL     1      11.388  11.391  20.505  1.00  0.00    -0.010 A 
HETATM   25  C4  UNL     1      11.721  12.610  19.955  1.00  0.00     0.013 A 
HETATM   26  C5  UNL     1      12.982  12.881  19.462  1.00  0.00     0.001 A 
HETATM   27  C6  UNL     1      13.990  11.956  19.487  1.00  0.00     0.002 A 
HETATM   28  C7  UNL     1      13.680  10.724  20.036  1.00  0.00     0.030 A 
BRANCH  24  29
HETATM   29  C2  UNL     1      10.053  11.116  21.007  1.00  0.00     0.003 C 
HETATM   30  C1  UNL     1       8.988  11.518  20.361  1.00  0.00     0.012 C 
ENDBRANCH  24  29
ENDBRANCH  20  23
ENDBRANCH   1  19
TORSDOF 8
ENDMDL
MODEL 4
REMARK VINA RESULT: -7.754469039      1.553      2.536
REMARK  8 active torsions:
REMARK  status: ('A' for Active; 'I' for Inactive)
REMARK    1  A    between atoms: C2_2  and  C3_3 
REMARK    2  A    between atoms: C8_8  and  N1_9 
REMARK       I    between atoms: N1_9  and  C9_11 
REMARK    3  A    between atoms: C9_11  and  C10_13 
REMARK       I    between atoms: C10_13  and  N2_15 
REMARK    4  A    between atoms: N2_15  and  N3_17 
REMARK    5  A    between atoms: N3_17  and  C11_19 
REMARK    6  A    between atoms: C11_19  and  N4_21 
REMARK    7  A    between atoms: N4_21  and  C12_23 
REMARK    8  A    between atoms: C12_23  and  C13_24 
ROOT
HETATM    1  C10 UNL     1      13.751   8.504  22.879  1.00  0.00     0.328 C 
HETATM    2  O2  UNL     1      14.560   7.738  23.466  1.00  0.00    -0.261 OA
HETATM    3  N2  UNL     1      12.442   8.021  22.623  1.00  0.00    -0.260 N 
ATOM      4  H2  UNL     1      11.775   8.629  22.150  1.00  0.00     0.190 HD
ENDROOT
BRANCH   3   5
HETATM    5  N3  UNL     1      12.043   6.749  22.996  1.00  0.00    -0.273 N 
ATOM      6  H3  UNL     1      12.683   5.965  22.865  1.00  0.00     0.189 HD
BRANCH   5   7
HETATM    7  C11 UNL     1      10.771   6.515  23.553  1.00  0.00     0.186 C 
HETATM    8  S1  UNL     1       9.928   7.767  24.226  1.00  0.00    -0.040 SA
BRANCH   7   9
HETATM    9  N4  UNL     1      10.160   5.242  23.547  1.00  0.00    -0.362 N 
ATOM     10  H4  UNL     1      10.225   4.670  22.706  1.00  0.00     0.162 HD
BRANCH   9  11
HETATM   11  C12 UNL     1       9.454   4.725  24.675  1.00  0.00     0.162 C 
BRANCH  11  12
HETATM   12  C13 UNL     1       9.325   3.266  24.679  1.00  0.00    -0.019 A 
HETATM   13  C14 UNL     1       9.680   2.504  23.595  1.00  0.00     0.010 A 
HETATM   14  C15 UNL     1       9.523   1.115  23.616  1.00  0.00     0.001 A 
HETATM   15  C16 UNL     1       9.008   0.485  24.724  1.00  0.00     0.002 A 
HETATM   16  C17 UNL     1       8.658   1.272  25.800  1.00  0.00     0.024 A 
HETATM   17  C18 UNL     1       8.800   2.631  25.807  1.00  0.00     0.042 A 
HETATM   18 CL1  UNL     1       8.342   3.598  27.201  1.00  0.00    -0.084 Cl
ENDBRANCH  11  12
ENDBRANCH   9  11
ENDBRANCH   7   9
ENDBRANCH   5   7
ENDBRANCH   3   5
BRANCH   1  19
HETATM   19  C9  UNL     1      14.150   9.876  22.466  1.00  0.00     0.315 C 
HETATM   20  N1  UNL     1      14.907  10.073  21.305  1.00  0.00    -0.318 N 
ATOM     21  H1  UNL     1      15.154   9.227  20.792  1.00  0.00     0.169 HD
HETATM   22  O1  UNL     1      13.775  10.792  23.199  1.00  0.00    -0.262 OA
BRANCH  20  23
HETATM   23  C8  UNL     1      15.373  11.278  20.752  1.00  0.00     0.045 A 
HETATM   24  C3  UNL     1      14.517  11.968  19.857  1.00  0.00    -0.010 A 
HETATM   25  C4  UNL     1      14.999  13.160  19.361  1.00  0.00     0.013 A 
HETATM   26  C5  UNL     1      16.238  13.660  19.709  1.00  0.00     0.001 A 
HETATM   27  C6  UNL     1      17.074  13.006  20.571  1.00  0.00     0.002 A 
HETATM   28  C7  UNL     1      16.612  11.805  21.083  1.00  0.00     0.030 A 
BRANCH  24  29
HETATM   29  C2  UNL     1      13.218  11.447  19.471  1.00  0.00     0.003 C 
HETATM   30  C1  UNL     1      12.111  11.968  19.937  1.00  0.00     0.012 C 
ENDBRANCH  24  29
ENDBRANCH  20  23
ENDBRANCH   1  19
TORSDOF 8
ENDMDL
MODEL 5
REMARK VINA RESULT: -7.700948517      2.898      4.311
REMARK  8 active torsions:
REMARK  status: ('A' for Active; 'I' for Inactive)
REMARK    1  A    between atoms: C2_2  and  C3_3 
REMARK    2  A    between atoms: C8_8  and  N1_9 
REMARK       I    between atoms: N1_9  and  C9_11 
REMARK    3  A    between atoms: C9_11  and  C10_13 
REMARK       I    between atoms: C10_13  and  N2_15 
REMARK    4  A    between atoms: N2_15  and  N3_17 
REMARK    5  A    between atoms: N3_17  and  C11_19 
REMARK    6  A    between atoms: C11_19  and  N4_21 
REMARK    7  A    between atoms: N4_21  and  C12_23 
REMARK    8  A    between atoms: C12_23  and  C13_24 
ROOT
HETATM    1  C10 UNL     1       8.278   5.623  24.346  1.00  0.00     0.328 C 
HETATM    2  O2  UNL     1       7.458   4.731  24.008  1.00  0.00    -0.261 OA
HETATM    3  N2  UNL     1       8.274   6.055  25.697  1.00  0.00    -0.260 N 
ATOM      4  H2  UNL     1       8.934   6.776  25.988  1.00  0.00     0.190 HD
ENDROOT
BRANCH   3   5
HETATM    5  N3  UNL     1       7.403   5.526  26.634  1.00  0.00    -0.273 N 
ATOM      6  H3  UNL     1       6.484   5.952  26.758  1.00  0.00     0.189 HD
BRANCH   5   7
HETATM    7  C11 UNL     1       7.760   4.413  27.420  1.00  0.00     0.186 C 
HETATM    8  S1  UNL     1       8.052   4.609  29.034  1.00  0.00    -0.040 SA
BRANCH   7   9
HETATM    9  N4  UNL     1       7.865   3.109  26.889  1.00  0.00    -0.362 N 
ATOM     10  H4  UNL     1       7.059   2.487  26.951  1.00  0.00     0.162 HD
BRANCH   9  11
HETATM   11  C12 UNL     1       9.056   2.627  26.268  1.00  0.00     0.162 C 
BRANCH  11  12
HETATM   12  C13 UNL     1       8.866   1.405  25.484  1.00  0.00    -0.019 A 
HETATM   13  C14 UNL     1       8.196   0.318  25.985  1.00  0.00     0.010 A 
HETATM   14  C15 UNL     1       8.051  -0.845  25.224  1.00  0.00     0.001 A 
HETATM   15  C16 UNL     1       8.578  -0.925  23.958  1.00  0.00     0.002 A 
HETATM   16  C17 UNL     1       9.248   0.180  23.476  1.00  0.00     0.024 A 
HETATM   17  C18 UNL     1       9.405   1.330  24.197  1.00  0.00     0.042 A 
HETATM   18 CL1  UNL     1      10.265   2.716  23.544  1.00  0.00    -0.084 Cl
ENDBRANCH  11  12
ENDBRANCH   9  11
ENDBRANCH   7   9
ENDBRANCH   5   7
ENDBRANCH   3   5
BRANCH   1  19
HETATM   19  C9  UNL     1       9.228   6.211  23.363  1.00  0.00     0.315 C 
HETATM   20  N1  UNL     1      10.246   7.069  23.791  1.00  0.00    -0.318 N 
ATOM     21  H1  UNL     1      10.277   7.251  24.793  1.00  0.00     0.169 HD
HETATM   22  O1  UNL     1       9.052   5.895  22.186  1.00  0.00    -0.262 OA
BRANCH  20  23
HETATM   23  C8  UNL     1      11.234   7.715  23.026  1.00  0.00     0.045 A 
HETATM   24  C3  UNL     1      10.939   9.007  22.523  1.00  0.00    -0.010 A 
HETATM   25  C4  UNL     1      11.944   9.618  21.805  1.00  0.00     0.013 A 
HETATM   26  C5  UNL     1      13.167   9.017  21.584  1.00  0.00     0.001 A 
HETATM   27  C6  UNL     1      13.466   7.771  22.062  1.00  0.00     0.002 A 
HETATM   28  C7  UNL     1      12.471   7.136  22.788  1.00  0.00     0.030 A 
BRANCH  24  29
HETATM   29  C2  UNL     1       9.652   9.647  22.736  1.00  0.00     0.003 C 
HETATM   30  C1  UNL     1       9.161  10.492  21.866  1.00  0.00     0.012 C 
ENDBRANCH  24  29
ENDBRANCH  20  23
ENDBRANCH   1  19
TORSDOF 8
ENDMDL
