MODEL 1
REMARK VINA RESULT: -7.747902377      0.000      0.000
REMARK  4 active torsions:
REMARK  status: ('A' for Active; 'I' for Inactive)
REMARK    1  A    between atoms: C6_9  and  N2_10 
REMARK       I    between atoms: N2_10  and  C7_12 
REMARK       I    between atoms: C7_12  and  N4_16 
REMARK    2  A    between atoms: N4_16  and  C8_18 
REMARK    3  A    between atoms: C8_18  and  C9_19 
REMARK    4  A    between atoms: C9_19  and  C10_20 
ROOT
HETATM    1  C1  UNL     1      14.747  -6.937  23.571  1.00  0.00     0.050 C 
HETATM    2  C2  UNL     1      15.757  -6.895  24.654  1.00  0.00    -0.032 A 
HETATM    3  C3  UNL     1      16.838  -7.758  24.837  1.00  0.00     0.096 A 
HETATM    4  N1  UNL     1      17.527  -7.409  25.921  1.00  0.00    -0.363 N 
ATOM      5  H1  UNL     1      18.361  -7.872  26.281  1.00  0.00     0.165 HD
HETATM    6  C4  UNL     1      16.920  -6.332  26.456  1.00  0.00     0.066 A 
HETATM    7  C5  UNL     1      17.242  -5.583  27.593  1.00  0.00     0.083 A 
HETATM    8 BR1  UNL     1      18.774  -6.103  28.609  1.00  0.00    -0.045 Br
HETATM    9  C6  UNL     1      16.446  -4.516  27.922  1.00  0.00     0.141 A 
HETATM   10  N5  UNL     1      15.374  -4.234  27.125  1.00  0.00    -0.344 N 
ATOM     11  H5  UNL     1      14.792  -3.438  27.386  1.00  0.00     0.167 HD
HETATM   12  C13 UNL     1      15.029  -4.913  26.038  1.00  0.00     0.020 A 
HETATM   13  C14 UNL     1      13.861  -4.576  25.200  1.00  0.00     0.069 C 
HETATM   14  C15 UNL     1      15.817  -5.989  25.691  1.00  0.00     0.022 A 
ENDROOT
BRANCH   9  15
HETATM   15  N2  UNL     1      16.669  -3.790  28.934  1.00  0.00    -0.176 N 
HETATM   16  C7  UNL     1      15.960  -2.836  29.610  1.00  0.00     0.673 C 
HETATM   17  N3  UNL     1      15.223  -3.200  30.635  1.00  0.00    -0.235 N 
HETATM   18  N4  UNL     1      15.979  -1.428  29.297  1.00  0.00    -0.226 N 
ATOM     19  H32 UNL     1      15.210  -4.195  30.857  1.00  0.00     0.174 HD
ATOM     20  H31 UNL     1      14.694  -2.489  31.140  1.00  0.00     0.174 HD
ATOM     21  H4  UNL     1      16.441  -1.104  28.448  1.00  0.00     0.177 HD
ATOM     22  H2  UNL     1      17.591  -3.953  29.339  1.00  0.00     0.186 HD
BRANCH  18  23
HETATM   23  C8  UNL     1      15.354  -0.485  30.169  1.00  0.00     0.138 C 
BRANCH  23  24
HETATM   24  C9  UNL     1      15.885   0.927  29.958  1.00  0.00     0.024 C 
BRANCH  24  25
HETATM   25  C10 UNL     1      15.788   1.732  31.229  1.00  0.00    -0.021 C 
HETATM   26  C11 UNL     1      14.458   2.383  31.412  1.00  0.00     0.009 C 
HETATM   27  C12 UNL     1      16.853   2.809  31.188  1.00  0.00     0.009 C 
ENDBRANCH  24  25
ENDBRANCH  23  24
ENDBRANCH  18  23
ENDBRANCH   9  15
TORSDOF 4
ENDMDL
MODEL 2
REMARK VINA RESULT: -7.370519007      1.004      1.366
REMARK  4 active torsions:
REMARK  status: ('A' for Active; 'I' for Inactive)
REMARK    1  A    between atoms: C6_9  and  N2_10 
REMARK       I    between atoms: N2_10  and  C7_12 
REMARK       I    between atoms: C7_12  and  N4_16 
REMARK    2  A    between atoms: N4_16  and  C8_18 
REMARK    3  A    between atoms: C8_18  and  C9_19 
REMARK    4  A    between atoms: C9_19  and  C10_20 
ROOT
HETATM    1  C1  UNL     1      14.755  -6.954  23.623  1.00  0.00     0.050 C 
HETATM    2  C2  UNL     1      15.769  -6.880  24.701  1.00  0.00    -0.032 A 
HETATM    3  C3  UNL     1      16.855  -7.734  24.901  1.00  0.00     0.096 A 
HETATM    4  N1  UNL     1      17.546  -7.356  25.974  1.00  0.00    -0.363 N 
ATOM      5  H1  UNL     1      18.384  -7.807  26.342  1.00  0.00     0.165 HD
HETATM    6  C4  UNL     1      16.938  -6.268  26.484  1.00  0.00     0.066 A 
HETATM    7  C5  UNL     1      17.261  -5.490  27.600  1.00  0.00     0.083 A 
HETATM    8 BR1  UNL     1      18.798  -5.977  28.623  1.00  0.00    -0.045 Br
HETATM    9  C6  UNL     1      16.462  -4.418  27.905  1.00  0.00     0.141 A 
HETATM   10  N5  UNL     1      15.386  -4.159  27.105  1.00  0.00    -0.344 N 
ATOM     11  H5  UNL     1      14.801  -3.359  27.349  1.00  0.00     0.167 HD
HETATM   12  C13 UNL     1      15.039  -4.867  26.037  1.00  0.00     0.020 A 
HETATM   13  C14 UNL     1      13.867  -4.555  25.196  1.00  0.00     0.069 C 
HETATM   14  C15 UNL     1      15.830  -5.948  25.715  1.00  0.00     0.022 A 
ENDROOT
BRANCH   9  15
HETATM   15  N2  UNL     1      16.686  -3.665  28.897  1.00  0.00    -0.176 N 
HETATM   16  C7  UNL     1      15.961  -2.726  29.578  1.00  0.00     0.673 C 
HETATM   17  N3  UNL     1      15.267  -3.098  30.630  1.00  0.00    -0.235 N 
HETATM   18  N4  UNL     1      15.918  -1.324  29.240  1.00  0.00    -0.226 N 
ATOM     19  H32 UNL     1      15.298  -4.089  30.869  1.00  0.00     0.174 HD
ATOM     20  H31 UNL     1      14.727  -2.398  31.137  1.00  0.00     0.174 HD
ATOM     21  H4  UNL     1      16.343  -0.998  28.372  1.00  0.00     0.177 HD
ATOM     22  H2  UNL     1      17.625  -3.787  29.278  1.00  0.00     0.186 HD
BRANCH  18  23
HETATM   23  C8  UNL     1      15.283  -0.389  30.114  1.00  0.00     0.138 C 
BRANCH  23  24
HETATM   24  C9  UNL     1      16.287   0.547  30.774  1.00  0.00     0.024 C 
BRANCH  24  25
HETATM   25  C10 UNL     1      16.376   0.279  32.255  1.00  0.00    -0.021 C 
HETATM   26  C11 UNL     1      17.372  -0.777  32.603  1.00  0.00     0.009 C 
HETATM   27  C12 UNL     1      15.010  -0.166  32.737  1.00  0.00     0.009 C 
ENDBRANCH  24  25
ENDBRANCH  23  24
ENDBRANCH  18  23
ENDBRANCH   9  15
TORSDOF 4
ENDMDL
MODEL 3
REMARK VINA RESULT: -7.094388519      3.006      3.927
REMARK  4 active torsions:
REMARK  status: ('A' for Active; 'I' for Inactive)
REMARK    1  A    between atoms: C6_9  and  N2_10 
REMARK       I    between atoms: N2_10  and  C7_12 
REMARK       I    between atoms: C7_12  and  N4_16 
REMARK    2  A    between atoms: N4_16  and  C8_18 
REMARK    3  A    between atoms: C8_18  and  C9_19 
REMARK    4  A    between atoms: C9_19  and  C10_20 
ROOT
HETATM    1  C1  UNL     1      14.712  -6.817  23.418  1.00  0.00     0.050 C 
HETATM    2  C2  UNL     1      15.683  -6.939  24.530  1.00  0.00    -0.032 A 
HETATM    3  C3  UNL     1      16.730  -7.856  24.642  1.00  0.00     0.096 A 
HETATM    4  N1  UNL     1      17.390  -7.663  25.782  1.00  0.00    -0.363 N 
ATOM      5  H1  UNL     1      18.196  -8.195  26.110  1.00  0.00     0.165 HD
HETATM    6  C4  UNL     1      16.799  -6.636  26.423  1.00  0.00     0.066 A 
HETATM    7  C5  UNL     1      17.103  -6.040  27.651  1.00  0.00     0.083 A 
HETATM    8 BR1  UNL     1      18.580  -6.730  28.646  1.00  0.00    -0.045 Br
HETATM    9  C6  UNL     1      16.329  -4.992  28.080  1.00  0.00     0.141 A 
HETATM   10  N5  UNL     1      15.296  -4.579  27.289  1.00  0.00    -0.344 N 
ATOM     11  H5  UNL     1      14.730  -3.799  27.625  1.00  0.00     0.167 HD
HETATM   12  C13 UNL     1      14.969  -5.111  26.118  1.00  0.00     0.020 A 
HETATM   13  C14 UNL     1      13.844  -4.635  25.289  1.00  0.00     0.069 C 
HETATM   14  C15 UNL     1      15.735  -6.165  25.670  1.00  0.00     0.022 A 
ENDROOT
BRANCH   9  15
HETATM   15  N2  UNL     1      16.539  -4.399  29.178  1.00  0.00    -0.176 N 
HETATM   16  C7  UNL     1      16.062  -4.535  30.453  1.00  0.00     0.673 C 
HETATM   17  N3  UNL     1      16.714  -5.303  31.297  1.00  0.00    -0.235 N 
HETATM   18  N4  UNL     1      14.890  -3.867  30.963  1.00  0.00    -0.226 N 
ATOM     19  H32 UNL     1      17.543  -5.775  30.936  1.00  0.00     0.174 HD
ATOM     20  H31 UNL     1      16.359  -5.404  32.247  1.00  0.00     0.174 HD
ATOM     21  H4  UNL     1      14.283  -3.351  30.326  1.00  0.00     0.177 HD
ATOM     22  H2  UNL     1      17.221  -3.646  29.093  1.00  0.00     0.186 HD
BRANCH  18  23
HETATM   23  C8  UNL     1      14.573  -3.924  32.354  1.00  0.00     0.138 C 
BRANCH  23  24
HETATM   24  C9  UNL     1      13.122  -4.319  32.594  1.00  0.00     0.024 C 
BRANCH  24  25
HETATM   25  C10 UNL     1      12.736  -5.492  31.730  1.00  0.00    -0.021 C 
HETATM   26  C11 UNL     1      11.259  -5.674  31.610  1.00  0.00     0.009 C 
HETATM   27  C12 UNL     1      13.330  -6.745  32.341  1.00  0.00     0.009 C 
ENDBRANCH  24  25
ENDBRANCH  23  24
ENDBRANCH  18  23
ENDBRANCH   9  15
TORSDOF 4
ENDMDL
MODEL 4
REMARK VINA RESULT: -6.921658857      4.206      5.399
REMARK  4 active torsions:
REMARK  status: ('A' for Active; 'I' for Inactive)
REMARK    1  A    between atoms: C6_9  and  N2_10 
REMARK       I    between atoms: N2_10  and  C7_12 
REMARK       I    between atoms: C7_12  and  N4_16 
REMARK    2  A    between atoms: N4_16  and  C8_18 
REMARK    3  A    between atoms: C8_18  and  C9_19 
REMARK    4  A    between atoms: C9_19  and  C10_20 
ROOT
HETATM    1  C1  UNL     1      14.473  -6.873  23.346  1.00  0.00     0.050 C 
HETATM    2  C2  UNL     1      14.741  -6.085  24.570  1.00  0.00    -0.032 A 
HETATM    3  C3  UNL     1      14.038  -4.969  25.029  1.00  0.00     0.096 A 
HETATM    4  N1  UNL     1      14.570  -4.526  26.166  1.00  0.00    -0.363 N 
ATOM      5  H1  UNL     1      14.249  -3.725  26.710  1.00  0.00     0.165 HD
HETATM    6  C4  UNL     1      15.609  -5.328  26.466  1.00  0.00     0.066 A 
HETATM    7  C5  UNL     1      16.496  -5.295  27.547  1.00  0.00     0.083 A 
HETATM    8 BR1  UNL     1      16.267  -3.924  28.857  1.00  0.00    -0.045 Br
HETATM    9  C6  UNL     1      17.482  -6.245  27.615  1.00  0.00     0.141 A 
HETATM   10  N5  UNL     1      17.555  -7.180  26.623  1.00  0.00    -0.344 N 
ATOM     11  H5  UNL     1      18.296  -7.878  26.688  1.00  0.00     0.167 HD
HETATM   12  C13 UNL     1      16.739  -7.253  25.579  1.00  0.00     0.020 A 
HETATM   13  C14 UNL     1      16.849  -8.280  24.525  1.00  0.00     0.069 C 
HETATM   14  C15 UNL     1      15.741  -6.306  25.493  1.00  0.00     0.022 A 
ENDROOT
BRANCH   9  15
HETATM   15  N2  UNL     1      18.323  -6.284  28.560  1.00  0.00    -0.176 N 
HETATM   16  C7  UNL     1      18.359  -6.873  29.794  1.00  0.00     0.673 C 
HETATM   17  N3  UNL     1      18.894  -8.068  29.912  1.00  0.00    -0.235 N 
HETATM   18  N4  UNL     1      17.869  -6.263  31.006  1.00  0.00    -0.226 N 
ATOM     19  H32 UNL     1      19.240  -8.499  29.055  1.00  0.00     0.174 HD
ATOM     20  H31 UNL     1      18.921  -8.507  30.832  1.00  0.00     0.174 HD
ATOM     21  H4  UNL     1      17.344  -5.390  30.958  1.00  0.00     0.177 HD
ATOM     22  H2  UNL     1      19.169  -5.753  28.355  1.00  0.00     0.186 HD
BRANCH  18  23
HETATM   23  C8  UNL     1      18.115  -6.875  32.273  1.00  0.00     0.138 C 
BRANCH  23  24
HETATM   24  C9  UNL     1      16.831  -7.373  32.925  1.00  0.00     0.024 C 
BRANCH  24  25
HETATM   25  C10 UNL     1      15.636  -7.065  32.061  1.00  0.00    -0.021 C 
HETATM   26  C11 UNL     1      14.600  -6.248  32.759  1.00  0.00     0.009 C 
HETATM   27  C12 UNL     1      15.011  -8.377  31.634  1.00  0.00     0.009 C 
ENDBRANCH  24  25
ENDBRANCH  23  24
ENDBRANCH  18  23
ENDBRANCH   9  15
TORSDOF 4
ENDMDL
MODEL 5
REMARK VINA RESULT: -6.810391677      1.225      1.427
REMARK  4 active torsions:
REMARK  status: ('A' for Active; 'I' for Inactive)
REMARK    1  A    between atoms: C6_9  and  N2_10 
REMARK       I    between atoms: N2_10  and  C7_12 
REMARK       I    between atoms: C7_12  and  N4_16 
REMARK    2  A    between atoms: N4_16  and  C8_18 
REMARK    3  A    between atoms: C8_18  and  C9_19 
REMARK    4  A    between atoms: C9_19  and  C10_20 
ROOT
HETATM    1  C1  UNL     1      15.850  -6.966  24.720  1.00  0.00     0.050 C 
HETATM    2  C2  UNL     1      16.567  -6.688  25.986  1.00  0.00    -0.032 A 
HETATM    3  C3  UNL     1      17.498  -7.506  26.629  1.00  0.00     0.096 A 
HETATM    4  N1  UNL     1      17.929  -6.923  27.745  1.00  0.00    -0.363 N 
ATOM      5  H1  UNL     1      18.610  -7.306  28.401  1.00  0.00     0.165 HD
HETATM    6  C4  UNL     1      17.302  -5.736  27.850  1.00  0.00     0.066 A 
HETATM    7  C5  UNL     1      17.398  -4.745  28.832  1.00  0.00     0.083 A 
HETATM    8 BR1  UNL     1      18.590  -5.040  30.295  1.00  0.00    -0.045 Br
HETATM    9  C6  UNL     1      16.637  -3.613  28.697  1.00  0.00     0.141 A 
HETATM   10  N5  UNL     1      15.817  -3.505  27.611  1.00  0.00    -0.344 N 
ATOM     11  H5  UNL     1      15.256  -2.657  27.528  1.00  0.00     0.167 HD
HETATM   12  C13 UNL     1      15.691  -4.416  26.654  1.00  0.00     0.020 A 
HETATM   13  C14 UNL     1      14.793  -4.263  25.492  1.00  0.00     0.069 C 
HETATM   14  C15 UNL     1      16.449  -5.561  26.772  1.00  0.00     0.022 A 
ENDROOT
BRANCH   9  15
HETATM   15  N2  UNL     1      16.667  -2.670  29.541  1.00  0.00    -0.176 N 
HETATM   16  C7  UNL     1      15.740  -1.805  30.054  1.00  0.00     0.673 C 
HETATM   17  N3  UNL     1      15.110  -2.131  31.160  1.00  0.00    -0.235 N 
HETATM   18  N4  UNL     1      15.410  -0.525  29.477  1.00  0.00    -0.226 N 
ATOM     19  H32 UNL     1      15.344  -3.036  31.568  1.00  0.00     0.174 HD
ATOM     20  H31 UNL     1      14.419  -1.487  31.542  1.00  0.00     0.174 HD
ATOM     21  H4  UNL     1      15.781  -0.270  28.562  1.00  0.00     0.177 HD
ATOM     22  H2  UNL     1      17.599  -2.521  29.929  1.00  0.00     0.186 HD
BRANCH  18  23
HETATM   23  C8  UNL     1      14.566   0.388  30.180  1.00  0.00     0.138 C 
BRANCH  23  24
HETATM   24  C9  UNL     1      15.355   1.535  30.799  1.00  0.00     0.024 C 
BRANCH  24  25
HETATM   25  C10 UNL     1      14.889   1.809  32.205  1.00  0.00    -0.021 C 
HETATM   26  C11 UNL     1      13.621   2.594  32.263  1.00  0.00     0.009 C 
HETATM   27  C12 UNL     1      15.975   2.589  32.918  1.00  0.00     0.009 C 
ENDBRANCH  24  25
ENDBRANCH  23  24
ENDBRANCH  18  23
ENDBRANCH   9  15
TORSDOF 4
ENDMDL
