MODEL 1
REMARK VINA RESULT: -5.856248706      0.000      0.000
REMARK  7 active torsions:
REMARK  status: ('A' for Active; 'I' for Inactive)
REMARK    1  A    between atoms: C2_2  and  C3_3 
REMARK    2  A    between atoms: C2_2  and  C9_12 
REMARK    3  A    between atoms: C3_3  and  C4_4 
REMARK    4  A    between atoms: C4_4  and  N1_6 
REMARK    5  A    between atoms: N1_6  and  C5_8 
REMARK    6  A    between atoms: C11_14  and  N2_15 
REMARK       I    between atoms: N2_15  and  C12_17 
REMARK       I    between atoms: C12_17  and  N3_19 
REMARK    7  A    between atoms: N3_19  and  C13_21 
ROOT
HETATM    1  C9  UNL     1      15.878   1.297  31.457  1.00  0.00     0.033 A 
HETATM    2  C10 UNL     1      16.175   0.007  31.017  1.00  0.00     0.076 A 
HETATM    3  C11 UNL     1      15.614  -0.148  29.767  1.00  0.00     0.125 A 
HETATM    4  N4  UNL     1      15.003   1.001  29.462  1.00  0.00    -0.285 N 
ATOM      5  H4  UNL     1      14.497   1.192  28.598  1.00  0.00     0.188 HD
HETATM    6  N5  UNL     1      15.162   1.850  30.463  1.00  0.00    -0.303 N 
ATOM      7  H5  UNL     1      14.790   2.800  30.478  1.00  0.00     0.186 HD
ENDROOT
BRANCH   1   8
HETATM    8  C2  UNL     1      16.258   1.935  32.735  1.00  0.00     0.039 C 
HETATM    9  C1  UNL     1      14.967   2.427  33.380  1.00  0.00     0.017 C 
BRANCH   8  10
HETATM   10  C3  UNL     1      17.148   3.143  32.511  1.00  0.00     0.079 C 
BRANCH  10  11
HETATM   11  C4  UNL     1      18.580   2.777  32.523  1.00  0.00     0.074 C 
HETATM   12  S1  UNL     1      19.400   2.809  33.930  1.00  0.00    -0.066 SA
BRANCH  11  13
HETATM   13  N1  UNL     1      19.287   2.391  31.354  1.00  0.00    -0.376 N 
ATOM     14  H1  UNL     1      19.657   1.442  31.312  1.00  0.00     0.161 HD
BRANCH  13  15
HETATM   15  C5  UNL     1      19.514   3.246  30.235  1.00  0.00     0.020 C 
HETATM   16  C6  UNL     1      18.387   3.216  29.228  1.00  0.00     0.037 C 
HETATM   17  C7  UNL     1      19.710   4.690  30.634  1.00  0.00     0.037 C 
HETATM   18  C8  UNL     1      20.760   2.789  29.508  1.00  0.00     0.037 C 
ENDBRANCH  13  15
ENDBRANCH  11  13
ENDBRANCH  10  11
ENDBRANCH   8  10
ENDBRANCH   1   8
BRANCH   3  19
HETATM   19  N2  UNL     1      15.686  -1.231  29.042  1.00  0.00    -0.294 N 
HETATM   20  C12 UNL     1      15.853  -2.503  29.626  1.00  0.00     0.322 C 
HETATM   21  O1  UNL     1      14.863  -3.271  29.676  1.00  0.00    -0.247 OA
HETATM   22  N3  UNL     1      17.098  -2.931  30.151  1.00  0.00    -0.335 N 
ATOM     23  H3  UNL     1      17.899  -2.303  30.108  1.00  0.00     0.165 HD
ATOM     24  H2  UNL     1      15.620  -1.155  28.027  1.00  0.00     0.172 HD
BRANCH  22  25
HETATM   25  C13 UNL     1      17.253  -4.230  30.743  1.00  0.00     0.023 C 
HETATM   26  C14 UNL     1      16.458  -4.303  32.014  1.00  0.00     0.037 C 
HETATM   27  C15 UNL     1      18.743  -4.415  31.044  1.00  0.00     0.037 C 
HETATM   28  C16 UNL     1      16.829  -5.329  29.767  1.00  0.00     0.037 C 
ENDBRANCH  22  25
ENDBRANCH   3  19
TORSDOF 7
ENDMDL
MODEL 2
REMARK VINA RESULT: -5.681550099      6.474      8.836
REMARK  7 active torsions:
REMARK  status: ('A' for Active; 'I' for Inactive)
REMARK    1  A    between atoms: C2_2  and  C3_3 
REMARK    2  A    between atoms: C2_2  and  C9_12 
REMARK    3  A    between atoms: C3_3  and  C4_4 
REMARK    4  A    between atoms: C4_4  and  N1_6 
REMARK    5  A    between atoms: N1_6  and  C5_8 
REMARK    6  A    between atoms: C11_14  and  N2_15 
REMARK       I    between atoms: N2_15  and  C12_17 
REMARK       I    between atoms: C12_17  and  N3_19 
REMARK    7  A    between atoms: N3_19  and  C13_21 
ROOT
HETATM    1  C9  UNL     1      12.886  -5.108  32.456  1.00  0.00     0.033 A 
HETATM    2  C10 UNL     1      12.531  -5.075  33.804  1.00  0.00     0.076 A 
HETATM    3  C11 UNL     1      11.167  -5.256  33.882  1.00  0.00     0.125 A 
HETATM    4  N4  UNL     1      10.714  -5.393  32.632  1.00  0.00    -0.285 N 
ATOM      5  H4  UNL     1       9.740  -5.542  32.367  1.00  0.00     0.188 HD
HETATM    6  N5  UNL     1      11.733  -5.305  31.794  1.00  0.00    -0.303 N 
ATOM      7  H5  UNL     1      11.654  -5.376  30.780  1.00  0.00     0.186 HD
ENDROOT
BRANCH   1   8
HETATM    8  C2  UNL     1      14.232  -4.959  31.863  1.00  0.00     0.039 C 
HETATM    9  C1  UNL     1      14.637  -3.502  32.055  1.00  0.00     0.017 C 
BRANCH   8  10
HETATM   10  C3  UNL     1      14.217  -5.238  30.372  1.00  0.00     0.079 C 
BRANCH  10  11
HETATM   11  C4  UNL     1      15.323  -6.134  29.973  1.00  0.00     0.074 C 
HETATM   12  S1  UNL     1      15.987  -7.126  31.082  1.00  0.00    -0.066 SA
BRANCH  11  13
HETATM   13  N1  UNL     1      15.842  -6.177  28.652  1.00  0.00    -0.376 N 
ATOM     14  H1  UNL     1      15.550  -6.946  28.049  1.00  0.00     0.161 HD
BRANCH  13  15
HETATM   15  C5  UNL     1      16.747  -5.215  28.114  1.00  0.00     0.020 C 
HETATM   16  C6  UNL     1      17.393  -4.352  29.174  1.00  0.00     0.037 C 
HETATM   17  C7  UNL     1      17.865  -5.846  27.319  1.00  0.00     0.037 C 
HETATM   18  C8  UNL     1      15.988  -4.281  27.197  1.00  0.00     0.037 C 
ENDBRANCH  13  15
ENDBRANCH  11  13
ENDBRANCH  10  11
ENDBRANCH   8  10
ENDBRANCH   1   8
BRANCH   3  19
HETATM   19  N2  UNL     1      10.475  -5.285  34.988  1.00  0.00    -0.294 N 
HETATM   20  C12 UNL     1      10.190  -4.110  35.713  1.00  0.00     0.322 C 
HETATM   21  O1  UNL     1       9.029  -3.639  35.654  1.00  0.00    -0.247 OA
HETATM   22  N3  UNL     1      11.171  -3.455  36.498  1.00  0.00    -0.335 N 
ATOM     23  H3  UNL     1      12.113  -3.842  36.543  1.00  0.00     0.165 HD
ATOM     24  H2  UNL     1      10.132  -6.180  35.337  1.00  0.00     0.172 HD
BRANCH  22  25
HETATM   25  C13 UNL     1      10.867  -2.259  37.232  1.00  0.00     0.023 C 
HETATM   26  C14 UNL     1      10.438  -1.180  36.280  1.00  0.00     0.037 C 
HETATM   27  C15 UNL     1      12.144  -1.837  37.962  1.00  0.00     0.037 C 
HETATM   28  C16 UNL     1       9.787  -2.522  38.283  1.00  0.00     0.037 C 
ENDBRANCH  22  25
ENDBRANCH   3  19
TORSDOF 7
ENDMDL
MODEL 3
REMARK VINA RESULT: -5.676415133      3.551      7.130
REMARK  7 active torsions:
REMARK  status: ('A' for Active; 'I' for Inactive)
REMARK    1  A    between atoms: C2_2  and  C3_3 
REMARK    2  A    between atoms: C2_2  and  C9_12 
REMARK    3  A    between atoms: C3_3  and  C4_4 
REMARK    4  A    between atoms: C4_4  and  N1_6 
REMARK    5  A    between atoms: N1_6  and  C5_8 
REMARK    6  A    between atoms: C11_14  and  N2_15 
REMARK       I    between atoms: N2_15  and  C12_17 
REMARK       I    between atoms: C12_17  and  N3_19 
REMARK    7  A    between atoms: N3_19  and  C13_21 
ROOT
HETATM    1  C9  UNL     1      15.510  -1.339  30.207  1.00  0.00     0.033 A 
HETATM    2  C10 UNL     1      15.223  -0.340  31.135  1.00  0.00     0.076 A 
HETATM    3  C11 UNL     1      15.156   0.857  30.453  1.00  0.00     0.125 A 
HETATM    4  N4  UNL     1      15.392   0.592  29.165  1.00  0.00    -0.285 N 
ATOM      5  H4  UNL     1      15.408   1.280  28.412  1.00  0.00     0.188 HD
HETATM    6  N5  UNL     1      15.601  -0.705  29.025  1.00  0.00    -0.303 N 
ATOM      7  H5  UNL     1      15.803  -1.165  28.137  1.00  0.00     0.186 HD
ENDROOT
BRANCH   1   8
HETATM    8  C2  UNL     1      15.682  -2.788  30.449  1.00  0.00     0.039 C 
HETATM    9  C1  UNL     1      14.898  -3.116  31.714  1.00  0.00     0.017 C 
BRANCH   8  10
HETATM   10  C3  UNL     1      17.135  -3.140  30.705  1.00  0.00     0.079 C 
BRANCH  10  11
HETATM   11  C4  UNL     1      17.660  -4.071  29.684  1.00  0.00     0.074 C 
HETATM   12  S1  UNL     1      19.032  -4.896  29.985  1.00  0.00    -0.066 SA
BRANCH  11  13
HETATM   13  N1  UNL     1      17.019  -4.287  28.435  1.00  0.00    -0.376 N 
ATOM     14  H1  UNL     1      17.077  -3.548  27.735  1.00  0.00     0.161 HD
BRANCH  13  15
HETATM   15  C5  UNL     1      16.297  -5.470  28.098  1.00  0.00     0.020 C 
HETATM   16  C6  UNL     1      17.121  -6.461  27.307  1.00  0.00     0.037 C 
HETATM   17  C7  UNL     1      15.776  -6.202  29.312  1.00  0.00     0.037 C 
HETATM   18  C8  UNL     1      15.115  -5.098  27.231  1.00  0.00     0.037 C 
ENDBRANCH  13  15
ENDBRANCH  11  13
ENDBRANCH  10  11
ENDBRANCH   8  10
ENDBRANCH   1   8
BRANCH   3  19
HETATM   19  N2  UNL     1      14.904   2.017  30.996  1.00  0.00    -0.294 N 
HETATM   20  C12 UNL     1      15.224   2.288  32.343  1.00  0.00     0.322 C 
HETATM   21  O1  UNL     1      16.218   3.014  32.585  1.00  0.00    -0.247 OA
HETATM   22  N3  UNL     1      14.460   1.768  33.416  1.00  0.00    -0.335 N 
ATOM     23  H3  UNL     1      13.653   1.179  33.214  1.00  0.00     0.165 HD
ATOM     24  H2  UNL     1      14.466   2.745  30.433  1.00  0.00     0.172 HD
BRANCH  22  25
HETATM   25  C13 UNL     1      14.797   2.053  34.782  1.00  0.00     0.023 C 
HETATM   26  C14 UNL     1      16.258   1.790  35.006  1.00  0.00     0.037 C 
HETATM   27  C15 UNL     1      13.955   1.124  35.660  1.00  0.00     0.037 C 
HETATM   28  C16 UNL     1      14.439   3.496  35.144  1.00  0.00     0.037 C 
ENDBRANCH  22  25
ENDBRANCH   3  19
TORSDOF 7
ENDMDL
MODEL 4
REMARK VINA RESULT: -5.659853048      1.811      3.841
REMARK  7 active torsions:
REMARK  status: ('A' for Active; 'I' for Inactive)
REMARK    1  A    between atoms: C2_2  and  C3_3 
REMARK    2  A    between atoms: C2_2  and  C9_12 
REMARK    3  A    between atoms: C3_3  and  C4_4 
REMARK    4  A    between atoms: C4_4  and  N1_6 
REMARK    5  A    between atoms: N1_6  and  C5_8 
REMARK    6  A    between atoms: C11_14  and  N2_15 
REMARK       I    between atoms: N2_15  and  C12_17 
REMARK       I    between atoms: C12_17  and  N3_19 
REMARK    7  A    between atoms: N3_19  and  C13_21 
ROOT
HETATM    1  C9  UNL     1      15.938   1.837  31.097  1.00  0.00     0.033 A 
HETATM    2  C10 UNL     1      16.495   0.644  30.638  1.00  0.00     0.076 A 
HETATM    3  C11 UNL     1      15.597   0.073  29.761  1.00  0.00     0.125 A 
HETATM    4  N4  UNL     1      14.539   0.888  29.692  1.00  0.00    -0.285 N 
ATOM      5  H4  UNL     1      13.708   0.733  29.121  1.00  0.00     0.188 HD
HETATM    6  N5  UNL     1      14.746   1.927  30.482  1.00  0.00    -0.303 N 
ATOM      7  H5  UNL     1      14.088   2.696  30.608  1.00  0.00     0.186 HD
ENDROOT
BRANCH   1   8
HETATM    8  C2  UNL     1      16.516   2.806  32.052  1.00  0.00     0.039 C 
HETATM    9  C1  UNL     1      17.724   3.432  31.364  1.00  0.00     0.017 C 
BRANCH   8  10
HETATM   10  C3  UNL     1      17.011   2.119  33.311  1.00  0.00     0.079 C 
BRANCH  10  11
HETATM   11  C4  UNL     1      16.093   2.337  34.449  1.00  0.00     0.074 C 
HETATM   12  S1  UNL     1      15.967   3.826  35.098  1.00  0.00    -0.066 SA
BRANCH  11  13
HETATM   13  N1  UNL     1      15.303   1.300  35.013  1.00  0.00    -0.376 N 
ATOM     14  H1  UNL     1      15.645   0.848  35.860  1.00  0.00     0.161 HD
BRANCH  13  15
HETATM   15  C5  UNL     1      14.063   0.851  34.470  1.00  0.00     0.020 C 
HETATM   16  C6  UNL     1      13.285   1.949  33.781  1.00  0.00     0.037 C 
HETATM   17  C7  UNL     1      14.236  -0.263  33.464  1.00  0.00     0.037 C 
HETATM   18  C8  UNL     1      13.189   0.337  35.593  1.00  0.00     0.037 C 
ENDBRANCH  13  15
ENDBRANCH  11  13
ENDBRANCH  10  11
ENDBRANCH   8  10
ENDBRANCH   1   8
BRANCH   3  19
HETATM   19  N2  UNL     1      15.777  -1.056  29.131  1.00  0.00    -0.294 N 
HETATM   20  C12 UNL     1      15.814  -2.288  29.816  1.00  0.00     0.322 C 
HETATM   21  O1  UNL     1      14.817  -3.044  29.737  1.00  0.00    -0.247 OA
HETATM   22  N3  UNL     1      16.936  -2.689  30.582  1.00  0.00    -0.335 N 
ATOM     23  H3  UNL     1      17.745  -2.070  30.643  1.00  0.00     0.165 HD
ATOM     24  H2  UNL     1      15.894  -1.047  28.118  1.00  0.00     0.172 HD
BRANCH  22  25
HETATM   25  C13 UNL     1      16.960  -3.946  31.274  1.00  0.00     0.023 C 
HETATM   26  C14 UNL     1      15.905  -3.953  32.341  1.00  0.00     0.037 C 
HETATM   27  C15 UNL     1      18.347  -4.090  31.906  1.00  0.00     0.037 C 
HETATM   28  C16 UNL     1      16.762  -5.109  30.300  1.00  0.00     0.037 C 
ENDBRANCH  22  25
ENDBRANCH   3  19
TORSDOF 7
ENDMDL
MODEL 5
REMARK VINA RESULT: -5.657373422      5.858      8.598
REMARK  7 active torsions:
REMARK  status: ('A' for Active; 'I' for Inactive)
REMARK    1  A    between atoms: C2_2  and  C3_3 
REMARK    2  A    between atoms: C2_2  and  C9_12 
REMARK    3  A    between atoms: C3_3  and  C4_4 
REMARK    4  A    between atoms: C4_4  and  N1_6 
REMARK    5  A    between atoms: N1_6  and  C5_8 
REMARK    6  A    between atoms: C11_14  and  N2_15 
REMARK       I    between atoms: N2_15  and  C12_17 
REMARK       I    between atoms: C12_17  and  N3_19 
REMARK    7  A    between atoms: N3_19  and  C13_21 
ROOT
HETATM    1  C9  UNL     1      12.678  -5.507  32.206  1.00  0.00     0.033 A 
HETATM    2  C10 UNL     1      12.479  -5.528  33.586  1.00  0.00     0.076 A 
HETATM    3  C11 UNL     1      11.119  -5.507  33.812  1.00  0.00     0.125 A 
HETATM    4  N4  UNL     1      10.519  -5.475  32.618  1.00  0.00    -0.285 N 
ATOM      5  H4  UNL     1       9.512  -5.455  32.461  1.00  0.00     0.188 HD
HETATM    6  N5  UNL     1      11.444  -5.475  31.674  1.00  0.00    -0.303 N 
ATOM      7  H5  UNL     1      11.247  -5.453  30.673  1.00  0.00     0.186 HD
ENDROOT
BRANCH   1   8
HETATM    8  C2  UNL     1      13.960  -5.515  31.469  1.00  0.00     0.039 C 
HETATM    9  C1  UNL     1      14.754  -6.709  31.985  1.00  0.00     0.017 C 
BRANCH   8  10
HETATM   10  C3  UNL     1      14.773  -4.266  31.751  1.00  0.00     0.079 C 
BRANCH  10  11
HETATM   11  C4  UNL     1      15.065  -3.513  30.513  1.00  0.00     0.074 C 
HETATM   12  S1  UNL     1      15.544  -1.960  30.618  1.00  0.00    -0.066 SA
BRANCH  11  13
HETATM   13  N1  UNL     1      14.948  -4.083  29.218  1.00  0.00    -0.376 N 
ATOM     14  H1  UNL     1      14.038  -4.044  28.760  1.00  0.00     0.161 HD
BRANCH  13  15
HETATM   15  C5  UNL     1      16.022  -4.708  28.516  1.00  0.00     0.020 C 
HETATM   16  C6  UNL     1      17.380  -4.365  29.085  1.00  0.00     0.037 C 
HETATM   17  C7  UNL     1      15.915  -6.214  28.508  1.00  0.00     0.037 C 
HETATM   18  C8  UNL     1      16.019  -4.230  27.081  1.00  0.00     0.037 C 
ENDBRANCH  13  15
ENDBRANCH  11  13
ENDBRANCH  10  11
ENDBRANCH   8  10
ENDBRANCH   1   8
BRANCH   3  19
HETATM   19  N2  UNL     1      10.554  -5.519  34.989  1.00  0.00    -0.294 N 
HETATM   20  C12 UNL     1      10.267  -4.326  35.684  1.00  0.00     0.322 C 
HETATM   21  O1  UNL     1       9.077  -3.935  35.731  1.00  0.00    -0.247 OA
HETATM   22  N3  UNL     1      11.279  -3.567  36.323  1.00  0.00    -0.335 N 
ATOM     23  H3  UNL     1      12.245  -3.890  36.282  1.00  0.00     0.165 HD
ATOM     24  H2  UNL     1      10.314  -6.413  35.417  1.00  0.00     0.172 HD
BRANCH  22  25
HETATM   25  C13 UNL     1      10.972  -2.354  37.027  1.00  0.00     0.023 C 
HETATM   26  C14 UNL     1      10.406  -1.346  36.070  1.00  0.00     0.037 C 
HETATM   27  C15 UNL     1      12.281  -1.834  37.626  1.00  0.00     0.037 C 
HETATM   28  C16 UNL     1      10.000  -2.622  38.179  1.00  0.00     0.037 C 
ENDBRANCH  22  25
ENDBRANCH   3  19
TORSDOF 7
ENDMDL
