MODEL 1
REMARK VINA RESULT: -8.086160620      0.000      0.000
REMARK  6 active torsions:
REMARK  status: ('A' for Active; 'I' for Inactive)
REMARK    1  A    between atoms: C2_2  and  N1_5 
REMARK       I    between atoms: C5_7  and  N3_9 
REMARK    2  A    between atoms: N3_9  and  N4_11 
REMARK       I    between atoms: N4_11  and  C6_13 
REMARK    3  A    between atoms: C6_13  and  C7_15 
REMARK    4  A    between atoms: C7_15  and  N5_16 
REMARK    5  A    between atoms: C7_15  and  C15_27 
REMARK       I    between atoms: N5_16  and  C8_18 
REMARK    6  A    between atoms: C8_18  and  C9_20 
ROOT
HETATM    1  C7  UNL     1      18.644 -14.031  19.951  1.00  0.00     0.089 C 
ENDROOT
BRANCH   1   2
HETATM    2  C6  UNL     1      17.830 -12.997  20.542  1.00  0.00     0.283 C 
HETATM    3  N4  UNL     1      16.454 -12.890  20.564  1.00  0.00    -0.262 N 
ATOM      4  H4  UNL     1      15.902 -13.625  20.119  1.00  0.00     0.190 HD
HETATM    5  O1  UNL     1      18.478 -12.040  21.134  1.00  0.00    -0.265 OA
BRANCH   3   6
HETATM    6  N3  UNL     1      15.772 -11.811  21.173  1.00  0.00    -0.271 N 
HETATM    7  C5  UNL     1      14.369 -11.725  21.166  1.00  0.00     0.203 C 
HETATM    8  N1  UNL     1      13.775 -11.230  22.169  1.00  0.00    -0.355 N 
HETATM    9  N2  UNL     1      13.626 -12.174  20.046  1.00  0.00    -0.062 NA
ATOM     10  H1  UNL     1      14.376 -10.931  22.937  1.00  0.00     0.163 HD
ATOM     11  H3  UNL     1      16.312 -11.075  21.630  1.00  0.00     0.189 HD
BRANCH   8  12
HETATM   12  C2  UNL     1      12.370 -11.036  22.365  1.00  0.00     0.021 C 
HETATM   13  C1  UNL     1      12.172 -10.308  23.678  1.00  0.00     0.037 C 
HETATM   14  C3  UNL     1      11.569 -12.319  22.373  1.00  0.00     0.037 C 
HETATM   15  C4  UNL     1      11.823 -10.084  21.289  1.00  0.00     0.037 C 
ENDBRANCH   8  12
ENDBRANCH   3   6
ENDBRANCH   1   2
BRANCH   1  16
HETATM   16  N5  UNL     1      19.085 -13.677  18.592  1.00  0.00    -0.321 N 
HETATM   17  C8  UNL     1      18.251 -13.694  17.478  1.00  0.00     0.256 C 
HETATM   18  O2  UNL     1      17.055 -14.040  17.637  1.00  0.00    -0.267 OA
ATOM     19  H5  UNL     1      20.058 -13.403  18.459  1.00  0.00     0.169 HD
BRANCH  17  20
HETATM   20  C9  UNL     1      18.713 -13.329  16.164  1.00  0.00     0.032 A 
HETATM   21  C10 UNL     1      17.784 -13.251  15.122  1.00  0.00     0.018 A 
HETATM   22  C11 UNL     1      18.228 -12.895  13.880  1.00  0.00     0.025 A 
HETATM   23  C12 UNL     1      19.563 -12.606  13.605  1.00  0.00     0.034 A 
HETATM   24 CL1  UNL     1      20.039 -12.158  11.997  1.00  0.00    -0.084 Cl
HETATM   25  C13 UNL     1      20.484 -12.678  14.619  1.00  0.00     0.025 A 
HETATM   26  C14 UNL     1      20.042 -13.038  15.875  1.00  0.00     0.018 A 
ENDBRANCH  17  20
ENDBRANCH   1  16
BRANCH   1  27
HETATM   27  C15 UNL     1      19.666 -14.747  20.739  1.00  0.00    -0.003 C 
HETATM   28  C16 UNL     1      20.116 -16.035  20.047  1.00  0.00     0.021 C 
HETATM   29  C17 UNL     1      18.991 -15.249  22.027  1.00  0.00     0.021 C 
HETATM   30  C18 UNL     1      20.855 -13.947  21.103  1.00  0.00     0.021 C 
ENDBRANCH   1  27
TORSDOF 6
ENDMDL
MODEL 2
REMARK VINA RESULT: -8.066181295      3.249      5.795
REMARK  6 active torsions:
REMARK  status: ('A' for Active; 'I' for Inactive)
REMARK    1  A    between atoms: C2_2  and  N1_5 
REMARK       I    between atoms: C5_7  and  N3_9 
REMARK    2  A    between atoms: N3_9  and  N4_11 
REMARK       I    between atoms: N4_11  and  C6_13 
REMARK    3  A    between atoms: C6_13  and  C7_15 
REMARK    4  A    between atoms: C7_15  and  N5_16 
REMARK    5  A    between atoms: C7_15  and  C15_27 
REMARK       I    between atoms: N5_16  and  C8_18 
REMARK    6  A    between atoms: C8_18  and  C9_20 
ROOT
HETATM    1  C7  UNL     1      15.470 -14.398  20.316  1.00  0.00     0.089 C 
ENDROOT
BRANCH   1   2
HETATM    2  C6  UNL     1      16.037 -14.379  21.641  1.00  0.00     0.283 C 
HETATM    3  N4  UNL     1      17.114 -15.091  22.129  1.00  0.00    -0.262 N 
ATOM      4  H4  UNL     1      17.606 -15.722  21.496  1.00  0.00     0.190 HD
HETATM    5  O1  UNL     1      15.459 -13.583  22.490  1.00  0.00    -0.265 OA
BRANCH   3   6
HETATM    6  N3  UNL     1      17.569 -14.987  23.465  1.00  0.00    -0.271 N 
HETATM    7  C5  UNL     1      18.910 -15.230  23.809  1.00  0.00     0.203 C 
HETATM    8  N1  UNL     1      19.442 -14.551  24.736  1.00  0.00    -0.355 N 
HETATM    9  N2  UNL     1      19.656 -16.230  23.138  1.00  0.00    -0.062 NA
ATOM     10  H1  UNL     1      18.844 -13.849  25.171  1.00  0.00     0.163 HD
ATOM     11  H3  UNL     1      16.907 -14.730  24.197  1.00  0.00     0.189 HD
BRANCH   8  12
HETATM   12  C2  UNL     1      20.775 -14.641  25.253  1.00  0.00     0.021 C 
HETATM   13  C1  UNL     1      20.930 -13.600  26.342  1.00  0.00     0.037 C 
HETATM   14  C3  UNL     1      21.852 -14.446  24.210  1.00  0.00     0.037 C 
HETATM   15  C4  UNL     1      20.966 -15.994  25.958  1.00  0.00     0.037 C 
ENDBRANCH   8  12
ENDBRANCH   3   6
ENDBRANCH   1   2
BRANCH   1  16
HETATM   16  N5  UNL     1      16.506 -14.344  19.272  1.00  0.00    -0.321 N 
HETATM   17  C8  UNL     1      16.966 -13.163  18.698  1.00  0.00     0.256 C 
HETATM   18  O2  UNL     1      16.464 -12.080  19.084  1.00  0.00    -0.267 OA
ATOM     19  H5  UNL     1      16.910 -15.224  18.950  1.00  0.00     0.169 HD
BRANCH  17  20
HETATM   20  C9  UNL     1      17.991 -13.146  17.686  1.00  0.00     0.032 A 
HETATM   21  C10 UNL     1      19.267 -13.615  18.013  1.00  0.00     0.018 A 
HETATM   22  C11 UNL     1      20.231 -13.604  17.045  1.00  0.00     0.025 A 
HETATM   23  C12 UNL     1      20.001 -13.147  15.749  1.00  0.00     0.034 A 
HETATM   24 CL1  UNL     1      21.285 -13.172  14.581  1.00  0.00    -0.084 Cl
HETATM   25  C13 UNL     1      18.753 -12.685  15.416  1.00  0.00     0.025 A 
HETATM   26  C14 UNL     1      17.776 -12.693  16.389  1.00  0.00     0.018 A 
ENDBRANCH  17  20
ENDBRANCH   1  16
BRANCH   1  27
HETATM   27  C15 UNL     1      14.335 -15.279  19.980  1.00  0.00    -0.003 C 
HETATM   28  C16 UNL     1      14.373 -15.721  18.515  1.00  0.00     0.021 C 
HETATM   29  C17 UNL     1      13.051 -14.434  20.066  1.00  0.00     0.021 C 
HETATM   30  C18 UNL     1      14.182 -16.469  20.844  1.00  0.00     0.021 C 
ENDBRANCH   1  27
TORSDOF 6
ENDMDL
MODEL 3
REMARK VINA RESULT: -7.957563167      3.629      8.033
REMARK  6 active torsions:
REMARK  status: ('A' for Active; 'I' for Inactive)
REMARK    1  A    between atoms: C2_2  and  N1_5 
REMARK       I    between atoms: C5_7  and  N3_9 
REMARK    2  A    between atoms: N3_9  and  N4_11 
REMARK       I    between atoms: N4_11  and  C6_13 
REMARK    3  A    between atoms: C6_13  and  C7_15 
REMARK    4  A    between atoms: C7_15  and  N5_16 
REMARK    5  A    between atoms: C7_15  and  C15_27 
REMARK       I    between atoms: N5_16  and  C8_18 
REMARK    6  A    between atoms: C8_18  and  C9_20 
ROOT
HETATM    1  C7  UNL     1      16.251 -14.050  20.159  1.00  0.00     0.089 C 
ENDROOT
BRANCH   1   2
HETATM    2  C6  UNL     1      16.658 -13.256  19.027  1.00  0.00     0.283 C 
HETATM    3  N4  UNL     1      17.092 -13.680  17.787  1.00  0.00    -0.262 N 
ATOM      4  H4  UNL     1      17.139 -14.684  17.606  1.00  0.00     0.190 HD
HETATM    5  O1  UNL     1      16.607 -11.969  19.194  1.00  0.00    -0.265 OA
BRANCH   3   6
HETATM    6  N3  UNL     1      17.475 -12.791  16.756  1.00  0.00    -0.271 N 
HETATM    7  C5  UNL     1      18.686 -12.946  16.060  1.00  0.00     0.203 C 
HETATM    8  N1  UNL     1      18.733 -12.649  14.829  1.00  0.00    -0.355 N 
HETATM    9  N2  UNL     1      19.845 -13.414  16.726  1.00  0.00    -0.062 NA
ATOM     10  H1  UNL     1      17.859 -12.321  14.418  1.00  0.00     0.163 HD
ATOM     11  H3  UNL     1      16.857 -12.017  16.511  1.00  0.00     0.189 HD
BRANCH   8  12
HETATM   12  C2  UNL     1      19.854 -12.716  13.939  1.00  0.00     0.021 C 
HETATM   13  C1  UNL     1      19.564 -13.771  12.893  1.00  0.00     0.037 C 
HETATM   14  C3  UNL     1      21.164 -13.031  14.626  1.00  0.00     0.037 C 
HETATM   15  C4  UNL     1      19.975 -11.396  13.160  1.00  0.00     0.037 C 
ENDBRANCH   8  12
ENDBRANCH   3   6
ENDBRANCH   1   2
BRANCH   1  16
HETATM   16  N5  UNL     1      17.243 -14.009  21.246  1.00  0.00    -0.321 N 
HETATM   17  C8  UNL     1      18.476 -14.652  21.195  1.00  0.00     0.256 C 
HETATM   18  O2  UNL     1      18.757 -15.314  20.167  1.00  0.00    -0.267 OA
ATOM     19  H5  UNL     1      17.013 -13.477  22.086  1.00  0.00     0.169 HD
BRANCH  17  20
HETATM   20  C9  UNL     1      19.428 -14.580  22.273  1.00  0.00     0.032 A 
HETATM   21  C10 UNL     1      20.792 -14.644  21.970  1.00  0.00     0.018 A 
HETATM   22  C11 UNL     1      21.689 -14.565  22.997  1.00  0.00     0.025 A 
HETATM   23  C12 UNL     1      21.309 -14.425  24.330  1.00  0.00     0.034 A 
HETATM   24 CL1  UNL     1      22.518 -14.330  25.571  1.00  0.00    -0.084 Cl
HETATM   25  C13 UNL     1      19.974 -14.361  24.639  1.00  0.00     0.025 A 
HETATM   26  C14 UNL     1      19.062 -14.441  23.607  1.00  0.00     0.018 A 
ENDBRANCH  17  20
ENDBRANCH   1  16
BRANCH   1  27
HETATM   27  C15 UNL     1      14.853 -14.054  20.632  1.00  0.00    -0.003 C 
HETATM   28  C16 UNL     1      14.633 -13.047  21.762  1.00  0.00     0.021 C 
HETATM   29  C17 UNL     1      14.596 -15.413  21.308  1.00  0.00     0.021 C 
HETATM   30  C18 UNL     1      13.832 -13.841  19.584  1.00  0.00     0.021 C 
ENDBRANCH   1  27
TORSDOF 6
ENDMDL
MODEL 4
REMARK VINA RESULT: -7.956324717      3.250      5.727
REMARK  6 active torsions:
REMARK  status: ('A' for Active; 'I' for Inactive)
REMARK    1  A    between atoms: C2_2  and  N1_5 
REMARK       I    between atoms: C5_7  and  N3_9 
REMARK    2  A    between atoms: N3_9  and  N4_11 
REMARK       I    between atoms: N4_11  and  C6_13 
REMARK    3  A    between atoms: C6_13  and  C7_15 
REMARK    4  A    between atoms: C7_15  and  N5_16 
REMARK    5  A    between atoms: C7_15  and  C15_27 
REMARK       I    between atoms: N5_16  and  C8_18 
REMARK    6  A    between atoms: C8_18  and  C9_20 
ROOT
HETATM    1  C7  UNL     1      15.325 -14.343  20.289  1.00  0.00     0.089 C 
ENDROOT
BRANCH   1   2
HETATM    2  C6  UNL     1      15.871 -14.335  21.623  1.00  0.00     0.283 C 
HETATM    3  N4  UNL     1      16.948 -15.043  22.118  1.00  0.00    -0.262 N 
ATOM      4  H4  UNL     1      17.456 -15.661  21.485  1.00  0.00     0.190 HD
HETATM    5  O1  UNL     1      15.273 -13.555  22.472  1.00  0.00    -0.265 OA
BRANCH   3   6
HETATM    6  N3  UNL     1      17.380 -14.952  23.462  1.00  0.00    -0.271 N 
HETATM    7  C5  UNL     1      18.702 -15.252  23.834  1.00  0.00     0.203 C 
HETATM    8  N1  UNL     1      19.246 -14.592  24.768  1.00  0.00    -0.355 N 
HETATM    9  N2  UNL     1      19.416 -16.287  23.182  1.00  0.00    -0.062 NA
ATOM     10  H1  UNL     1      18.671 -13.861  25.188  1.00  0.00     0.163 HD
ATOM     11  H3  UNL     1      16.716 -14.662  24.180  1.00  0.00     0.189 HD
BRANCH   8  12
HETATM   12  C2  UNL     1      20.563 -14.737  25.312  1.00  0.00     0.021 C 
HETATM   13  C1  UNL     1      20.711 -13.761  26.460  1.00  0.00     0.037 C 
HETATM   14  C3  UNL     1      21.670 -14.508  24.308  1.00  0.00     0.037 C 
HETATM   15  C4  UNL     1      20.711 -16.131  25.945  1.00  0.00     0.037 C 
ENDBRANCH   8  12
ENDBRANCH   3   6
ENDBRANCH   1   2
BRANCH   1  16
HETATM   16  N5  UNL     1      16.379 -14.313  19.261  1.00  0.00    -0.321 N 
HETATM   17  C8  UNL     1      16.906 -13.142  18.726  1.00  0.00     0.256 C 
HETATM   18  O2  UNL     1      16.453 -12.045  19.135  1.00  0.00    -0.267 OA
ATOM     19  H5  UNL     1      16.743 -15.203  18.921  1.00  0.00     0.169 HD
BRANCH  17  20
HETATM   20  C9  UNL     1      17.947 -13.149  17.730  1.00  0.00     0.032 A 
HETATM   21  C10 UNL     1      17.664 -12.640  16.459  1.00  0.00     0.018 A 
HETATM   22  C11 UNL     1      18.660 -12.641  15.523  1.00  0.00     0.025 A 
HETATM   23  C12 UNL     1      19.941 -13.126  15.777  1.00  0.00     0.034 A 
HETATM   24 CL1  UNL     1      21.145 -13.086  14.528  1.00  0.00    -0.084 Cl
HETATM   25  C13 UNL     1      20.230 -13.628  17.020  1.00  0.00     0.025 A 
HETATM   26  C14 UNL     1      19.229 -13.630  17.969  1.00  0.00     0.018 A 
ENDBRANCH  17  20
ENDBRANCH   1  16
BRANCH   1  27
HETATM   27  C15 UNL     1      14.176 -15.198  19.935  1.00  0.00    -0.003 C 
HETATM   28  C16 UNL     1      12.843 -14.523  20.266  1.00  0.00     0.021 C 
HETATM   29  C17 UNL     1      14.201 -16.419  20.871  1.00  0.00     0.021 C 
HETATM   30  C18 UNL     1      14.149 -15.671  18.534  1.00  0.00     0.021 C 
ENDBRANCH   1  27
TORSDOF 6
ENDMDL
MODEL 5
REMARK VINA RESULT: -7.938324159      4.024      8.765
REMARK  6 active torsions:
REMARK  status: ('A' for Active; 'I' for Inactive)
REMARK    1  A    between atoms: C2_2  and  N1_5 
REMARK       I    between atoms: C5_7  and  N3_9 
REMARK    2  A    between atoms: N3_9  and  N4_11 
REMARK       I    between atoms: N4_11  and  C6_13 
REMARK    3  A    between atoms: C6_13  and  C7_15 
REMARK    4  A    between atoms: C7_15  and  N5_16 
REMARK    5  A    between atoms: C7_15  and  C15_27 
REMARK       I    between atoms: N5_16  and  C8_18 
REMARK    6  A    between atoms: C8_18  and  C9_20 
ROOT
HETATM    1  C7  UNL     1      15.442 -13.934  18.776  1.00  0.00     0.089 C 
ENDROOT
BRANCH   1   2
HETATM    2  C6  UNL     1      15.924 -13.065  17.730  1.00  0.00     0.283 C 
HETATM    3  N4  UNL     1      17.220 -12.878  17.294  1.00  0.00    -0.262 N 
ATOM      4  H4  UNL     1      17.966 -13.412  17.741  1.00  0.00     0.190 HD
HETATM    5  O1  UNL     1      15.017 -12.368  17.114  1.00  0.00    -0.265 OA
BRANCH   3   6
HETATM    6  N3  UNL     1      17.564 -11.981  16.255  1.00  0.00    -0.271 N 
HETATM    7  C5  UNL     1      18.627 -12.245  15.374  1.00  0.00     0.203 C 
HETATM    8  N1  UNL     1      18.531 -11.879  14.165  1.00  0.00    -0.355 N 
HETATM    9  N2  UNL     1      19.796 -12.901  15.831  1.00  0.00    -0.062 NA
ATOM     10  H1  UNL     1      17.659 -11.416  13.909  1.00  0.00     0.163 HD
ATOM     11  H3  UNL     1      17.028 -11.120  16.144  1.00  0.00     0.189 HD
BRANCH   8  12
HETATM   12  C2  UNL     1      19.488 -12.032  13.110  1.00  0.00     0.021 C 
HETATM   13  C1  UNL     1      19.630 -13.509  12.812  1.00  0.00     0.037 C 
HETATM   14  C3  UNL     1      20.846 -11.447  13.425  1.00  0.00     0.037 C 
HETATM   15  C4  UNL     1      18.937 -11.409  11.816  1.00  0.00     0.037 C 
ENDBRANCH   8  12
ENDBRANCH   3   6
ENDBRANCH   1   2
BRANCH   1  16
HETATM   16  N5  UNL     1      14.459 -13.261  19.641  1.00  0.00    -0.321 N 
HETATM   17  C8  UNL     1      14.706 -12.902  20.962  1.00  0.00     0.256 C 
HETATM   18  O2  UNL     1      15.830 -13.174  21.450  1.00  0.00    -0.267 OA
ATOM     19  H5  UNL     1      13.542 -13.046  19.249  1.00  0.00     0.169 HD
BRANCH  17  20
HETATM   20  C9  UNL     1      13.725 -12.234  21.777  1.00  0.00     0.032 A 
HETATM   21  C10 UNL     1      12.753 -13.002  22.425  1.00  0.00     0.018 A 
HETATM   22  C11 UNL     1      11.832 -12.361  23.204  1.00  0.00     0.025 A 
HETATM   23  C12 UNL     1      11.817 -10.979  23.382  1.00  0.00     0.034 A 
HETATM   24 CL1  UNL     1      10.609 -10.249  24.393  1.00  0.00    -0.084 Cl
HETATM   25  C13 UNL     1      12.765 -10.216  22.752  1.00  0.00     0.025 A 
HETATM   26  C14 UNL     1      13.698 -10.856  21.963  1.00  0.00     0.018 A 
ENDBRANCH  17  20
ENDBRANCH   1  16
BRANCH   1  27
HETATM   27  C15 UNL     1      15.130 -15.351  18.513  1.00  0.00    -0.003 C 
HETATM   28  C16 UNL     1      13.696 -15.701  18.916  1.00  0.00     0.021 C 
HETATM   29  C17 UNL     1      15.987 -16.200  19.470  1.00  0.00     0.021 C 
HETATM   30  C18 UNL     1      15.371 -15.804  17.127  1.00  0.00     0.021 C 
ENDBRANCH   1  27
TORSDOF 6
ENDMDL
