MODEL 1
REMARK VINA RESULT: -8.876104681      0.000      0.000
REMARK  5 active torsions:
REMARK  status: ('A' for Active; 'I' for Inactive)
REMARK    1  A    between atoms: C5_8  and  C6_10 
REMARK    2  A    between atoms: C6_10  and  N2_11 
REMARK    3  A    between atoms: C6_10  and  C11_20 
REMARK       I    between atoms: N2_11  and  C7_13 
REMARK       I    between atoms: C7_13  and  N3_15 
REMARK    4  A    between atoms: N3_15  and  C8_17 
REMARK       I    between atoms: C11_20  and  N4_22 
REMARK    5  A    between atoms: N4_22  and  C12_24 
ROOT
HETATM    1  C6  UNL     1      16.580 -12.666  18.519  1.00  0.00     0.223 C 
ENDROOT
BRANCH   1   2
HETATM    2  C5  UNL     1      15.275 -13.403  18.347  1.00  0.00     0.170 C 
HETATM    3  C1  UNL     1      14.406 -13.353  19.540  1.00  0.00     0.022 C 
HETATM    4  N1  UNL     1      14.280 -12.297  20.265  1.00  0.00    -0.403 N 
HETATM    5  C2  UNL     1      13.764 -14.664  19.700  1.00  0.00     0.056 C 
ATOM      6  H12 UNL     1      13.680 -12.262  21.089  1.00  0.00     0.155 HD
ATOM      7  H11 UNL     1      14.726 -11.387  20.154  1.00  0.00     0.155 HD
HETATM    8  C3  UNL     1      14.145 -15.465  18.502  1.00  0.00     0.010 C 
HETATM    9  C4  UNL     1      15.428 -14.822  17.975  1.00  0.00     0.053 C 
HETATM   10  F1  UNL     1      14.524 -12.799  17.329  1.00  0.00    -0.234 F 
ENDBRANCH   1   2
BRANCH   1  11
HETATM   11  N2  UNL     1      17.547 -13.573  19.108  1.00  0.00    -0.326 N 
HETATM   12  C7  UNL     1      18.192 -13.352  20.338  1.00  0.00     0.317 C 
HETATM   13  O1  UNL     1      17.886 -12.282  20.923  1.00  0.00    -0.247 OA
HETATM   14  N3  UNL     1      19.125 -14.280  20.874  1.00  0.00    -0.339 N 
ATOM     15  H3  UNL     1      19.317 -15.125  20.336  1.00  0.00     0.164 HD
ATOM     16  H2  UNL     1      17.773 -14.426  18.598  1.00  0.00     0.165 HD
BRANCH  14  17
HETATM   17  C8  UNL     1      19.813 -14.113  22.118  1.00  0.00     0.086 A 
HETATM   18  C9  UNL     1      21.203 -14.472  22.354  1.00  0.00     0.027 A 
HETATM   19  C10 UNL     1      20.124 -15.433  22.830  1.00  0.00     0.027 A 
ENDBRANCH  14  17
ENDBRANCH   1  11
BRANCH   1  20
HETATM   20  C11 UNL     1      17.034 -12.215  17.171  1.00  0.00     0.244 C 
HETATM   21  O2  UNL     1      16.485 -11.158  16.737  1.00  0.00    -0.271 OA
HETATM   22  N4  UNL     1      17.998 -12.930  16.453  1.00  0.00    -0.350 N 
ATOM     23  H4  UNL     1      18.380 -13.774  16.880  1.00  0.00     0.163 HD
BRANCH  22  24
HETATM   24  C12 UNL     1      18.492 -12.554  15.144  1.00  0.00     0.034 C 
HETATM   25  C13 UNL     1      18.624 -11.079  14.954  1.00  0.00     0.035 C 
HETATM   26  C14 UNL     1      19.143 -10.835  13.554  1.00  0.00    -0.012 C 
HETATM   27  C15 UNL     1      18.231 -11.425  12.494  1.00  0.00     0.009 C 
HETATM   28  C19 UNL     1      20.509 -11.452  13.345  1.00  0.00     0.009 C 
HETATM   29  C16 UNL     1      18.113 -12.916  12.700  1.00  0.00    -0.012 C 
HETATM   30  C17 UNL     1      19.440 -13.591  12.573  1.00  0.00     0.009 C 
HETATM   31  C21 UNL     1      17.568 -13.123  14.102  1.00  0.00     0.035 C 
HETATM   32  C18 UNL     1      20.387 -12.938  13.555  1.00  0.00    -0.012 C 
HETATM   33  C20 UNL     1      19.850 -13.180  14.928  1.00  0.00     0.035 C 
ENDBRANCH  22  24
ENDBRANCH   1  20
TORSDOF 5
ENDMDL
MODEL 2
REMARK VINA RESULT: -8.733108621      2.057      3.976
REMARK  5 active torsions:
REMARK  status: ('A' for Active; 'I' for Inactive)
REMARK    1  A    between atoms: C5_8  and  C6_10 
REMARK    2  A    between atoms: C6_10  and  N2_11 
REMARK    3  A    between atoms: C6_10  and  C11_20 
REMARK       I    between atoms: N2_11  and  C7_13 
REMARK       I    between atoms: C7_13  and  N3_15 
REMARK    4  A    between atoms: N3_15  and  C8_17 
REMARK       I    between atoms: C11_20  and  N4_22 
REMARK    5  A    between atoms: N4_22  and  C12_24 
ROOT
HETATM    1  C6  UNL     1      16.661 -13.354  18.950  1.00  0.00     0.223 C 
ENDROOT
BRANCH   1   2
HETATM    2  C5  UNL     1      17.864 -13.986  19.605  1.00  0.00     0.170 C 
HETATM    3  C1  UNL     1      17.520 -14.916  20.699  1.00  0.00     0.022 C 
HETATM    4  N1  UNL     1      16.516 -15.720  20.640  1.00  0.00    -0.403 N 
HETATM    5  C2  UNL     1      18.500 -14.744  21.779  1.00  0.00     0.056 C 
ATOM      6  H12 UNL     1      16.278 -16.362  21.396  1.00  0.00     0.155 HD
ATOM      7  H11 UNL     1      15.835 -15.839  19.890  1.00  0.00     0.155 HD
HETATM    8  C3  UNL     1      19.529 -13.798  21.262  1.00  0.00     0.010 C 
HETATM    9  C4  UNL     1      18.839 -13.018  20.142  1.00  0.00     0.053 C 
HETATM   10  F1  UNL     1      18.551 -14.771  18.668  1.00  0.00    -0.234 F 
ENDBRANCH   1   2
BRANCH   1  11
HETATM   11  N2  UNL     1      16.139 -12.331  19.836  1.00  0.00    -0.326 N 
HETATM   12  C7  UNL     1      14.914 -12.427  20.519  1.00  0.00     0.317 C 
HETATM   13  O1  UNL     1      14.260 -13.480  20.309  1.00  0.00    -0.247 OA
HETATM   14  N3  UNL     1      14.454 -11.398  21.385  1.00  0.00    -0.339 N 
ATOM     15  H3  UNL     1      15.046 -10.575  21.500  1.00  0.00     0.164 HD
ATOM     16  H2  UNL     1      16.697 -11.489  19.974  1.00  0.00     0.165 HD
BRANCH  14  17
HETATM   17  C8  UNL     1      13.218 -11.436  22.107  1.00  0.00     0.086 A 
HETATM   18  C9  UNL     1      12.020 -10.696  21.744  1.00  0.00     0.027 A 
HETATM   19  C10 UNL     1      12.902 -10.135  22.850  1.00  0.00     0.027 A 
ENDBRANCH  14  17
ENDBRANCH   1  11
BRANCH   1  20
HETATM   20  C11 UNL     1      17.105 -12.754  17.657  1.00  0.00     0.244 C 
HETATM   21  O2  UNL     1      16.656 -11.593  17.413  1.00  0.00    -0.271 OA
HETATM   22  N4  UNL     1      17.957 -13.446  16.790  1.00  0.00    -0.350 N 
ATOM     23  H4  UNL     1      18.262 -14.378  17.069  1.00  0.00     0.163 HD
BRANCH  22  24
HETATM   24  C12 UNL     1      18.435 -12.929  15.525  1.00  0.00     0.034 C 
HETATM   25  C13 UNL     1      18.324 -11.445  15.402  1.00  0.00     0.035 C 
HETATM   26  C14 UNL     1      18.853 -11.050  14.041  1.00  0.00    -0.012 C 
HETATM   27  C15 UNL     1      18.100 -11.730  12.914  1.00  0.00     0.009 C 
HETATM   28  C19 UNL     1      20.311 -11.419  13.875  1.00  0.00     0.009 C 
HETATM   29  C16 UNL     1      18.226 -13.228  13.052  1.00  0.00    -0.012 C 
HETATM   30  C17 UNL     1      19.651 -13.665  12.963  1.00  0.00     0.009 C 
HETATM   31  C21 UNL     1      17.665 -13.591  14.415  1.00  0.00     0.035 C 
HETATM   32  C18 UNL     1      20.433 -12.913  14.017  1.00  0.00    -0.012 C 
HETATM   33  C20 UNL     1      19.887 -13.309  15.351  1.00  0.00     0.035 C 
ENDBRANCH  22  24
ENDBRANCH   1  20
TORSDOF 5
ENDMDL
MODEL 3
REMARK VINA RESULT: -8.711165791      0.271      1.338
REMARK  5 active torsions:
REMARK  status: ('A' for Active; 'I' for Inactive)
REMARK    1  A    between atoms: C5_8  and  C6_10 
REMARK    2  A    between atoms: C6_10  and  N2_11 
REMARK    3  A    between atoms: C6_10  and  C11_20 
REMARK       I    between atoms: N2_11  and  C7_13 
REMARK       I    between atoms: C7_13  and  N3_15 
REMARK    4  A    between atoms: N3_15  and  C8_17 
REMARK       I    between atoms: C11_20  and  N4_22 
REMARK    5  A    between atoms: N4_22  and  C12_24 
ROOT
HETATM    1  C6  UNL     1      16.651 -12.603  18.423  1.00  0.00     0.223 C 
ENDROOT
BRANCH   1   2
HETATM    2  C5  UNL     1      15.343 -13.352  18.351  1.00  0.00     0.170 C 
HETATM    3  C1  UNL     1      14.586 -13.343  19.618  1.00  0.00     0.022 C 
HETATM    4  N1  UNL     1      14.516 -12.308  20.381  1.00  0.00    -0.403 N 
HETATM    5  C2  UNL     1      13.974 -14.665  19.802  1.00  0.00     0.056 C 
ATOM      6  H12 UNL     1      13.994 -12.302  21.257  1.00  0.00     0.155 HD
ATOM      7  H11 UNL     1      14.942 -11.390  20.253  1.00  0.00     0.155 HD
HETATM    8  C3  UNL     1      14.251 -15.430  18.553  1.00  0.00     0.010 C 
HETATM    9  C4  UNL     1      15.474 -14.759  17.928  1.00  0.00     0.053 C 
HETATM   10  F1  UNL     1      14.496 -12.730  17.422  1.00  0.00    -0.234 F 
ENDBRANCH   1   2
BRANCH   1  11
HETATM   11  N2  UNL     1      17.658 -13.489  18.975  1.00  0.00    -0.326 N 
HETATM   12  C7  UNL     1      18.251 -13.322  20.239  1.00  0.00     0.317 C 
HETATM   13  O1  UNL     1      17.858 -12.322  20.892  1.00  0.00    -0.247 OA
HETATM   14  N3  UNL     1      19.227 -14.227  20.737  1.00  0.00    -0.339 N 
ATOM     15  H3  UNL     1      19.490 -15.014  20.143  1.00  0.00     0.164 HD
ATOM     16  H2  UNL     1      17.955 -14.285  18.411  1.00  0.00     0.165 HD
BRANCH  14  17
HETATM   17  C8  UNL     1      19.866 -14.112  22.012  1.00  0.00     0.086 A 
HETATM   18  C9  UNL     1      21.247 -14.478  22.286  1.00  0.00     0.027 A 
HETATM   19  C10 UNL     1      20.154 -15.461  22.679  1.00  0.00     0.027 A 
ENDBRANCH  14  17
ENDBRANCH   1  11
BRANCH   1  20
HETATM   20  C11 UNL     1      17.018 -12.187  17.038  1.00  0.00     0.244 C 
HETATM   21  O2  UNL     1      16.497 -11.101  16.639  1.00  0.00    -0.271 OA
HETATM   22  N4  UNL     1      17.878 -12.960  16.251  1.00  0.00    -0.350 N 
ATOM     23  H4  UNL     1      18.244 -13.822  16.654  1.00  0.00     0.163 HD
BRANCH  22  24
HETATM   24  C12 UNL     1      18.284 -12.620  14.903  1.00  0.00     0.034 C 
HETATM   25  C13 UNL     1      17.244 -12.909  13.872  1.00  0.00     0.035 C 
HETATM   26  C14 UNL     1      17.801 -12.510  12.523  1.00  0.00    -0.012 C 
HETATM   27  C15 UNL     1      19.088 -13.243  12.196  1.00  0.00     0.009 C 
HETATM   28  C19 UNL     1      18.115 -11.031  12.460  1.00  0.00     0.009 C 
HETATM   29  C16 UNL     1      20.128 -12.935  13.245  1.00  0.00    -0.012 C 
HETATM   30  C17 UNL     1      20.444 -11.476  13.288  1.00  0.00     0.009 C 
HETATM   31  C21 UNL     1      19.547 -13.370  14.579  1.00  0.00     0.035 C 
HETATM   32  C18 UNL     1      19.149 -10.728  13.511  1.00  0.00    -0.012 C 
HETATM   33  C20 UNL     1      18.611 -11.146  14.841  1.00  0.00     0.035 C 
ENDBRANCH  22  24
ENDBRANCH   1  20
TORSDOF 5
ENDMDL
MODEL 4
REMARK VINA RESULT: -8.706518662      1.950      3.996
REMARK  5 active torsions:
REMARK  status: ('A' for Active; 'I' for Inactive)
REMARK    1  A    between atoms: C5_8  and  C6_10 
REMARK    2  A    between atoms: C6_10  and  N2_11 
REMARK    3  A    between atoms: C6_10  and  C11_20 
REMARK       I    between atoms: N2_11  and  C7_13 
REMARK       I    between atoms: C7_13  and  N3_15 
REMARK    4  A    between atoms: N3_15  and  C8_17 
REMARK       I    between atoms: C11_20  and  N4_22 
REMARK    5  A    between atoms: N4_22  and  C12_24 
ROOT
HETATM    1  C6  UNL     1      17.449 -13.537  18.586  1.00  0.00     0.223 C 
ENDROOT
BRANCH   1   2
HETATM    2  C5  UNL     1      18.822 -14.013  18.991  1.00  0.00     0.170 C 
HETATM    3  C1  UNL     1      18.800 -15.141  19.943  1.00  0.00     0.022 C 
HETATM    4  N1  UNL     1      17.953 -16.107  19.859  1.00  0.00    -0.403 N 
HETATM    5  C2  UNL     1      19.874 -14.940  20.924  1.00  0.00     0.056 C 
ATOM      6  H12 UNL     1      17.937 -16.886  20.517  1.00  0.00     0.155 HD
ATOM      7  H11 UNL     1      17.206 -16.246  19.177  1.00  0.00     0.155 HD
HETATM    8  C3  UNL     1      20.640 -13.747  20.466  1.00  0.00     0.010 C 
HETATM    9  C4  UNL     1      19.677 -12.962  19.575  1.00  0.00     0.053 C 
HETATM   10  F1  UNL     1      19.500 -14.504  17.867  1.00  0.00    -0.234 F 
ENDBRANCH   1   2
BRANCH   1  11
HETATM   11  N2  UNL     1      16.946 -12.650  19.617  1.00  0.00    -0.326 N 
HETATM   12  C7  UNL     1      15.658 -12.734  20.175  1.00  0.00     0.317 C 
HETATM   13  O1  UNL     1      14.928 -13.647  19.711  1.00  0.00    -0.247 OA
HETATM   14  N3  UNL     1      15.220 -11.844  21.192  1.00  0.00    -0.339 N 
ATOM     15  H3  UNL     1      15.875 -11.130  21.512  1.00  0.00     0.164 HD
ATOM     16  H2  UNL     1      17.567 -11.918  19.961  1.00  0.00     0.165 HD
BRANCH  14  17
HETATM   17  C8  UNL     1      13.924 -11.878  21.798  1.00  0.00     0.086 A 
HETATM   18  C9  UNL     1      12.693 -11.448  21.154  1.00  0.00     0.027 A 
HETATM   19  C10 UNL     1      13.363 -10.491  22.128  1.00  0.00     0.027 A 
ENDBRANCH  14  17
ENDBRANCH   1  11
BRANCH   1  20
HETATM   20  C11 UNL     1      17.578 -12.815  17.286  1.00  0.00     0.244 C 
HETATM   21  O2  UNL     1      16.974 -11.702  17.219  1.00  0.00    -0.271 OA
HETATM   22  N4  UNL     1      18.320 -13.350  16.228  1.00  0.00    -0.350 N 
ATOM     23  H4  UNL     1      18.767 -14.255  16.372  1.00  0.00     0.163 HD
BRANCH  22  24
HETATM   24  C12 UNL     1      18.496 -12.708  14.943  1.00  0.00     0.034 C 
HETATM   25  C13 UNL     1      18.768 -11.243  15.036  1.00  0.00     0.035 C 
HETATM   26  C14 UNL     1      18.927 -10.708  13.630  1.00  0.00    -0.012 C 
HETATM   27  C15 UNL     1      17.698 -10.963  12.778  1.00  0.00     0.009 C 
HETATM   28  C19 UNL     1      20.095 -11.349  12.912  1.00  0.00     0.009 C 
HETATM   29  C16 UNL     1      17.442 -12.448  12.691  1.00  0.00    -0.012 C 
HETATM   30  C17 UNL     1      18.585 -13.163  12.050  1.00  0.00     0.009 C 
HETATM   31  C21 UNL     1      17.263 -12.946  14.115  1.00  0.00     0.035 C 
HETATM   32  C18 UNL     1      19.837 -12.830  12.832  1.00  0.00    -0.012 C 
HETATM   33  C20 UNL     1      19.653 -13.356  14.219  1.00  0.00     0.035 C 
ENDBRANCH  22  24
ENDBRANCH   1  20
TORSDOF 5
ENDMDL
MODEL 5
REMARK VINA RESULT: -8.664417452      0.258      1.449
REMARK  5 active torsions:
REMARK  status: ('A' for Active; 'I' for Inactive)
REMARK    1  A    between atoms: C5_8  and  C6_10 
REMARK    2  A    between atoms: C6_10  and  N2_11 
REMARK    3  A    between atoms: C6_10  and  C11_20 
REMARK       I    between atoms: N2_11  and  C7_13 
REMARK       I    between atoms: C7_13  and  N3_15 
REMARK    4  A    between atoms: N3_15  and  C8_17 
REMARK       I    between atoms: C11_20  and  N4_22 
REMARK    5  A    between atoms: N4_22  and  C12_24 
ROOT
HETATM    1  C6  UNL     1      16.669 -12.595  18.414  1.00  0.00     0.223 C 
ENDROOT
BRANCH   1   2
HETATM    2  C5  UNL     1      15.331 -13.290  18.351  1.00  0.00     0.170 C 
HETATM    3  C1  UNL     1      14.594 -13.271  19.629  1.00  0.00     0.022 C 
HETATM    4  N1  UNL     1      14.575 -12.245  20.407  1.00  0.00    -0.403 N 
HETATM    5  C2  UNL     1      13.932 -14.570  19.802  1.00  0.00     0.056 C 
ATOM      6  H12 UNL     1      14.066 -12.231  21.291  1.00  0.00     0.155 HD
ATOM      7  H11 UNL     1      15.035 -11.342  20.287  1.00  0.00     0.155 HD
HETATM    8  C3  UNL     1      14.161 -15.326  18.539  1.00  0.00     0.010 C 
HETATM    9  C4  UNL     1      15.401 -14.694  17.905  1.00  0.00     0.053 C 
HETATM   10  F1  UNL     1      14.497 -12.622  17.443  1.00  0.00    -0.234 F 
ENDBRANCH   1   2
BRANCH   1  11
HETATM   11  N2  UNL     1      17.634 -13.507  18.998  1.00  0.00    -0.326 N 
HETATM   12  C7  UNL     1      18.252 -13.314  20.246  1.00  0.00     0.317 C 
HETATM   13  O1  UNL     1      17.922 -12.263  20.854  1.00  0.00    -0.247 OA
HETATM   14  N3  UNL     1      19.185 -14.246  20.775  1.00  0.00    -0.339 N 
ATOM     15  H3  UNL     1      19.398 -15.073  20.217  1.00  0.00     0.164 HD
ATOM     16  H2  UNL     1      17.880 -14.343  18.469  1.00  0.00     0.165 HD
BRANCH  14  17
HETATM   17  C8  UNL     1      19.846 -14.106  22.037  1.00  0.00     0.086 A 
HETATM   18  C9  UNL     1      21.228 -14.478  22.297  1.00  0.00     0.027 A 
HETATM   19  C10 UNL     1      20.133 -15.441  22.731  1.00  0.00     0.027 A 
ENDBRANCH  14  17
ENDBRANCH   1  11
BRANCH   1  20
HETATM   20  C11 UNL     1      17.063 -12.230  17.022  1.00  0.00     0.244 C 
HETATM   21  O2  UNL     1      16.418 -11.266  16.508  1.00  0.00    -0.271 OA
HETATM   22  N4  UNL     1      18.077 -12.920  16.350  1.00  0.00    -0.350 N 
ATOM     23  H4  UNL     1      18.536 -13.686  16.842  1.00  0.00     0.163 HD
BRANCH  22  24
HETATM   24  C12 UNL     1      18.518 -12.622  15.003  1.00  0.00     0.034 C 
HETATM   25  C13 UNL     1      19.781 -13.318  14.617  1.00  0.00     0.035 C 
HETATM   26  C14 UNL     1      20.120 -12.916  13.199  1.00  0.00    -0.012 C 
HETATM   27  C15 UNL     1      20.279 -11.414  13.052  1.00  0.00     0.009 C 
HETATM   28  C19 UNL     1      19.044 -13.337  12.222  1.00  0.00     0.009 C 
HETATM   29  C16 UNL     1      18.992 -10.729  13.442  1.00  0.00    -0.012 C 
HETATM   30  C17 UNL     1      17.862 -11.147  12.559  1.00  0.00     0.009 C 
HETATM   31  C21 UNL     1      18.696 -11.134  14.875  1.00  0.00     0.035 C 
HETATM   32  C18 UNL     1      17.762 -12.655  12.617  1.00  0.00    -0.012 C 
HETATM   33  C20 UNL     1      17.439 -13.030  14.027  1.00  0.00     0.035 C 
ENDBRANCH  22  24
ENDBRANCH   1  20
TORSDOF 5
ENDMDL
