MODEL 1
REMARK VINA RESULT: -8.895988617      0.000      0.000
REMARK  7 active torsions:
REMARK  status: ('A' for Active; 'I' for Inactive)
REMARK    1  A    between atoms: C2_2  and  C3_3 
REMARK    2  A    between atoms: C2_2  and  C10_11 
REMARK    3  A    between atoms: C3_3  and  C4_4 
REMARK       I    between atoms: C10_11  and  N1_13 
REMARK    4  A    between atoms: N1_13  and  N2_15 
REMARK       I    between atoms: N2_15  and  C11_17 
REMARK       I    between atoms: C11_17  and  N3_19 
REMARK    5  A    between atoms: N3_19  and  C12_21 
REMARK    6  A    between atoms: C12_21  and  N4_23 
REMARK    7  A    between atoms: N4_23  and  C13_25 
ROOT
HETATM    1  N2  UNL     1      16.611 -14.599  21.365  1.00  0.00    -0.248 N 
ATOM      2  H2  UNL     1      16.712 -14.520  22.377  1.00  0.00     0.192 HD
HETATM    3  C11 UNL     1      15.307 -14.761  20.939  1.00  0.00     0.341 C 
HETATM    4  O2  UNL     1      14.960 -14.897  19.758  1.00  0.00    -0.245 OA
HETATM    5  N3  UNL     1      14.266 -14.764  21.946  1.00  0.00    -0.284 N 
ATOM      6  H3  UNL     1      14.541 -14.663  22.923  1.00  0.00     0.173 HD
ENDROOT
BRANCH   1   7
HETATM    7  N1  UNL     1      17.782 -14.526  20.686  1.00  0.00    -0.262 N 
HETATM    8  C10 UNL     1      18.605 -13.404  20.489  1.00  0.00     0.265 C 
HETATM    9  O1  UNL     1      18.326 -12.237  20.928  1.00  0.00    -0.266 OA
ATOM     10  H1  UNL     1      18.106 -15.395  20.263  1.00  0.00     0.190 HD
BRANCH   8  11
HETATM   11  C2  UNL     1      19.862 -13.572  19.737  1.00  0.00     0.006 C 
HETATM   12  C1  UNL     1      20.931 -12.939  20.059  1.00  0.00     0.025 C 
BRANCH  11  13
HETATM   13  C3  UNL     1      19.872 -14.469  18.554  1.00  0.00     0.082 C 
BRANCH  13  14
HETATM   14  C4  UNL     1      19.535 -13.609  17.360  1.00  0.00    -0.054 A 
HETATM   15  C5  UNL     1      18.308 -13.099  17.106  1.00  0.00     0.009 A 
HETATM   16  C6  UNL     1      18.003 -12.335  15.976  1.00  0.00     0.024 A 
HETATM   17  C7  UNL     1      19.027 -12.105  15.092  1.00  0.00     0.034 A 
HETATM   18 CL1  UNL     1      18.732 -11.179  13.642  1.00  0.00    -0.084 Cl
HETATM   19  C8  UNL     1      20.286 -12.611  15.330  1.00  0.00     0.024 A 
HETATM   20  C9  UNL     1      20.562 -13.351  16.432  1.00  0.00     0.009 A 
ENDBRANCH  13  14
ENDBRANCH  11  13
ENDBRANCH   8  11
ENDBRANCH   1   7
BRANCH   5  21
HETATM   21  C12 UNL     1      12.897 -14.898  21.652  1.00  0.00     0.180 C 
HETATM   22  S1  UNL     1      12.310 -16.459  21.434  1.00  0.00    -0.040 SA
BRANCH  21  23
HETATM   23  N4  UNL     1      12.028 -13.821  21.450  1.00  0.00    -0.333 N 
ATOM     24  H4  UNL     1      11.371 -13.897  20.673  1.00  0.00     0.168 HD
BRANCH  23  25
HETATM   25  C13 UNL     1      11.975 -12.658  22.204  1.00  0.00     0.034 A 
HETATM   26  C14 UNL     1      11.256 -12.459  23.350  1.00  0.00     0.029 A 
HETATM   27  C15 UNL     1      11.236 -11.259  24.035  1.00  0.00     0.002 A 
HETATM   28  C16 UNL     1      11.974 -10.223  23.543  1.00  0.00     0.000 A 
HETATM   29  C17 UNL     1      12.727 -10.364  22.382  1.00  0.00     0.002 A 
HETATM   30  C18 UNL     1      12.723 -11.568  21.728  1.00  0.00     0.029 A 
ENDBRANCH  23  25
ENDBRANCH  21  23
ENDBRANCH   5  21
TORSDOF 7
ENDMDL
MODEL 2
REMARK VINA RESULT: -8.871760638      3.516      5.095
REMARK  7 active torsions:
REMARK  status: ('A' for Active; 'I' for Inactive)
REMARK    1  A    between atoms: C2_2  and  C3_3 
REMARK    2  A    between atoms: C2_2  and  C10_11 
REMARK    3  A    between atoms: C3_3  and  C4_4 
REMARK       I    between atoms: C10_11  and  N1_13 
REMARK    4  A    between atoms: N1_13  and  N2_15 
REMARK       I    between atoms: N2_15  and  C11_17 
REMARK       I    between atoms: C11_17  and  N3_19 
REMARK    5  A    between atoms: N3_19  and  C12_21 
REMARK    6  A    between atoms: C12_21  and  N4_23 
REMARK    7  A    between atoms: N4_23  and  C13_25 
ROOT
HETATM    1  N2  UNL     1      16.416 -14.352  19.951  1.00  0.00    -0.248 N 
ATOM      2  H2  UNL     1      16.078 -13.966  19.069  1.00  0.00     0.192 HD
HETATM    3  C11 UNL     1      15.411 -14.725  20.824  1.00  0.00     0.341 C 
HETATM    4  O2  UNL     1      15.596 -15.195  21.956  1.00  0.00    -0.245 OA
HETATM    5  N3  UNL     1      14.041 -14.560  20.384  1.00  0.00    -0.284 N 
ATOM      6  H3  UNL     1      13.878 -14.164  19.458  1.00  0.00     0.173 HD
ENDROOT
BRANCH   1   7
HETATM    7  N1  UNL     1      17.766 -14.406  20.051  1.00  0.00    -0.262 N 
HETATM    8  C10 UNL     1      18.645 -13.406  20.499  1.00  0.00     0.265 C 
HETATM    9  O1  UNL     1      18.265 -12.243  20.867  1.00  0.00    -0.266 OA
ATOM     10  H1  UNL     1      18.199 -15.283  19.763  1.00  0.00     0.190 HD
BRANCH   8  11
HETATM   11  C2  UNL     1      20.088 -13.706  20.553  1.00  0.00     0.006 C 
HETATM   12  C1  UNL     1      20.960 -12.927  20.024  1.00  0.00     0.025 C 
BRANCH  11  13
HETATM   13  C3  UNL     1      20.532 -14.963  21.206  1.00  0.00     0.082 C 
BRANCH  13  14
HETATM   14  C4  UNL     1      20.761 -14.635  22.662  1.00  0.00    -0.054 A 
HETATM   15  C5  UNL     1      21.977 -14.584  23.252  1.00  0.00     0.009 A 
HETATM   16  C6  UNL     1      22.170 -14.316  24.611  1.00  0.00     0.024 A 
HETATM   17  C7  UNL     1      21.043 -14.093  25.361  1.00  0.00     0.034 A 
HETATM   18 CL1  UNL     1      21.188 -13.772  27.072  1.00  0.00    -0.084 Cl
HETATM   19  C8  UNL     1      19.794 -14.137  24.782  1.00  0.00     0.024 A 
HETATM   20  C9  UNL     1      19.627 -14.400  23.463  1.00  0.00     0.009 A 
ENDBRANCH  13  14
ENDBRANCH  11  13
ENDBRANCH   8  11
ENDBRANCH   1   7
BRANCH   5  21
HETATM   21  C12 UNL     1      12.925 -14.916  21.161  1.00  0.00     0.180 C 
HETATM   22  S1  UNL     1      11.897 -16.089  20.532  1.00  0.00    -0.040 SA
BRANCH  21  23
HETATM   23  N4  UNL     1      12.579 -14.299  22.368  1.00  0.00    -0.333 N 
ATOM     24  H4  UNL     1      12.410 -14.910  23.167  1.00  0.00     0.168 HD
BRANCH  23  25
HETATM   25  C13 UNL     1      12.443 -12.935  22.581  1.00  0.00     0.034 A 
HETATM   26  C14 UNL     1      13.213 -11.943  22.041  1.00  0.00     0.029 A 
HETATM   27  C15 UNL     1      13.030 -10.602  22.322  1.00  0.00     0.002 A 
HETATM   28  C16 UNL     1      12.028 -10.253  23.179  1.00  0.00     0.000 A 
HETATM   29  C17 UNL     1      11.210 -11.217  23.759  1.00  0.00     0.002 A 
HETATM   30  C18 UNL     1      11.421 -12.537  23.459  1.00  0.00     0.029 A 
ENDBRANCH  23  25
ENDBRANCH  21  23
ENDBRANCH   5  21
TORSDOF 7
ENDMDL
MODEL 3
REMARK VINA RESULT: -8.730712687      2.412      3.438
REMARK  7 active torsions:
REMARK  status: ('A' for Active; 'I' for Inactive)
REMARK    1  A    between atoms: C2_2  and  C3_3 
REMARK    2  A    between atoms: C2_2  and  C10_11 
REMARK    3  A    between atoms: C3_3  and  C4_4 
REMARK       I    between atoms: C10_11  and  N1_13 
REMARK    4  A    between atoms: N1_13  and  N2_15 
REMARK       I    between atoms: N2_15  and  C11_17 
REMARK       I    between atoms: C11_17  and  N3_19 
REMARK    5  A    between atoms: N3_19  and  C12_21 
REMARK    6  A    between atoms: C12_21  and  N4_23 
REMARK    7  A    between atoms: N4_23  and  C13_25 
ROOT
HETATM    1  N2  UNL     1      16.378 -14.802  22.870  1.00  0.00    -0.248 N 
ATOM      2  H2  UNL     1      16.019 -15.626  23.353  1.00  0.00     0.192 HD
HETATM    3  C11 UNL     1      15.461 -14.196  22.033  1.00  0.00     0.341 C 
HETATM    4  O2  UNL     1      15.692 -13.198  21.336  1.00  0.00    -0.245 OA
HETATM    5  N3  UNL     1      14.130 -14.763  21.969  1.00  0.00    -0.284 N 
ATOM      6  H3  UNL     1      13.932 -15.591  22.530  1.00  0.00     0.173 HD
ENDROOT
BRANCH   1   7
HETATM    7  N1  UNL     1      17.666 -14.504  23.167  1.00  0.00    -0.262 N 
HETATM    8  C10 UNL     1      18.658 -15.354  23.686  1.00  0.00     0.265 C 
HETATM    9  O1  UNL     1      18.454 -16.579  23.985  1.00  0.00    -0.266 OA
ATOM     10  H1  UNL     1      17.952 -13.541  22.993  1.00  0.00     0.190 HD
BRANCH   8  11
HETATM   11  C2  UNL     1      20.013 -14.812  23.899  1.00  0.00     0.006 C 
HETATM   12  C1  UNL     1      20.251 -13.923  24.793  1.00  0.00     0.025 C 
BRANCH  11  13
HETATM   13  C3  UNL     1      21.117 -15.284  23.026  1.00  0.00     0.082 C 
BRANCH  13  14
HETATM   14  C4  UNL     1      20.756 -14.874  21.618  1.00  0.00    -0.054 A 
HETATM   15  C5  UNL     1      20.225 -15.704  20.691  1.00  0.00     0.009 A 
HETATM   16  C6  UNL     1      19.932 -15.319  19.380  1.00  0.00     0.024 A 
HETATM   17  C7  UNL     1      20.208 -14.017  19.044  1.00  0.00     0.034 A 
HETATM   18 CL1  UNL     1      19.894 -13.454  17.421  1.00  0.00    -0.084 Cl
HETATM   19  C8  UNL     1      20.746 -13.152  19.970  1.00  0.00     0.024 A 
HETATM   20  C9  UNL     1      21.025 -13.545  21.237  1.00  0.00     0.009 A 
ENDBRANCH  13  14
ENDBRANCH  11  13
ENDBRANCH   8  11
ENDBRANCH   1   7
BRANCH   5  21
HETATM   21  C12 UNL     1      13.095 -14.235  21.176  1.00  0.00     0.180 C 
HETATM   22  S1  UNL     1      12.243 -15.316  20.211  1.00  0.00    -0.040 SA
BRANCH  21  23
HETATM   23  N4  UNL     1      12.795 -12.872  21.082  1.00  0.00    -0.333 N 
ATOM     24  H4  UNL     1      12.930 -12.431  20.172  1.00  0.00     0.168 HD
BRANCH  23  25
HETATM   25  C13 UNL     1      12.332 -12.063  22.109  1.00  0.00     0.034 A 
HETATM   26  C14 UNL     1      12.688 -10.765  22.351  1.00  0.00     0.029 A 
HETATM   27  C15 UNL     1      12.199 -10.029  23.414  1.00  0.00     0.002 A 
HETATM   28  C16 UNL     1      11.314 -10.628  24.261  1.00  0.00     0.000 A 
HETATM   29  C17 UNL     1      10.913 -11.946  24.067  1.00  0.00     0.002 A 
HETATM   30  C18 UNL     1      11.419 -12.646  23.004  1.00  0.00     0.029 A 
ENDBRANCH  23  25
ENDBRANCH  21  23
ENDBRANCH   5  21
TORSDOF 7
ENDMDL
MODEL 4
REMARK VINA RESULT: -8.514114571      2.453      3.599
REMARK  7 active torsions:
REMARK  status: ('A' for Active; 'I' for Inactive)
REMARK    1  A    between atoms: C2_2  and  C3_3 
REMARK    2  A    between atoms: C2_2  and  C10_11 
REMARK    3  A    between atoms: C3_3  and  C4_4 
REMARK       I    between atoms: C10_11  and  N1_13 
REMARK    4  A    between atoms: N1_13  and  N2_15 
REMARK       I    between atoms: N2_15  and  C11_17 
REMARK       I    between atoms: C11_17  and  N3_19 
REMARK    5  A    between atoms: N3_19  and  C12_21 
REMARK    6  A    between atoms: C12_21  and  N4_23 
REMARK    7  A    between atoms: N4_23  and  C13_25 
ROOT
HETATM    1  N2  UNL     1      15.028 -14.254  17.974  1.00  0.00    -0.248 N 
ATOM      2  H2  UNL     1      14.186 -14.267  17.399  1.00  0.00     0.192 HD
HETATM    3  C11 UNL     1      14.806 -14.551  19.305  1.00  0.00     0.341 C 
HETATM    4  O2  UNL     1      15.682 -14.571  20.181  1.00  0.00    -0.245 OA
HETATM    5  N3  UNL     1      13.451 -14.869  19.707  1.00  0.00    -0.284 N 
ATOM      6  H3  UNL     1      12.720 -14.845  18.996  1.00  0.00     0.173 HD
ENDROOT
BRANCH   1   7
HETATM    7  N1  UNL     1      16.159 -13.950  17.292  1.00  0.00    -0.262 N 
HETATM    8  C10 UNL     1      16.990 -12.828  17.443  1.00  0.00     0.265 C 
HETATM    9  O1  UNL     1      16.759 -11.884  18.272  1.00  0.00    -0.266 OA
ATOM     10  H1  UNL     1      16.442 -14.621  16.578  1.00  0.00     0.190 HD
BRANCH   8  11
HETATM   11  C2  UNL     1      18.199 -12.725  16.605  1.00  0.00     0.006 C 
HETATM   12  C1  UNL     1      18.382 -11.741  15.801  1.00  0.00     0.025 C 
BRANCH  11  13
HETATM   13  C3  UNL     1      19.207 -13.812  16.669  1.00  0.00     0.082 C 
BRANCH  13  14
HETATM   14  C4  UNL     1      19.690 -13.867  18.099  1.00  0.00    -0.054 A 
HETATM   15  C5  UNL     1      20.520 -12.958  18.661  1.00  0.00     0.009 A 
HETATM   16  C6  UNL     1      20.989 -13.043  19.975  1.00  0.00     0.024 A 
HETATM   17  C7  UNL     1      20.564 -14.119  20.713  1.00  0.00     0.034 A 
HETATM   18 CL1  UNL     1      21.116 -14.317  22.358  1.00  0.00    -0.084 Cl
HETATM   19  C8  UNL     1      19.717 -15.056  20.164  1.00  0.00     0.024 A 
HETATM   20  C9  UNL     1      19.274 -14.958  18.887  1.00  0.00     0.009 A 
ENDBRANCH  13  14
ENDBRANCH  11  13
ENDBRANCH   8  11
ENDBRANCH   1   7
BRANCH   5  21
HETATM   21  C12 UNL     1      13.087 -15.209  21.022  1.00  0.00     0.180 C 
HETATM   22  S1  UNL     1      12.224 -16.636  21.234  1.00  0.00    -0.040 SA
BRANCH  21  23
HETATM   23  N4  UNL     1      13.324 -14.397  22.136  1.00  0.00    -0.333 N 
ATOM     24  H4  UNL     1      13.788 -14.832  22.934  1.00  0.00     0.168 HD
BRANCH  23  25
HETATM   25  C13 UNL     1      12.986 -13.058  22.261  1.00  0.00     0.034 A 
HETATM   26  C14 UNL     1      13.684 -11.989  21.769  1.00  0.00     0.029 A 
HETATM   27  C15 UNL     1      13.294 -10.677  21.955  1.00  0.00     0.002 A 
HETATM   28  C16 UNL     1      12.153 -10.437  22.663  1.00  0.00     0.000 A 
HETATM   29  C17 UNL     1      11.400 -11.481  23.188  1.00  0.00     0.002 A 
HETATM   30  C18 UNL     1      11.817 -12.770  22.985  1.00  0.00     0.029 A 
ENDBRANCH  23  25
ENDBRANCH  21  23
ENDBRANCH   5  21
TORSDOF 7
ENDMDL
MODEL 5
REMARK VINA RESULT: -8.491265787      4.123      9.349
REMARK  7 active torsions:
REMARK  status: ('A' for Active; 'I' for Inactive)
REMARK    1  A    between atoms: C2_2  and  C3_3 
REMARK    2  A    between atoms: C2_2  and  C10_11 
REMARK    3  A    between atoms: C3_3  and  C4_4 
REMARK       I    between atoms: C10_11  and  N1_13 
REMARK    4  A    between atoms: N1_13  and  N2_15 
REMARK       I    between atoms: N2_15  and  C11_17 
REMARK       I    between atoms: C11_17  and  N3_19 
REMARK    5  A    between atoms: N3_19  and  C12_21 
REMARK    6  A    between atoms: C12_21  and  N4_23 
REMARK    7  A    between atoms: N4_23  and  C13_25 
ROOT
HETATM    1  N2  UNL     1      14.181 -12.233  17.813  1.00  0.00    -0.248 N 
ATOM      2  H2  UNL     1      13.338 -12.013  17.281  1.00  0.00     0.192 HD
HETATM    3  C11 UNL     1      15.338 -12.242  17.057  1.00  0.00     0.341 C 
HETATM    4  O2  UNL     1      16.467 -12.504  17.495  1.00  0.00    -0.245 OA
HETATM    5  N3  UNL     1      15.225 -11.916  15.650  1.00  0.00    -0.284 N 
ATOM      6  H3  UNL     1      14.299 -11.709  15.277  1.00  0.00     0.173 HD
ENDROOT
BRANCH   1   7
HETATM    7  N1  UNL     1      13.960 -12.461  19.130  1.00  0.00    -0.262 N 
HETATM    8  C10 UNL     1      13.752 -13.691  19.777  1.00  0.00     0.265 C 
HETATM    9  O1  UNL     1      13.715 -14.812  19.168  1.00  0.00    -0.266 OA
ATOM     10  H1  UNL     1      13.942 -11.635  19.728  1.00  0.00     0.190 HD
BRANCH   8  11
HETATM   11  C2  UNL     1      13.564 -13.697  21.240  1.00  0.00     0.006 C 
HETATM   12  C1  UNL     1      14.558 -13.780  22.048  1.00  0.00     0.025 C 
BRANCH  11  13
HETATM   13  C3  UNL     1      12.183 -13.646  21.783  1.00  0.00     0.082 C 
BRANCH  13  14
HETATM   14  C4  UNL     1      12.059 -12.332  22.517  1.00  0.00    -0.054 A 
HETATM   15  C5  UNL     1      12.714 -11.199  22.174  1.00  0.00     0.009 A 
HETATM   16  C6  UNL     1      12.618 -10.000  22.886  1.00  0.00     0.024 A 
HETATM   17  C7  UNL     1      11.804 -10.003  23.990  1.00  0.00     0.034 A 
HETATM   18 CL1  UNL     1      11.641  -8.555  24.953  1.00  0.00    -0.084 Cl
HETATM   19  C8  UNL     1      11.124 -11.143  24.359  1.00  0.00     0.024 A 
HETATM   20  C9  UNL     1      11.231 -12.297  23.655  1.00  0.00     0.009 A 
ENDBRANCH  13  14
ENDBRANCH  11  13
ENDBRANCH   8  11
ENDBRANCH   1   7
BRANCH   5  21
HETATM   21  C12 UNL     1      16.321 -11.868  14.771  1.00  0.00     0.180 C 
HETATM   22  S1  UNL     1      16.211 -12.774  13.359  1.00  0.00    -0.040 SA
BRANCH  21  23
HETATM   23  N4  UNL     1      17.514 -11.189  15.040  1.00  0.00    -0.333 N 
ATOM     24  H4  UNL     1      17.433 -10.249  15.428  1.00  0.00     0.168 HD
BRANCH  23  25
HETATM   25  C13 UNL     1      18.797 -11.671  14.828  1.00  0.00     0.034 A 
HETATM   26  C14 UNL     1      19.652 -11.310  13.824  1.00  0.00     0.029 A 
HETATM   27  C15 UNL     1      20.911 -11.856  13.665  1.00  0.00     0.002 A 
HETATM   28  C16 UNL     1      21.323 -12.801  14.558  1.00  0.00     0.000 A 
HETATM   29  C17 UNL     1      20.499 -13.210  15.602  1.00  0.00     0.002 A 
HETATM   30  C18 UNL     1      19.256 -12.648  15.729  1.00  0.00     0.029 A 
ENDBRANCH  23  25
ENDBRANCH  21  23
ENDBRANCH   5  21
TORSDOF 7
ENDMDL
