MODEL 1
REMARK VINA RESULT: -9.355679024      0.000      0.000
REMARK  13 active torsions:
REMARK  status: ('A' for Active; 'I' for Inactive)
REMARK    1  A    between atoms: C4_4  and  C5_5 
REMARK    2  A    between atoms: C5_5  and  C6_6 
REMARK    3  A    between atoms: C6_6  and  C7_7 
REMARK    4  A    between atoms: C9_9  and  C10_10 
REMARK    5  A    between atoms: C10_10  and  C11_11 
REMARK    6  A    between atoms: C16_16  and  O1_17 
REMARK    7  A    between atoms: O1_17  and  C17_18 
REMARK    8  A    between atoms: C17_18  and  O2_19 
REMARK    9  A    between atoms: O2_19  and  C18_20 
REMARK   10  A    between atoms: C19_21  and  O3_22 
REMARK   11  A    between atoms: C21_25  and  O4_26 
REMARK   12  A    between atoms: C22_28  and  O5_29 
REMARK   13  A    between atoms: C23_31  and  O6_32 
ROOT
HETATM    1  C11 UNL     1      48.473  51.337  16.728  1.00  0.00    -0.002 C 
HETATM    2  C12 UNL     1      48.582  51.143  18.190  1.00  0.00    -0.005 C 
HETATM    3  C13 UNL     1      49.464  50.056  18.636  1.00  0.00     0.005 C 
HETATM    4  C14 UNL     1      50.322  50.409  19.833  1.00  0.00     0.003 C 
HETATM    5  C15 UNL     1      51.161  51.631  19.625  1.00  0.00     0.032 C 
HETATM    6  C16 UNL     1      51.445  51.880  18.163  1.00  0.00     0.129 C 
HETATM    7  C24 UNL     1      50.372  52.856  17.718  1.00  0.00     0.024 A 
HETATM    8  C25 UNL     1      49.310  52.576  16.797  1.00  0.00     0.002 A 
HETATM    9  C26 UNL     1      49.096  52.531  18.328  1.00  0.00     0.002 A 
ENDROOT
BRANCH   6  10
HETATM   10  O1  UNL     1      52.688  52.496  18.080  1.00  0.00    -0.361 OA
BRANCH  10  11
HETATM   11  C17 UNL     1      53.034  53.277  19.159  1.00  0.00     0.339 C 
BRANCH  11  12
HETATM   12  O2  UNL     1      53.086  54.610  19.038  1.00  0.00    -0.356 OA
BRANCH  12  13
HETATM   13  C18 UNL     1      52.407  55.420  19.892  1.00  0.00     0.184 C 
HETATM   14  C19 UNL     1      51.008  55.773  19.343  1.00  0.00     0.152 C 
HETATM   15  C20 UNL     1      50.246  56.338  20.519  1.00  0.00     0.069 C 
HETATM   16  C21 UNL     1      50.865  57.618  20.968  1.00  0.00     0.152 C 
HETATM   17  C22 UNL     1      52.242  57.879  20.459  1.00  0.00     0.178 C 
HETATM   18  C23 UNL     1      53.111  56.647  20.368  1.00  0.00     0.180 C 
BRANCH  14  19
HETATM   19  O3  UNL     1      51.058  56.656  18.304  1.00  0.00    -0.393 OA
ATOM     20  H3  UNL     1      50.803  57.535  18.558  1.00  0.00     0.210 HD
ENDBRANCH  14  19
BRANCH  16  21
HETATM   21  O4  UNL     1      50.806  57.652  22.378  1.00  0.00    -0.393 OA
ATOM     22  H4  UNL     1      51.316  58.398  22.670  1.00  0.00     0.210 HD
ENDBRANCH  16  21
BRANCH  17  23
HETATM   23  O5  UNL     1      52.891  58.757  21.359  1.00  0.00    -0.390 OA
ATOM     24  H5  UNL     1      53.741  58.981  20.999  1.00  0.00     0.210 HD
ENDBRANCH  17  23
BRANCH  18  25
HETATM   25  O6  UNL     1      54.219  56.971  19.574  1.00  0.00    -0.390 OA
ATOM     26  H6  UNL     1      54.031  57.668  18.956  1.00  0.00     0.210 HD
ENDBRANCH  18  25
ENDBRANCH  12  13
ENDBRANCH  11  12
ENDBRANCH  10  11
ENDBRANCH   6  10
BRANCH   1  27
HETATM   27  C10 UNL     1      48.943  50.271  15.796  1.00  0.00     0.033 C 
BRANCH  27  28
HETATM   28  C9  UNL     1      47.755  49.459  15.417  1.00  0.00    -0.024 C 
HETATM   29  C7  UNL     1      47.634  48.179  15.730  1.00  0.00    -0.087 C 
HETATM   30  C8  UNL     1      48.726  47.514  16.492  1.00  0.00     0.043 C 
BRANCH  29  31
HETATM   31  C6  UNL     1      46.453  47.362  15.357  1.00  0.00     0.037 C 
BRANCH  31  32
HETATM   32  C5  UNL     1      45.165  47.957  15.880  1.00  0.00     0.031 C 
BRANCH  32  33
HETATM   33  C4  UNL     1      44.826  47.344  17.192  1.00  0.00    -0.024 C 
HETATM   34  C2  UNL     1      45.087  47.948  18.346  1.00  0.00    -0.091 C 
HETATM   35  C1  UNL     1      44.741  47.319  19.625  1.00  0.00     0.042 C 
HETATM   36  C3  UNL     1      45.737  49.273  18.318  1.00  0.00     0.042 C 
ENDBRANCH  32  33
ENDBRANCH  31  32
ENDBRANCH  29  31
ENDBRANCH  27  28
ENDBRANCH   1  27
TORSDOF 13
ENDMDL
MODEL 2
REMARK VINA RESULT: -8.832335523      3.515      9.107
REMARK  13 active torsions:
REMARK  status: ('A' for Active; 'I' for Inactive)
REMARK    1  A    between atoms: C4_4  and  C5_5 
REMARK    2  A    between atoms: C5_5  and  C6_6 
REMARK    3  A    between atoms: C6_6  and  C7_7 
REMARK    4  A    between atoms: C9_9  and  C10_10 
REMARK    5  A    between atoms: C10_10  and  C11_11 
REMARK    6  A    between atoms: C16_16  and  O1_17 
REMARK    7  A    between atoms: O1_17  and  C17_18 
REMARK    8  A    between atoms: C17_18  and  O2_19 
REMARK    9  A    between atoms: O2_19  and  C18_20 
REMARK   10  A    between atoms: C19_21  and  O3_22 
REMARK   11  A    between atoms: C21_25  and  O4_26 
REMARK   12  A    between atoms: C22_28  and  O5_29 
REMARK   13  A    between atoms: C23_31  and  O6_32 
ROOT
HETATM    1  C11 UNL     1      52.347  57.085  19.959  1.00  0.00    -0.002 C 
HETATM    2  C12 UNL     1      52.718  55.820  20.627  1.00  0.00    -0.005 C 
HETATM    3  C13 UNL     1      51.977  55.491  21.852  1.00  0.00     0.005 C 
HETATM    4  C14 UNL     1      51.585  54.032  21.963  1.00  0.00     0.003 C 
HETATM    5  C15 UNL     1      50.793  53.537  20.794  1.00  0.00     0.032 C 
HETATM    6  C16 UNL     1      50.054  54.655  20.098  1.00  0.00     0.129 C 
HETATM    7  C24 UNL     1      50.970  55.083  18.966  1.00  0.00     0.024 A 
HETATM    8  C25 UNL     1      51.649  56.340  18.864  1.00  0.00     0.002 A 
HETATM    9  C26 UNL     1      52.356  55.071  19.395  1.00  0.00     0.002 A 
ENDROOT
BRANCH   6  10
HETATM   10  O1  UNL     1      48.888  54.115  19.565  1.00  0.00    -0.361 OA
BRANCH  10  11
HETATM   11  C17 UNL     1      49.022  53.529  18.327  1.00  0.00     0.339 C 
BRANCH  11  12
HETATM   12  O2  UNL     1      49.353  52.235  18.226  1.00  0.00    -0.356 OA
BRANCH  12  13
HETATM   13  C18 UNL     1      48.434  51.301  17.863  1.00  0.00     0.184 C 
HETATM   14  C19 UNL     1      48.507  50.057  18.772  1.00  0.00     0.152 C 
HETATM   15  C20 UNL     1      47.228  49.295  18.515  1.00  0.00     0.069 C 
HETATM   16  C21 UNL     1      47.198  48.798  17.109  1.00  0.00     0.152 C 
HETATM   17  C22 UNL     1      48.182  49.428  16.183  1.00  0.00     0.178 C 
HETATM   18  C23 UNL     1      48.401  50.903  16.426  1.00  0.00     0.180 C 
BRANCH  14  19
HETATM   19  O3  UNL     1      49.609  49.289  18.526  1.00  0.00    -0.393 OA
ATOM     20  H3  UNL     1      49.444  48.608  17.885  1.00  0.00     0.210 HD
ENDBRANCH  14  19
BRANCH  16  21
HETATM   21  O4  UNL     1      45.873  48.921  16.638  1.00  0.00    -0.393 OA
ATOM     22  H4  UNL     1      45.309  48.446  17.236  1.00  0.00     0.210 HD
ENDBRANCH  16  21
BRANCH  17  23
HETATM   23  O5  UNL     1      47.691  49.312  14.862  1.00  0.00    -0.390 OA
ATOM     24  H5  UNL     1      48.084  49.997  14.334  1.00  0.00     0.210 HD
ENDBRANCH  17  23
BRANCH  18  25
HETATM   25  O6  UNL     1      49.566  51.273  15.741  1.00  0.00    -0.390 OA
ATOM     26  H6  UNL     1      49.381  51.757  14.944  1.00  0.00     0.210 HD
ENDBRANCH  18  25
ENDBRANCH  12  13
ENDBRANCH  11  12
ENDBRANCH  10  11
ENDBRANCH   6  10
BRANCH   1  27
HETATM   27  C10 UNL     1      51.538  58.104  20.687  1.00  0.00     0.033 C 
BRANCH  27  28
HETATM   28  C9  UNL     1      50.179  58.107  20.080  1.00  0.00    -0.024 C 
HETATM   29  C7  UNL     1      49.101  58.501  20.740  1.00  0.00    -0.087 C 
HETATM   30  C8  UNL     1      49.243  58.962  22.147  1.00  0.00     0.043 C 
BRANCH  29  31
HETATM   31  C6  UNL     1      47.743  58.508  20.141  1.00  0.00     0.037 C 
BRANCH  31  32
HETATM   32  C5  UNL     1      47.722  59.193  18.794  1.00  0.00     0.031 C 
BRANCH  32  33
HETATM   33  C4  UNL     1      47.631  60.666  18.982  1.00  0.00    -0.024 C 
HETATM   34  C2  UNL     1      46.491  61.332  18.832  1.00  0.00    -0.091 C 
HETATM   35  C1  UNL     1      46.431  62.785  19.025  1.00  0.00     0.042 C 
HETATM   36  C3  UNL     1      45.277  60.578  18.463  1.00  0.00     0.042 C 
ENDBRANCH  32  33
ENDBRANCH  31  32
ENDBRANCH  29  31
ENDBRANCH  27  28
ENDBRANCH   1  27
TORSDOF 13
ENDMDL
MODEL 3
REMARK VINA RESULT: -8.757546947      1.272      2.281
REMARK  13 active torsions:
REMARK  status: ('A' for Active; 'I' for Inactive)
REMARK    1  A    between atoms: C4_4  and  C5_5 
REMARK    2  A    between atoms: C5_5  and  C6_6 
REMARK    3  A    between atoms: C6_6  and  C7_7 
REMARK    4  A    between atoms: C9_9  and  C10_10 
REMARK    5  A    between atoms: C10_10  and  C11_11 
REMARK    6  A    between atoms: C16_16  and  O1_17 
REMARK    7  A    between atoms: O1_17  and  C17_18 
REMARK    8  A    between atoms: C17_18  and  O2_19 
REMARK    9  A    between atoms: O2_19  and  C18_20 
REMARK   10  A    between atoms: C19_21  and  O3_22 
REMARK   11  A    between atoms: C21_25  and  O4_26 
REMARK   12  A    between atoms: C22_28  and  O5_29 
REMARK   13  A    between atoms: C23_31  and  O6_32 
ROOT
HETATM    1  C11 UNL     1      48.227  51.252  16.860  1.00  0.00    -0.002 C 
HETATM    2  C12 UNL     1      48.440  51.102  18.316  1.00  0.00    -0.005 C 
HETATM    3  C13 UNL     1      49.352  50.028  18.732  1.00  0.00     0.005 C 
HETATM    4  C14 UNL     1      50.293  50.416  19.853  1.00  0.00     0.003 C 
HETATM    5  C15 UNL     1      51.114  51.630  19.549  1.00  0.00     0.032 C 
HETATM    6  C16 UNL     1      51.293  51.834  18.064  1.00  0.00     0.129 C 
HETATM    7  C24 UNL     1      50.190  52.798  17.666  1.00  0.00     0.024 A 
HETATM    8  C25 UNL     1      49.066  52.491  16.832  1.00  0.00     0.002 A 
HETATM    9  C26 UNL     1      48.962  52.493  18.375  1.00  0.00     0.002 A 
ENDROOT
BRANCH   6  10
HETATM   10  O1  UNL     1      52.527  52.446  17.873  1.00  0.00    -0.361 OA
BRANCH  10  11
HETATM   11  C17 UNL     1      52.975  53.210  18.926  1.00  0.00     0.339 C 
BRANCH  11  12
HETATM   12  O2  UNL     1      52.994  54.545  18.828  1.00  0.00    -0.356 OA
BRANCH  12  13
HETATM   13  C18 UNL     1      52.419  55.328  19.780  1.00  0.00     0.184 C 
HETATM   14  C19 UNL     1      50.960  55.675  19.418  1.00  0.00     0.152 C 
HETATM   15  C20 UNL     1      50.344  56.203  20.693  1.00  0.00     0.069 C 
HETATM   16  C21 UNL     1      51.002  57.480  21.093  1.00  0.00     0.152 C 
HETATM   17  C22 UNL     1      52.302  57.771  20.424  1.00  0.00     0.178 C 
HETATM   18  C23 UNL     1      53.165  56.552  20.195  1.00  0.00     0.180 C 
BRANCH  14  19
HETATM   19  O3  UNL     1      50.871  56.583  18.403  1.00  0.00    -0.393 OA
ATOM     20  H3  UNL     1      50.302  57.313  18.613  1.00  0.00     0.210 HD
ENDBRANCH  14  19
BRANCH  16  21
HETATM   21  O4  UNL     1      51.119  57.481  22.499  1.00  0.00    -0.393 OA
ATOM     22  H4  UNL     1      51.975  57.830  22.718  1.00  0.00     0.210 HD
ENDBRANCH  16  21
BRANCH  17  23
HETATM   23  O5  UNL     1      53.050  58.636  21.257  1.00  0.00    -0.390 OA
ATOM     24  H5  UNL     1      52.598  59.469  21.307  1.00  0.00     0.210 HD
ENDBRANCH  17  23
BRANCH  18  25
HETATM   25  O6  UNL     1      54.162  56.908  19.277  1.00  0.00    -0.390 OA
ATOM     26  H6  UNL     1      53.934  57.682  18.775  1.00  0.00     0.210 HD
ENDBRANCH  18  25
ENDBRANCH  12  13
ENDBRANCH  11  12
ENDBRANCH  10  11
ENDBRANCH   6  10
BRANCH   1  27
HETATM   27  C10 UNL     1      48.630  50.157  15.931  1.00  0.00     0.033 C 
BRANCH  27  28
HETATM   28  C9  UNL     1      47.424  49.322  15.679  1.00  0.00    -0.024 C 
HETATM   29  C7  UNL     1      47.388  48.023  15.931  1.00  0.00    -0.087 C 
HETATM   30  C8  UNL     1      48.597  47.360  16.488  1.00  0.00     0.043 C 
BRANCH  29  31
HETATM   31  C6  UNL     1      46.189  47.184  15.684  1.00  0.00     0.037 C 
BRANCH  31  32
HETATM   32  C5  UNL     1      45.234  47.834  14.709  1.00  0.00     0.031 C 
BRANCH  32  33
HETATM   33  C4  UNL     1      45.235  47.077  13.428  1.00  0.00    -0.024 C 
HETATM   34  C2  UNL     1      45.530  47.649  12.266  1.00  0.00    -0.091 C 
HETATM   35  C1  UNL     1      45.525  46.877  11.019  1.00  0.00     0.042 C 
HETATM   36  C3  UNL     1      45.866  49.086  12.252  1.00  0.00     0.042 C 
ENDBRANCH  32  33
ENDBRANCH  31  32
ENDBRANCH  29  31
ENDBRANCH  27  28
ENDBRANCH   1  27
TORSDOF 13
ENDMDL
MODEL 4
REMARK VINA RESULT: -8.740705865      3.441      7.407
REMARK  13 active torsions:
REMARK  status: ('A' for Active; 'I' for Inactive)
REMARK    1  A    between atoms: C4_4  and  C5_5 
REMARK    2  A    between atoms: C5_5  and  C6_6 
REMARK    3  A    between atoms: C6_6  and  C7_7 
REMARK    4  A    between atoms: C9_9  and  C10_10 
REMARK    5  A    between atoms: C10_10  and  C11_11 
REMARK    6  A    between atoms: C16_16  and  O1_17 
REMARK    7  A    between atoms: O1_17  and  C17_18 
REMARK    8  A    between atoms: C17_18  and  O2_19 
REMARK    9  A    between atoms: O2_19  and  C18_20 
REMARK   10  A    between atoms: C19_21  and  O3_22 
REMARK   11  A    between atoms: C21_25  and  O4_26 
REMARK   12  A    between atoms: C22_28  and  O5_29 
REMARK   13  A    between atoms: C23_31  and  O6_32 
ROOT
HETATM    1  C11 UNL     1      51.181  56.555  18.379  1.00  0.00    -0.002 C 
HETATM    2  C12 UNL     1      51.201  57.538  19.484  1.00  0.00    -0.005 C 
HETATM    3  C13 UNL     1      50.098  57.451  20.450  1.00  0.00     0.005 C 
HETATM    4  C14 UNL     1      50.525  57.627  21.893  1.00  0.00     0.003 C 
HETATM    5  C15 UNL     1      51.593  56.669  22.319  1.00  0.00     0.032 C 
HETATM    6  C16 UNL     1      51.580  55.404  21.494  1.00  0.00     0.129 C 
HETATM    7  C24 UNL     1      52.597  55.645  20.394  1.00  0.00     0.024 A 
HETATM    8  C25 UNL     1      52.308  55.788  18.999  1.00  0.00     0.002 A 
HETATM    9  C26 UNL     1      52.523  57.013  19.917  1.00  0.00     0.002 A 
ENDROOT
BRANCH   6  10
HETATM   10  O1  UNL     1      52.024  54.370  22.311  1.00  0.00    -0.361 OA
BRANCH  10  11
HETATM   11  C17 UNL     1      51.356  53.175  22.165  1.00  0.00     0.339 C 
BRANCH  11  12
HETATM   12  O2  UNL     1      51.848  52.223  21.362  1.00  0.00    -0.356 OA
BRANCH  12  13
HETATM   13  C18 UNL     1      51.401  52.079  20.086  1.00  0.00     0.184 C 
HETATM   14  C19 UNL     1      50.506  50.830  19.941  1.00  0.00     0.152 C 
HETATM   15  C20 UNL     1      49.793  50.999  18.619  1.00  0.00     0.069 C 
HETATM   16  C21 UNL     1      50.773  50.958  17.495  1.00  0.00     0.152 C 
HETATM   17  C22 UNL     1      52.202  51.133  17.882  1.00  0.00     0.178 C 
HETATM   18  C23 UNL     1      52.423  52.125  18.999  1.00  0.00     0.180 C 
BRANCH  14  19
HETATM   19  O3  UNL     1      51.216  49.665  19.984  1.00  0.00    -0.393 OA
ATOM     20  H3  UNL     1      51.022  49.147  20.756  1.00  0.00     0.210 HD
ENDBRANCH  14  19
BRANCH  16  21
HETATM   21  O4  UNL     1      50.364  51.907  16.534  1.00  0.00    -0.393 OA
ATOM     22  H4  UNL     1      51.039  52.574  16.482  1.00  0.00     0.210 HD
ENDBRANCH  16  21
BRANCH  17  23
HETATM   23  O5  UNL     1      52.910  51.632  16.763  1.00  0.00    -0.390 OA
ATOM     24  H5  UNL     1      53.602  52.203  17.076  1.00  0.00     0.210 HD
ENDBRANCH  17  23
BRANCH  18  25
HETATM   25  O6  UNL     1      53.725  51.935  19.480  1.00  0.00    -0.390 OA
ATOM     26  H6  UNL     1      54.093  51.101  19.214  1.00  0.00     0.210 HD
ENDBRANCH  18  25
ENDBRANCH  12  13
ENDBRANCH  11  12
ENDBRANCH  10  11
ENDBRANCH   6  10
BRANCH   1  27
HETATM   27  C10 UNL     1      49.937  55.786  18.087  1.00  0.00     0.033 C 
BRANCH  27  28
HETATM   28  C9  UNL     1      49.136  56.587  17.122  1.00  0.00    -0.024 C 
HETATM   29  C7  UNL     1      48.201  56.054  16.352  1.00  0.00    -0.087 C 
HETATM   30  C8  UNL     1      47.931  54.595  16.448  1.00  0.00     0.043 C 
BRANCH  29  31
HETATM   31  C6  UNL     1      47.398  56.846  15.389  1.00  0.00     0.037 C 
BRANCH  31  32
HETATM   32  C5  UNL     1      47.504  58.332  15.649  1.00  0.00     0.031 C 
BRANCH  32  33
HETATM   33  C4  UNL     1      46.379  58.770  16.518  1.00  0.00    -0.024 C 
HETATM   34  C2  UNL     1      46.571  59.478  17.625  1.00  0.00    -0.091 C 
HETATM   35  C1  UNL     1      45.442  59.896  18.463  1.00  0.00     0.042 C 
HETATM   36  C3  UNL     1      47.953  59.837  18.002  1.00  0.00     0.042 C 
ENDBRANCH  32  33
ENDBRANCH  31  32
ENDBRANCH  29  31
ENDBRANCH  27  28
ENDBRANCH   1  27
TORSDOF 13
ENDMDL
MODEL 5
REMARK VINA RESULT: -8.717474648      3.707      8.763
REMARK  13 active torsions:
REMARK  status: ('A' for Active; 'I' for Inactive)
REMARK    1  A    between atoms: C4_4  and  C5_5 
REMARK    2  A    between atoms: C5_5  and  C6_6 
REMARK    3  A    between atoms: C6_6  and  C7_7 
REMARK    4  A    between atoms: C9_9  and  C10_10 
REMARK    5  A    between atoms: C10_10  and  C11_11 
REMARK    6  A    between atoms: C16_16  and  O1_17 
REMARK    7  A    between atoms: O1_17  and  C17_18 
REMARK    8  A    between atoms: C17_18  and  O2_19 
REMARK    9  A    between atoms: O2_19  and  C18_20 
REMARK   10  A    between atoms: C19_21  and  O3_22 
REMARK   11  A    between atoms: C21_25  and  O4_26 
REMARK   12  A    between atoms: C22_28  and  O5_29 
REMARK   13  A    between atoms: C23_31  and  O6_32 
ROOT
HETATM    1  C11 UNL     1      50.753  56.320  18.892  1.00  0.00    -0.002 C 
HETATM    2  C12 UNL     1      51.604  56.659  20.053  1.00  0.00    -0.005 C 
HETATM    3  C13 UNL     1      50.914  56.809  21.342  1.00  0.00     0.005 C 
HETATM    4  C14 UNL     1      51.651  56.190  22.512  1.00  0.00     0.003 C 
HETATM    5  C15 UNL     1      51.964  54.740  22.319  1.00  0.00     0.032 C 
HETATM    6  C16 UNL     1      51.004  54.077  21.360  1.00  0.00     0.129 C 
HETATM    7  C24 UNL     1      51.695  54.139  20.010  1.00  0.00     0.024 A 
HETATM    8  C25 UNL     1      51.269  54.915  18.884  1.00  0.00     0.002 A 
HETATM    9  C26 UNL     1      52.378  55.407  19.842  1.00  0.00     0.002 A 
ENDROOT
BRANCH   6  10
HETATM   10  O1  UNL     1      50.878  52.747  21.750  1.00  0.00    -0.361 OA
BRANCH  10  11
HETATM   11  C17 UNL     1      51.532  51.835  20.953  1.00  0.00     0.339 C 
BRANCH  11  12
HETATM   12  O2  UNL     1      50.844  50.866  20.336  1.00  0.00    -0.356 OA
BRANCH  12  13
HETATM   13  C18 UNL     1      50.191  51.103  19.167  1.00  0.00     0.184 C 
HETATM   14  C19 UNL     1      49.021  50.117  18.965  1.00  0.00     0.152 C 
HETATM   15  C20 UNL     1      48.177  50.714  17.863  1.00  0.00     0.069 C 
HETATM   16  C21 UNL     1      48.943  50.740  16.583  1.00  0.00     0.152 C 
HETATM   17  C22 UNL     1      50.416  50.543  16.711  1.00  0.00     0.178 C 
HETATM   18  C23 UNL     1      51.022  51.196  17.931  1.00  0.00     0.180 C 
BRANCH  14  19
HETATM   19  O3  UNL     1      49.443  48.858  18.649  1.00  0.00    -0.393 OA
ATOM     20  H3  UNL     1      48.944  48.182  19.093  1.00  0.00     0.210 HD
ENDBRANCH  14  19
BRANCH  16  21
HETATM   21  O4  UNL     1      48.625  51.942  15.916  1.00  0.00    -0.393 OA
ATOM     22  H4  UNL     1      49.070  51.933  15.077  1.00  0.00     0.210 HD
ENDBRANCH  16  21
BRANCH  17  23
HETATM   23  O5  UNL     1      51.044  51.136  15.591  1.00  0.00    -0.390 OA
ATOM     24  H5  UNL     1      51.952  50.856  15.573  1.00  0.00     0.210 HD
ENDBRANCH  17  23
BRANCH  18  25
HETATM   25  O6  UNL     1      52.303  50.654  18.105  1.00  0.00    -0.390 OA
ATOM     26  H6  UNL     1      52.765  50.545  17.283  1.00  0.00     0.210 HD
ENDBRANCH  18  25
ENDBRANCH  12  13
ENDBRANCH  11  12
ENDBRANCH  10  11
ENDBRANCH   6  10
BRANCH   1  27
HETATM   27  C10 UNL     1      49.273  56.481  18.979  1.00  0.00     0.033 C 
BRANCH  27  28
HETATM   28  C9  UNL     1      48.916  57.711  18.220  1.00  0.00    -0.024 C 
HETATM   29  C7  UNL     1      48.386  58.778  18.796  1.00  0.00    -0.087 C 
HETATM   30  C8  UNL     1      48.132  58.759  20.261  1.00  0.00     0.043 C 
BRANCH  29  31
HETATM   31  C6  UNL     1      48.028  60.008  18.047  1.00  0.00     0.037 C 
BRANCH  31  32
HETATM   32  C5  UNL     1      47.457  61.077  18.952  1.00  0.00     0.031 C 
BRANCH  32  33
HETATM   33  C4  UNL     1      46.011  61.262  18.656  1.00  0.00    -0.024 C 
HETATM   34  C2  UNL     1      45.390  62.420  18.849  1.00  0.00    -0.091 C 
HETATM   35  C1  UNL     1      43.962  62.573  18.548  1.00  0.00     0.042 C 
HETATM   36  C3  UNL     1      46.167  63.559  19.377  1.00  0.00     0.042 C 
ENDBRANCH  32  33
ENDBRANCH  31  32
ENDBRANCH  29  31
ENDBRANCH  27  28
ENDBRANCH   1  27
TORSDOF 13
ENDMDL
