MODEL 1
REMARK VINA RESULT: -8.734896933      0.000      0.000
REMARK  13 active torsions:
REMARK  status: ('A' for Active; 'I' for Inactive)
REMARK    1  A    between atoms: C3_3  and  C4_4 
REMARK    2  A    between atoms: C4_4  and  N1_7 
REMARK       I    between atoms: N1_7  and  C7_9 
REMARK    3  A    between atoms: C7_9  and  C8_11 
REMARK    4  A    between atoms: C13_16  and  C14_17 
REMARK    5  A    between atoms: C14_17  and  N2_18 
REMARK    6  A    between atoms: C15_19  and  O2_20 
REMARK    7  A    between atoms: C16_22  and  C17_23 
REMARK    8  A    between atoms: C17_23  and  O3_24 
REMARK    9  A    between atoms: C17_23  and  N3_26 
REMARK   10  A    between atoms: N3_26  and  C18_27 
REMARK   11  A    between atoms: N3_26  and  C21_30 
REMARK   12  A    between atoms: C18_27  and  C19_28 
REMARK   13  A    between atoms: C21_30  and  C22_31 
ROOT
HETATM    1  C1  UNL     1      48.887  59.002  21.707  1.00  0.00     0.112 C 
HETATM    2  C2  UNL     1      49.958  58.005  21.609  1.00  0.00    -0.108 C 
HETATM    3  C3  UNL     1      50.846  57.189  21.546  1.00  0.00    -0.076 C 
ENDROOT
BRANCH   3   4
HETATM    4  C4  UNL     1      51.925  56.203  21.494  1.00  0.00     0.089 C 
HETATM    5  C5  UNL     1      52.165  55.598  22.885  1.00  0.00     0.053 C 
HETATM    6  C6  UNL     1      53.190  56.957  21.151  1.00  0.00     0.053 C 
BRANCH   4   7
HETATM    7  N1  UNL     1      51.655  55.149  20.538  1.00  0.00    -0.341 N 
HETATM    8  C7  UNL     1      51.015  53.946  20.885  1.00  0.00     0.223 C 
HETATM    9  O1  UNL     1      50.686  53.859  22.128  1.00  0.00    -0.273 OA
ATOM     10  H1  UNL     1      51.943  55.286  19.569  1.00  0.00     0.164 HD
BRANCH   8  11
HETATM   11  C8  UNL     1      50.710  52.819  19.952  1.00  0.00     0.083 C 
HETATM   12  C9  UNL     1      50.961  51.530  20.640  1.00  0.00     0.014 C 
HETATM   13  C10 UNL     1      52.346  51.024  20.605  1.00  0.00     0.001 C 
HETATM   14  C11 UNL     1      52.964  51.175  19.268  1.00  0.00     0.000 C 
HETATM   15  C12 UNL     1      52.747  52.443  18.545  1.00  0.00     0.007 C 
HETATM   16  C13 UNL     1      51.351  53.002  18.630  1.00  0.00     0.017 C 
BRANCH  16  17
HETATM   17  C14 UNL     1      50.508  52.781  17.410  1.00  0.00     0.141 C 
BRANCH  17  18
HETATM   18  N2  UNL     1      50.182  51.466  17.012  1.00  0.00    -0.278 N 
HETATM   19  C15 UNL     1      49.172  50.711  17.469  1.00  0.00     0.174 A 
HETATM   20  C16 UNL     1      49.186  49.458  16.863  1.00  0.00     0.124 A 
HETATM   21  N4  UNL     1      50.228  49.479  16.031  1.00  0.00    -0.304 N 
HETATM   22  C24 UNL     1      50.828  50.699  16.126  1.00  0.00     0.329 A 
ATOM     23  H4  UNL     1      50.525  48.713  15.427  1.00  0.00     0.170 HD
HETATM   24  O4  UNL     1      51.865  50.946  15.413  1.00  0.00    -0.246 OA
BRANCH  19  25
HETATM   25  O2  UNL     1      48.192  51.028  18.415  1.00  0.00    -0.344 OA
ATOM     26  H2  UNL     1      48.296  51.382  19.291  1.00  0.00     0.219 HD
ENDBRANCH  19  25
BRANCH  20  27
HETATM   27  C17 UNL     1      48.252  48.330  17.063  1.00  0.00     0.412 C 
BRANCH  27  28
HETATM   28  O3  UNL     1      48.809  47.211  16.443  1.00  0.00    -0.363 OA
ATOM     29  H3  UNL     1      48.194  46.493  16.545  1.00  0.00     0.212 HD
ENDBRANCH  27  28
BRANCH  27  30
HETATM   30  N3  UNL     1      46.967  48.669  16.462  1.00  0.00     0.123 N 
BRANCH  30  31
HETATM   31  C18 UNL     1      45.880  48.016  17.178  1.00  0.00     0.276 C 
BRANCH  31  32
HETATM   32  C19 UNL     1      45.925  48.313  18.660  1.00  0.00     0.026 C 
HETATM   33  C20 UNL     1      44.754  47.537  19.278  1.00  0.00     0.007 C 
ENDBRANCH  31  32
ENDBRANCH  30  31
BRANCH  30  34
HETATM   34  C21 UNL     1      46.941  48.069  15.123  1.00  0.00     0.276 C 
BRANCH  34  35
HETATM   35  C22 UNL     1      45.569  47.918  14.562  1.00  0.00     0.026 C 
HETATM   36  C23 UNL     1      45.547  47.919  13.039  1.00  0.00     0.007 C 
ENDBRANCH  34  35
ENDBRANCH  30  34
ENDBRANCH  27  30
ENDBRANCH  20  27
ENDBRANCH  17  18
ENDBRANCH  16  17
ENDBRANCH   8  11
ENDBRANCH   4   7
ENDBRANCH   3   4
TORSDOF 13
ENDMDL
MODEL 2
REMARK VINA RESULT: -8.377580154      2.491      4.133
REMARK  13 active torsions:
REMARK  status: ('A' for Active; 'I' for Inactive)
REMARK    1  A    between atoms: C3_3  and  C4_4 
REMARK    2  A    between atoms: C4_4  and  N1_7 
REMARK       I    between atoms: N1_7  and  C7_9 
REMARK    3  A    between atoms: C7_9  and  C8_11 
REMARK    4  A    between atoms: C13_16  and  C14_17 
REMARK    5  A    between atoms: C14_17  and  N2_18 
REMARK    6  A    between atoms: C15_19  and  O2_20 
REMARK    7  A    between atoms: C16_22  and  C17_23 
REMARK    8  A    between atoms: C17_23  and  O3_24 
REMARK    9  A    between atoms: C17_23  and  N3_26 
REMARK   10  A    between atoms: N3_26  and  C18_27 
REMARK   11  A    between atoms: N3_26  and  C21_30 
REMARK   12  A    between atoms: C18_27  and  C19_28 
REMARK   13  A    between atoms: C21_30  and  C22_31 
ROOT
HETATM    1  C1  UNL     1      48.034  57.456  15.499  1.00  0.00     0.112 C 
HETATM    2  C2  UNL     1      48.163  57.910  16.887  1.00  0.00    -0.108 C 
HETATM    3  C3  UNL     1      48.254  58.273  18.036  1.00  0.00    -0.076 C 
ENDROOT
BRANCH   3   4
HETATM    4  C4  UNL     1      48.347  58.696  19.433  1.00  0.00     0.089 C 
HETATM    5  C5  UNL     1      47.055  58.346  20.185  1.00  0.00     0.053 C 
HETATM    6  C6  UNL     1      48.425  60.205  19.430  1.00  0.00     0.053 C 
BRANCH   4   7
HETATM    7  N1  UNL     1      49.485  58.103  20.107  1.00  0.00    -0.341 N 
HETATM    8  C7  UNL     1      49.714  56.716  20.146  1.00  0.00     0.223 C 
HETATM    9  O1  UNL     1      48.826  56.013  19.531  1.00  0.00    -0.273 OA
ATOM     10  H1  UNL     1      50.150  58.720  20.573  1.00  0.00     0.164 HD
BRANCH   8  11
HETATM   11  C8  UNL     1      50.862  56.041  20.824  1.00  0.00     0.083 C 
HETATM   12  C9  UNL     1      51.722  57.064  21.467  1.00  0.00     0.014 C 
HETATM   13  C10 UNL     1      52.750  57.690  20.615  1.00  0.00     0.001 C 
HETATM   14  C11 UNL     1      53.448  56.702  19.762  1.00  0.00     0.000 C 
HETATM   15  C12 UNL     1      52.635  55.667  19.095  1.00  0.00     0.007 C 
HETATM   16  C13 UNL     1      51.539  55.068  19.937  1.00  0.00     0.017 C 
BRANCH  16  17
HETATM   17  C14 UNL     1      51.844  53.710  20.496  1.00  0.00     0.141 C 
BRANCH  17  18
HETATM   18  N2  UNL     1      51.784  52.576  19.656  1.00  0.00    -0.278 N 
HETATM   19  C15 UNL     1      50.956  52.382  18.619  1.00  0.00     0.174 A 
HETATM   20  C16 UNL     1      51.171  51.130  18.051  1.00  0.00     0.124 A 
HETATM   21  N4  UNL     1      52.147  50.577  18.772  1.00  0.00    -0.304 N 
HETATM   22  C24 UNL     1      52.515  51.459  19.744  1.00  0.00     0.329 A 
ATOM     23  H4  UNL     1      52.550  49.652  18.621  1.00  0.00     0.170 HD
HETATM   24  O4  UNL     1      53.443  51.135  20.567  1.00  0.00    -0.246 OA
BRANCH  19  25
HETATM   25  O2  UNL     1      49.980  53.237  18.097  1.00  0.00    -0.344 OA
ATOM     26  H2  UNL     1      49.635  53.285  17.214  1.00  0.00     0.219 HD
ENDBRANCH  19  25
BRANCH  20  27
HETATM   27  C17 UNL     1      50.492  50.520  16.889  1.00  0.00     0.412 C 
BRANCH  27  28
HETATM   28  O3  UNL     1      50.761  51.323  15.779  1.00  0.00    -0.363 OA
ATOM     29  H3  UNL     1      50.367  52.173  15.940  1.00  0.00     0.212 HD
ENDBRANCH  27  28
BRANCH  27  30
HETATM   30  N3  UNL     1      49.059  50.466  17.153  1.00  0.00     0.123 N 
BRANCH  30  31
HETATM   31  C18 UNL     1      48.707  49.215  17.811  1.00  0.00     0.276 C 
BRANCH  31  32
HETATM   32  C19 UNL     1      47.761  49.438  18.970  1.00  0.00     0.026 C 
HETATM   33  C20 UNL     1      46.446  48.754  18.573  1.00  0.00     0.007 C 
ENDBRANCH  31  32
ENDBRANCH  30  31
BRANCH  30  34
HETATM   34  C21 UNL     1      48.379  50.405  15.855  1.00  0.00     0.276 C 
BRANCH  34  35
HETATM   35  C22 UNL     1      48.214  49.020  15.331  1.00  0.00     0.026 C 
HETATM   36  C23 UNL     1      46.854  48.787  14.685  1.00  0.00     0.007 C 
ENDBRANCH  34  35
ENDBRANCH  30  34
ENDBRANCH  27  30
ENDBRANCH  20  27
ENDBRANCH  17  18
ENDBRANCH  16  17
ENDBRANCH   8  11
ENDBRANCH   4   7
ENDBRANCH   3   4
TORSDOF 13
ENDMDL
MODEL 3
REMARK VINA RESULT: -8.350764024      2.496      4.456
REMARK  13 active torsions:
REMARK  status: ('A' for Active; 'I' for Inactive)
REMARK    1  A    between atoms: C3_3  and  C4_4 
REMARK    2  A    between atoms: C4_4  and  N1_7 
REMARK       I    between atoms: N1_7  and  C7_9 
REMARK    3  A    between atoms: C7_9  and  C8_11 
REMARK    4  A    between atoms: C13_16  and  C14_17 
REMARK    5  A    between atoms: C14_17  and  N2_18 
REMARK    6  A    between atoms: C15_19  and  O2_20 
REMARK    7  A    between atoms: C16_22  and  C17_23 
REMARK    8  A    between atoms: C17_23  and  O3_24 
REMARK    9  A    between atoms: C17_23  and  N3_26 
REMARK   10  A    between atoms: N3_26  and  C18_27 
REMARK   11  A    between atoms: N3_26  and  C21_30 
REMARK   12  A    between atoms: C18_27  and  C19_28 
REMARK   13  A    between atoms: C21_30  and  C22_31 
ROOT
HETATM    1  C1  UNL     1      47.977  57.457  15.496  1.00  0.00     0.112 C 
HETATM    2  C2  UNL     1      48.153  57.893  16.885  1.00  0.00    -0.108 C 
HETATM    3  C3  UNL     1      48.286  58.268  18.025  1.00  0.00    -0.076 C 
ENDROOT
BRANCH   3   4
HETATM    4  C4  UNL     1      48.429  58.738  19.403  1.00  0.00     0.089 C 
HETATM    5  C5  UNL     1      47.151  58.449  20.203  1.00  0.00     0.053 C 
HETATM    6  C6  UNL     1      48.543  60.245  19.342  1.00  0.00     0.053 C 
BRANCH   4   7
HETATM    7  N1  UNL     1      49.571  58.142  20.066  1.00  0.00    -0.341 N 
HETATM    8  C7  UNL     1      49.730  56.753  20.214  1.00  0.00     0.223 C 
HETATM    9  O1  UNL     1      48.775  56.051  19.709  1.00  0.00    -0.273 OA
ATOM     10  H1  UNL     1      50.292  58.758  20.442  1.00  0.00     0.164 HD
BRANCH   8  11
HETATM   11  C8  UNL     1      50.879  56.074  20.889  1.00  0.00     0.083 C 
HETATM   12  C9  UNL     1      51.600  57.055  21.735  1.00  0.00     0.014 C 
HETATM   13  C10 UNL     1      52.631  57.869  21.065  1.00  0.00     0.001 C 
HETATM   14  C11 UNL     1      53.471  57.066  20.148  1.00  0.00     0.000 C 
HETATM   15  C12 UNL     1      52.798  56.079  19.280  1.00  0.00     0.007 C 
HETATM   16  C13 UNL     1      51.698  55.289  19.938  1.00  0.00     0.017 C 
BRANCH  16  17
HETATM   17  C14 UNL     1      52.075  53.891  20.331  1.00  0.00     0.141 C 
BRANCH  17  18
HETATM   18  N2  UNL     1      51.907  52.834  19.410  1.00  0.00    -0.278 N 
HETATM   19  C15 UNL     1      50.925  52.698  18.506  1.00  0.00     0.174 A 
HETATM   20  C16 UNL     1      51.075  51.510  17.797  1.00  0.00     0.124 A 
HETATM   21  N4  UNL     1      52.171  50.937  18.295  1.00  0.00    -0.304 N 
HETATM   22  C24 UNL     1      52.670  51.744  19.274  1.00  0.00     0.329 A 
ATOM     23  H4  UNL     1      52.567  50.046  17.996  1.00  0.00     0.170 HD
HETATM   24  O4  UNL     1      53.729  51.387  19.902  1.00  0.00    -0.246 OA
BRANCH  19  25
HETATM   25  O2  UNL     1      49.854  53.556  18.231  1.00  0.00    -0.344 OA
ATOM     26  H2  UNL     1      48.924  53.411  18.356  1.00  0.00     0.219 HD
ENDBRANCH  19  25
BRANCH  20  27
HETATM   27  C17 UNL     1      50.231  50.978  16.707  1.00  0.00     0.412 C 
BRANCH  27  28
HETATM   28  O3  UNL     1      49.378  52.005  16.299  1.00  0.00    -0.363 OA
ATOM     29  H3  UNL     1      48.886  51.687  15.551  1.00  0.00     0.212 HD
ENDBRANCH  27  28
BRANCH  27  30
HETATM   30  N3  UNL     1      49.468  49.843  17.212  1.00  0.00     0.123 N 
BRANCH  30  31
HETATM   31  C18 UNL     1      49.152  48.917  16.133  1.00  0.00     0.276 C 
BRANCH  31  32
HETATM   32  C19 UNL     1      48.159  49.510  15.158  1.00  0.00     0.026 C 
HETATM   33  C20 UNL     1      47.114  48.414  14.908  1.00  0.00     0.007 C 
ENDBRANCH  31  32
ENDBRANCH  30  31
BRANCH  30  34
HETATM   34  C21 UNL     1      48.165  50.354  17.653  1.00  0.00     0.276 C 
BRANCH  34  35
HETATM   35  C22 UNL     1      47.516  49.515  18.699  1.00  0.00     0.026 C 
HETATM   36  C23 UNL     1      46.092  49.110  18.338  1.00  0.00     0.007 C 
ENDBRANCH  34  35
ENDBRANCH  30  34
ENDBRANCH  27  30
ENDBRANCH  20  27
ENDBRANCH  17  18
ENDBRANCH  16  17
ENDBRANCH   8  11
ENDBRANCH   4   7
ENDBRANCH   3   4
TORSDOF 13
ENDMDL
MODEL 4
REMARK VINA RESULT: -8.260479736      1.697      2.435
REMARK  13 active torsions:
REMARK  status: ('A' for Active; 'I' for Inactive)
REMARK    1  A    between atoms: C3_3  and  C4_4 
REMARK    2  A    between atoms: C4_4  and  N1_7 
REMARK       I    between atoms: N1_7  and  C7_9 
REMARK    3  A    between atoms: C7_9  and  C8_11 
REMARK    4  A    between atoms: C13_16  and  C14_17 
REMARK    5  A    between atoms: C14_17  and  N2_18 
REMARK    6  A    between atoms: C15_19  and  O2_20 
REMARK    7  A    between atoms: C16_22  and  C17_23 
REMARK    8  A    between atoms: C17_23  and  O3_24 
REMARK    9  A    between atoms: C17_23  and  N3_26 
REMARK   10  A    between atoms: N3_26  and  C18_27 
REMARK   11  A    between atoms: N3_26  and  C21_30 
REMARK   12  A    between atoms: C18_27  and  C19_28 
REMARK   13  A    between atoms: C21_30  and  C22_31 
ROOT
HETATM    1  C1  UNL     1      54.415  58.494  21.461  1.00  0.00     0.112 C 
HETATM    2  C2  UNL     1      52.985  58.296  21.205  1.00  0.00    -0.108 C 
HETATM    3  C3  UNL     1      51.810  58.115  20.991  1.00  0.00    -0.076 C 
ENDROOT
BRANCH   3   4
HETATM    4  C4  UNL     1      50.392  57.871  20.730  1.00  0.00     0.089 C 
HETATM    5  C5  UNL     1      49.929  58.667  19.502  1.00  0.00     0.053 C 
HETATM    6  C6  UNL     1      49.627  58.442  21.902  1.00  0.00     0.053 C 
BRANCH   4   7
HETATM    7  N1  UNL     1      50.107  56.463  20.541  1.00  0.00    -0.341 N 
HETATM    8  C7  UNL     1      50.725  55.684  19.546  1.00  0.00     0.223 C 
HETATM    9  O1  UNL     1      51.569  56.328  18.815  1.00  0.00    -0.273 OA
ATOM     10  H1  UNL     1      49.428  56.016  21.158  1.00  0.00     0.164 HD
BRANCH   8  11
HETATM   11  C8  UNL     1      50.475  54.232  19.295  1.00  0.00     0.083 C 
HETATM   12  C9  UNL     1      49.873  53.622  20.505  1.00  0.00     0.014 C 
HETATM   13  C10 UNL     1      50.811  53.157  21.545  1.00  0.00     0.001 C 
HETATM   14  C11 UNL     1      51.974  52.443  20.971  1.00  0.00     0.000 C 
HETATM   15  C12 UNL     1      52.611  53.014  19.769  1.00  0.00     0.007 C 
HETATM   16  C13 UNL     1      51.662  53.552  18.730  1.00  0.00     0.017 C 
BRANCH  16  17
HETATM   17  C14 UNL     1      51.455  52.659  17.544  1.00  0.00     0.141 C 
BRANCH  17  18
HETATM   18  N2  UNL     1      50.247  51.941  17.408  1.00  0.00    -0.278 N 
HETATM   19  C15 UNL     1      50.013  50.675  17.783  1.00  0.00     0.174 A 
HETATM   20  C16 UNL     1      48.712  50.302  17.459  1.00  0.00     0.124 A 
HETATM   21  N4  UNL     1      48.170  51.375  16.882  1.00  0.00    -0.304 N 
HETATM   22  C24 UNL     1      49.105  52.365  16.853  1.00  0.00     0.329 A 
ATOM     23  H4  UNL     1      47.217  51.442  16.523  1.00  0.00     0.170 HD
HETATM   24  O4  UNL     1      48.805  53.498  16.334  1.00  0.00    -0.246 OA
BRANCH  19  25
HETATM   25  O2  UNL     1      50.874  49.767  18.409  1.00  0.00    -0.344 OA
ATOM     26  H2  UNL     1      51.237  48.956  18.074  1.00  0.00     0.219 HD
ENDBRANCH  19  25
BRANCH  20  27
HETATM   27  C17 UNL     1      48.039  49.009  17.705  1.00  0.00     0.412 C 
BRANCH  27  28
HETATM   28  O3  UNL     1      48.951  47.998  17.399  1.00  0.00    -0.363 OA
ATOM     29  H3  UNL     1      49.821  48.380  17.431  1.00  0.00     0.212 HD
ENDBRANCH  27  28
BRANCH  27  30
HETATM   30  N3  UNL     1      46.862  48.919  16.849  1.00  0.00     0.123 N 
BRANCH  30  31
HETATM   31  C18 UNL     1      45.790  48.204  17.527  1.00  0.00     0.276 C 
BRANCH  31  32
HETATM   32  C19 UNL     1      45.914  48.300  19.032  1.00  0.00     0.026 C 
HETATM   33  C20 UNL     1      44.791  47.423  19.602  1.00  0.00     0.007 C 
ENDBRANCH  31  32
ENDBRANCH  30  31
BRANCH  30  34
HETATM   34  C21 UNL     1      47.215  48.064  15.711  1.00  0.00     0.276 C 
BRANCH  34  35
HETATM   35  C22 UNL     1      46.800  48.620  14.393  1.00  0.00     0.026 C 
HETATM   36  C23 UNL     1      45.624  47.873  13.775  1.00  0.00     0.007 C 
ENDBRANCH  34  35
ENDBRANCH  30  34
ENDBRANCH  27  30
ENDBRANCH  20  27
ENDBRANCH  17  18
ENDBRANCH  16  17
ENDBRANCH   8  11
ENDBRANCH   4   7
ENDBRANCH   3   4
TORSDOF 13
ENDMDL
MODEL 5
REMARK VINA RESULT: -8.242323850      2.704      3.647
REMARK  13 active torsions:
REMARK  status: ('A' for Active; 'I' for Inactive)
REMARK    1  A    between atoms: C3_3  and  C4_4 
REMARK    2  A    between atoms: C4_4  and  N1_7 
REMARK       I    between atoms: N1_7  and  C7_9 
REMARK    3  A    between atoms: C7_9  and  C8_11 
REMARK    4  A    between atoms: C13_16  and  C14_17 
REMARK    5  A    between atoms: C14_17  and  N2_18 
REMARK    6  A    between atoms: C15_19  and  O2_20 
REMARK    7  A    between atoms: C16_22  and  C17_23 
REMARK    8  A    between atoms: C17_23  and  O3_24 
REMARK    9  A    between atoms: C17_23  and  N3_26 
REMARK   10  A    between atoms: N3_26  and  C18_27 
REMARK   11  A    between atoms: N3_26  and  C21_30 
REMARK   12  A    between atoms: C18_27  and  C19_28 
REMARK   13  A    between atoms: C21_30  and  C22_31 
ROOT
HETATM    1  C1  UNL     1      47.896  60.049  19.034  1.00  0.00     0.112 C 
HETATM    2  C2  UNL     1      48.034  58.973  18.047  1.00  0.00    -0.108 C 
HETATM    3  C3  UNL     1      48.129  58.087  17.232  1.00  0.00    -0.076 C 
ENDROOT
BRANCH   3   4
HETATM    4  C4  UNL     1      48.219  57.015  16.240  1.00  0.00     0.089 C 
HETATM    5  C5  UNL     1      49.320  57.325  15.216  1.00  0.00     0.053 C 
HETATM    6  C6  UNL     1      46.921  57.026  15.465  1.00  0.00     0.053 C 
BRANCH   4   7
HETATM    7  N1  UNL     1      48.465  55.726  16.853  1.00  0.00    -0.341 N 
HETATM    8  C7  UNL     1      49.632  55.434  17.581  1.00  0.00     0.223 C 
HETATM    9  O1  UNL     1      50.467  56.412  17.660  1.00  0.00    -0.273 OA
ATOM     10  H1  UNL     1      47.759  54.996  16.751  1.00  0.00     0.164 HD
BRANCH   8  11
HETATM   11  C8  UNL     1      49.949  54.127  18.233  1.00  0.00     0.083 C 
HETATM   12  C9  UNL     1      49.252  54.049  19.540  1.00  0.00     0.014 C 
HETATM   13  C10 UNL     1      49.945  54.655  20.693  1.00  0.00     0.001 C 
HETATM   14  C11 UNL     1      51.390  54.334  20.710  1.00  0.00     0.000 C 
HETATM   15  C12 UNL     1      52.129  54.402  19.435  1.00  0.00     0.007 C 
HETATM   16  C13 UNL     1      51.402  53.845  18.239  1.00  0.00     0.017 C 
BRANCH  16  17
HETATM   17  C14 UNL     1      51.850  52.480  17.810  1.00  0.00     0.141 C 
BRANCH  17  18
HETATM   18  N2  UNL     1      51.005  51.367  18.018  1.00  0.00    -0.278 N 
HETATM   19  C15 UNL     1      50.318  50.689  17.088  1.00  0.00     0.174 A 
HETATM   20  C16 UNL     1      49.571  49.673  17.677  1.00  0.00     0.124 A 
HETATM   21  N4  UNL     1      49.827  49.757  18.983  1.00  0.00    -0.304 N 
HETATM   22  C24 UNL     1      50.697  50.787  19.184  1.00  0.00     0.329 A 
ATOM     23  H4  UNL     1      49.437  49.154  19.708  1.00  0.00     0.170 HD
HETATM   24  O4  UNL     1      51.083  51.060  20.376  1.00  0.00    -0.246 OA
BRANCH  19  25
HETATM   25  O2  UNL     1      50.277  50.885  15.703  1.00  0.00    -0.344 OA
ATOM     26  H2  UNL     1      50.950  51.226  15.126  1.00  0.00     0.219 HD
ENDBRANCH  19  25
BRANCH  20  27
HETATM   27  C17 UNL     1      48.688  48.684  17.023  1.00  0.00     0.412 C 
BRANCH  27  28
HETATM   28  O3  UNL     1      49.438  48.042  16.037  1.00  0.00    -0.363 OA
ATOM     29  H3  UNL     1      50.356  48.194  16.232  1.00  0.00     0.212 HD
ENDBRANCH  27  28
BRANCH  27  30
HETATM   30  N3  UNL     1      47.551  49.383  16.435  1.00  0.00     0.123 N 
BRANCH  30  31
HETATM   31  C18 UNL     1      46.300  48.872  16.979  1.00  0.00     0.276 C 
BRANCH  31  32
HETATM   32  C19 UNL     1      46.349  48.757  18.486  1.00  0.00     0.026 C 
HETATM   33  C20 UNL     1      45.202  47.814  18.871  1.00  0.00     0.007 C 
ENDBRANCH  31  32
ENDBRANCH  30  31
BRANCH  30  34
HETATM   34  C21 UNL     1      47.509  49.026  15.013  1.00  0.00     0.276 C 
BRANCH  34  35
HETATM   35  C22 UNL     1      46.280  48.280  14.620  1.00  0.00     0.026 C 
HETATM   36  C23 UNL     1      45.830  48.584  13.196  1.00  0.00     0.007 C 
ENDBRANCH  34  35
ENDBRANCH  30  34
ENDBRANCH  27  30
ENDBRANCH  20  27
ENDBRANCH  17  18
ENDBRANCH  16  17
ENDBRANCH   8  11
ENDBRANCH   4   7
ENDBRANCH   3   4
TORSDOF 13
ENDMDL
