MODEL 1
REMARK VINA RESULT: -8.389090591      0.000      0.000
REMARK  11 active torsions:
REMARK  status: ('A' for Active; 'I' for Inactive)
REMARK    1  A    between atoms: C2_2  and  C3_3 
REMARK    2  A    between atoms: C3_3  and  C4_4 
REMARK    3  A    between atoms: C3_3  and  C25_33 
REMARK    4  A    between atoms: C4_4  and  C5_5 
REMARK    5  A    between atoms: C5_5  and  C6_6 
REMARK    6  A    between atoms: C6_6  and  C7_7 
REMARK    7  A    between atoms: C8_8  and  C9_9 
REMARK    8  A    between atoms: C9_9  and  C10_10 
REMARK    9  A    between atoms: C12_14  and  C13_15 
REMARK   10  A    between atoms: C17_19  and  O3_20 
REMARK   11  A    between atoms: C24_30  and  O4_31 
ROOT
HETATM    1  C10 UNL     1      51.228  51.947  19.159  1.00  0.00     0.159 C 
HETATM    2  O1  UNL     1      50.129  52.794  19.292  1.00  0.00    -0.351 OA
HETATM    3  C11 UNL     1      50.376  53.882  18.430  1.00  0.00     0.285 C 
HETATM    4  O2  UNL     1      49.475  54.864  18.684  1.00  0.00    -0.353 OA
HETATM    5  C12 UNL     1      49.564  55.973  17.896  1.00  0.00     0.131 C 
HETATM    6  C16 UNL     1      49.034  57.245  18.458  1.00  0.00     0.068 C 
HETATM    7  C17 UNL     1      48.653  57.278  19.879  1.00  0.00     0.143 C 
HETATM    8  C18 UNL     1      49.283  58.333  20.711  1.00  0.00     0.001 C 
HETATM    9  C19 UNL     1      50.528  58.547  20.976  1.00  0.00    -0.028 C 
HETATM   10  C20 UNL     1      51.740  57.821  20.544  1.00  0.00     0.028 C 
HETATM   11  C21 UNL     1      52.121  56.647  21.396  1.00  0.00     0.023 C 
HETATM   12  C22 UNL     1      52.801  55.573  20.537  1.00  0.00     0.114 C 
HETATM   13  N1  UNL     1      51.912  54.503  20.207  1.00  0.00    -0.410 N 
ATOM     14  H1  UNL     1      51.384  53.997  20.919  1.00  0.00     0.153 HD
HETATM   15  C23 UNL     1      51.810  54.188  18.817  1.00  0.00     0.163 C 
HETATM   16  C24 UNL     1      52.392  52.771  18.666  1.00  0.00     0.174 C 
ENDROOT
BRANCH   1  17
HETATM   17  C9  UNL     1      50.818  50.869  18.173  1.00  0.00     0.061 C 
BRANCH  17  18
HETATM   18  C8  UNL     1      49.861  49.923  18.714  1.00  0.00    -0.028 C 
HETATM   19  C7  UNL     1      48.595  49.861  18.405  1.00  0.00    -0.031 C 
BRANCH  19  20
HETATM   20  C6  UNL     1      47.931  50.757  17.442  1.00  0.00     0.027 C 
BRANCH  20  21
HETATM   21  C5  UNL     1      48.028  50.185  16.038  1.00  0.00     0.005 C 
BRANCH  21  22
HETATM   22  C4  UNL     1      47.536  48.779  15.933  1.00  0.00     0.015 C 
BRANCH  22  23
HETATM   23  C3  UNL     1      46.061  48.681  16.106  1.00  0.00     0.086 C 
BRANCH  23  24
HETATM   24  C2  UNL     1      45.748  47.668  17.210  1.00  0.00     0.011 C 
HETATM   25  C1  UNL     1      45.197  48.450  18.370  1.00  0.00     0.006 C 
ENDBRANCH  23  24
BRANCH  23  26
HETATM   26  C25 UNL     1      45.319  48.222  14.917  1.00  0.00     0.176 C 
HETATM   27  O5  UNL     1      45.855  48.211  13.799  1.00  0.00    -0.648 OA
HETATM   28  O6  UNL     1      44.009  47.793  15.030  1.00  0.00    -0.648 OA
ENDBRANCH  23  26
ENDBRANCH  22  23
ENDBRANCH  21  22
ENDBRANCH  20  21
ENDBRANCH  19  20
ENDBRANCH  17  18
ENDBRANCH   1  17
BRANCH  16  29
HETATM   29  O4  UNL     1      53.526  52.608  19.445  1.00  0.00    -0.391 OA
ATOM     30  H4  UNL     1      54.162  52.026  19.045  1.00  0.00     0.210 HD
ENDBRANCH  16  29
BRANCH   5  31
HETATM   31  C13 UNL     1      49.045  55.705  16.486  1.00  0.00     0.006 C 
HETATM   32  C14 UNL     1      48.874  57.032  15.763  1.00  0.00     0.012 C 
HETATM   33  C15 UNL     1      47.826  54.854  16.450  1.00  0.00     0.012 C 
ENDBRANCH   5  31
BRANCH   7  34
HETATM   34  O3  UNL     1      48.786  56.085  20.583  1.00  0.00    -0.392 OA
ATOM     35  H3  UNL     1      49.163  56.148  21.453  1.00  0.00     0.210 HD
ENDBRANCH   7  34
TORSDOF 11
ENDMDL
MODEL 2
REMARK VINA RESULT: -8.370509543      0.841      1.150
REMARK  11 active torsions:
REMARK  status: ('A' for Active; 'I' for Inactive)
REMARK    1  A    between atoms: C2_2  and  C3_3 
REMARK    2  A    between atoms: C3_3  and  C4_4 
REMARK    3  A    between atoms: C3_3  and  C25_33 
REMARK    4  A    between atoms: C4_4  and  C5_5 
REMARK    5  A    between atoms: C5_5  and  C6_6 
REMARK    6  A    between atoms: C6_6  and  C7_7 
REMARK    7  A    between atoms: C8_8  and  C9_9 
REMARK    8  A    between atoms: C9_9  and  C10_10 
REMARK    9  A    between atoms: C12_14  and  C13_15 
REMARK   10  A    between atoms: C17_19  and  O3_20 
REMARK   11  A    between atoms: C24_30  and  O4_31 
ROOT
HETATM    1  C10 UNL     1      50.994  51.875  19.069  1.00  0.00     0.159 C 
HETATM    2  O1  UNL     1      49.939  52.774  19.216  1.00  0.00    -0.351 OA
HETATM    3  C11 UNL     1      50.239  53.860  18.369  1.00  0.00     0.285 C 
HETATM    4  O2  UNL     1      49.389  54.882  18.640  1.00  0.00    -0.353 OA
HETATM    5  C12 UNL     1      49.532  55.997  17.867  1.00  0.00     0.131 C 
HETATM    6  C16 UNL     1      49.067  57.285  18.448  1.00  0.00     0.068 C 
HETATM    7  C17 UNL     1      48.691  57.317  19.871  1.00  0.00     0.143 C 
HETATM    8  C18 UNL     1      49.375  58.328  20.716  1.00  0.00     0.001 C 
HETATM    9  C19 UNL     1      50.630  58.475  20.980  1.00  0.00    -0.028 C 
HETATM   10  C20 UNL     1      51.802  57.695  20.535  1.00  0.00     0.028 C 
HETATM   11  C21 UNL     1      52.126  56.492  21.370  1.00  0.00     0.023 C 
HETATM   12  C22 UNL     1      52.750  55.397  20.494  1.00  0.00     0.114 C 
HETATM   13  N1  UNL     1      51.807  54.378  20.151  1.00  0.00    -0.410 N 
ATOM     14  H1  UNL     1      51.256  53.889  20.857  1.00  0.00     0.153 HD
HETATM   15  C23 UNL     1      51.687  54.088  18.757  1.00  0.00     0.163 C 
HETATM   16  C24 UNL     1      52.197  52.647  18.584  1.00  0.00     0.174 C 
ENDROOT
BRANCH   1  17
HETATM   17  C9  UNL     1      50.528  50.832  18.069  1.00  0.00     0.061 C 
BRANCH  17  18
HETATM   18  C8  UNL     1      51.196  50.923  16.785  1.00  0.00    -0.028 C 
HETATM   19  C7  UNL     1      50.688  50.567  15.636  1.00  0.00    -0.031 C 
BRANCH  19  20
HETATM   20  C6  UNL     1      49.335  50.010  15.465  1.00  0.00     0.027 C 
BRANCH  20  21
HETATM   21  C5  UNL     1      49.343  48.515  15.734  1.00  0.00     0.005 C 
BRANCH  21  22
HETATM   22  C4  UNL     1      48.161  48.043  16.514  1.00  0.00     0.015 C 
BRANCH  22  23
HETATM   23  C3  UNL     1      46.976  48.927  16.337  1.00  0.00     0.086 C 
BRANCH  23  24
HETATM   24  C2  UNL     1      46.217  49.026  17.662  1.00  0.00     0.011 C 
HETATM   25  C1  UNL     1      47.242  49.290  18.730  1.00  0.00     0.006 C 
ENDBRANCH  23  24
BRANCH  23  26
HETATM   26  C25 UNL     1      45.991  48.464  15.342  1.00  0.00     0.176 C 
HETATM   27  O5  UNL     1      46.261  48.470  14.132  1.00  0.00    -0.648 OA
HETATM   28  O6  UNL     1      44.747  48.013  15.744  1.00  0.00    -0.648 OA
ENDBRANCH  23  26
ENDBRANCH  22  23
ENDBRANCH  21  22
ENDBRANCH  20  21
ENDBRANCH  19  20
ENDBRANCH  17  18
ENDBRANCH   1  17
BRANCH  16  29
HETATM   29  O4  UNL     1      53.323  52.415  19.358  1.00  0.00    -0.391 OA
ATOM     30  H4  UNL     1      53.813  51.655  19.069  1.00  0.00     0.210 HD
ENDBRANCH  16  29
BRANCH   5  31
HETATM   31  C13 UNL     1      48.998  55.775  16.455  1.00  0.00     0.006 C 
HETATM   32  C14 UNL     1      48.759  57.126  15.800  1.00  0.00     0.012 C 
HETATM   33  C15 UNL     1      47.813  54.877  16.398  1.00  0.00     0.012 C 
ENDBRANCH   5  31
BRANCH   7  34
HETATM   34  O3  UNL     1      48.765  56.109  20.557  1.00  0.00    -0.392 OA
ATOM     35  H3  UNL     1      49.502  55.547  20.344  1.00  0.00     0.210 HD
ENDBRANCH   7  34
TORSDOF 11
ENDMDL
MODEL 3
REMARK VINA RESULT: -8.357673943      2.283      7.963
REMARK  11 active torsions:
REMARK  status: ('A' for Active; 'I' for Inactive)
REMARK    1  A    between atoms: C2_2  and  C3_3 
REMARK    2  A    between atoms: C3_3  and  C4_4 
REMARK    3  A    between atoms: C3_3  and  C25_33 
REMARK    4  A    between atoms: C4_4  and  C5_5 
REMARK    5  A    between atoms: C5_5  and  C6_6 
REMARK    6  A    between atoms: C6_6  and  C7_7 
REMARK    7  A    between atoms: C8_8  and  C9_9 
REMARK    8  A    between atoms: C9_9  and  C10_10 
REMARK    9  A    between atoms: C12_14  and  C13_15 
REMARK   10  A    between atoms: C17_19  and  O3_20 
REMARK   11  A    between atoms: C24_30  and  O4_31 
ROOT
HETATM    1  C10 UNL     1      51.291  53.533  19.694  1.00  0.00     0.159 C 
HETATM    2  O1  UNL     1      50.162  53.276  18.918  1.00  0.00    -0.351 OA
HETATM    3  C11 UNL     1      50.037  51.873  18.876  1.00  0.00     0.285 C 
HETATM    4  O2  UNL     1      49.112  51.537  17.943  1.00  0.00    -0.353 OA
HETATM    5  C12 UNL     1      48.850  50.204  17.815  1.00  0.00     0.131 C 
HETATM    6  C16 UNL     1      48.321  49.743  16.503  1.00  0.00     0.068 C 
HETATM    7  C17 UNL     1      48.316  50.692  15.377  1.00  0.00     0.143 C 
HETATM    8  C18 UNL     1      48.995  50.250  14.133  1.00  0.00     0.001 C 
HETATM    9  C19 UNL     1      50.228  49.923  13.934  1.00  0.00    -0.028 C 
HETATM   10  C20 UNL     1      51.372  49.878  14.867  1.00  0.00     0.028 C 
HETATM   11  C21 UNL     1      52.108  51.173  15.041  1.00  0.00     0.023 C 
HETATM   12  C22 UNL     1      52.680  51.265  16.463  1.00  0.00     0.114 C 
HETATM   13  N1  UNL     1      51.882  52.093  17.312  1.00  0.00    -0.410 N 
ATOM     14  H1  UNL     1      51.624  53.046  17.053  1.00  0.00     0.153 HD
HETATM   15  C23 UNL     1      51.469  51.503  18.545  1.00  0.00     0.163 C 
HETATM   16  C24 UNL     1      52.173  52.309  19.652  1.00  0.00     0.174 C 
ENDROOT
BRANCH   1  17
HETATM   17  C9  UNL     1      50.786  53.840  21.092  1.00  0.00     0.061 C 
BRANCH  17  18
HETATM   18  C8  UNL     1      51.846  54.008  22.067  1.00  0.00    -0.028 C 
HETATM   19  C7  UNL     1      52.150  55.122  22.676  1.00  0.00    -0.031 C 
BRANCH  19  20
HETATM   20  C6  UNL     1      51.450  56.401  22.464  1.00  0.00     0.027 C 
BRANCH  20  21
HETATM   21  C5  UNL     1      52.077  57.158  21.306  1.00  0.00     0.005 C 
BRANCH  21  22
HETATM   22  C4  UNL     1      51.086  57.613  20.286  1.00  0.00     0.015 C 
BRANCH  22  23
HETATM   23  C3  UNL     1      49.689  57.254  20.654  1.00  0.00     0.086 C 
BRANCH  23  24
HETATM   24  C2  UNL     1      48.986  56.646  19.440  1.00  0.00     0.011 C 
HETATM   25  C1  UNL     1      49.974  56.678  18.307  1.00  0.00     0.006 C 
ENDBRANCH  23  24
BRANCH  23  26
HETATM   26  C25 UNL     1      48.844  58.384  21.084  1.00  0.00     0.176 C 
HETATM   27  O5  UNL     1      49.122  59.033  22.103  1.00  0.00    -0.648 OA
HETATM   28  O6  UNL     1      47.725  58.741  20.354  1.00  0.00    -0.648 OA
ENDBRANCH  23  26
ENDBRANCH  22  23
ENDBRANCH  21  22
ENDBRANCH  20  21
ENDBRANCH  19  20
ENDBRANCH  17  18
ENDBRANCH   1  17
BRANCH  16  29
HETATM   29  O4  UNL     1      53.480  52.608  19.302  1.00  0.00    -0.391 OA
ATOM     30  H4  UNL     1      53.533  53.292  18.645  1.00  0.00     0.210 HD
ENDBRANCH  16  29
BRANCH   5  31
HETATM   31  C13 UNL     1      48.028  49.676  18.987  1.00  0.00     0.006 C 
HETATM   32  C14 UNL     1      48.947  48.923  19.935  1.00  0.00     0.012 C 
HETATM   33  C15 UNL     1      46.836  48.888  18.573  1.00  0.00     0.012 C 
ENDBRANCH   5  31
BRANCH   7  34
HETATM   34  O3  UNL     1      48.779  51.976  15.648  1.00  0.00    -0.392 OA
ATOM     35  H3  UNL     1      49.690  52.050  15.905  1.00  0.00     0.210 HD
ENDBRANCH   7  34
TORSDOF 11
ENDMDL
MODEL 4
REMARK VINA RESULT: -8.325977175      2.845      8.793
REMARK  11 active torsions:
REMARK  status: ('A' for Active; 'I' for Inactive)
REMARK    1  A    between atoms: C2_2  and  C3_3 
REMARK    2  A    between atoms: C3_3  and  C4_4 
REMARK    3  A    between atoms: C3_3  and  C25_33 
REMARK    4  A    between atoms: C4_4  and  C5_5 
REMARK    5  A    between atoms: C5_5  and  C6_6 
REMARK    6  A    between atoms: C6_6  and  C7_7 
REMARK    7  A    between atoms: C8_8  and  C9_9 
REMARK    8  A    between atoms: C9_9  and  C10_10 
REMARK    9  A    between atoms: C12_14  and  C13_15 
REMARK   10  A    between atoms: C17_19  and  O3_20 
REMARK   11  A    between atoms: C24_30  and  O4_31 
ROOT
HETATM    1  C10 UNL     1      51.352  53.462  19.715  1.00  0.00     0.159 C 
HETATM    2  O1  UNL     1      50.213  53.230  18.945  1.00  0.00    -0.351 OA
HETATM    3  C11 UNL     1      50.068  51.830  18.886  1.00  0.00     0.285 C 
HETATM    4  O2  UNL     1      49.130  51.519  17.957  1.00  0.00    -0.353 OA
HETATM    5  C12 UNL     1      48.849  50.192  17.813  1.00  0.00     0.131 C 
HETATM    6  C16 UNL     1      48.303  49.755  16.500  1.00  0.00     0.068 C 
HETATM    7  C17 UNL     1      48.302  50.718  15.387  1.00  0.00     0.143 C 
HETATM    8  C18 UNL     1      48.965  50.283  14.132  1.00  0.00     0.001 C 
HETATM    9  C19 UNL     1      50.191  49.942  13.917  1.00  0.00    -0.028 C 
HETATM   10  C20 UNL     1      51.342  49.869  14.840  1.00  0.00     0.028 C 
HETATM   11  C21 UNL     1      52.097  51.151  15.025  1.00  0.00     0.023 C 
HETATM   12  C22 UNL     1      52.682  51.216  16.443  1.00  0.00     0.114 C 
HETATM   13  N1  UNL     1      51.903  52.045  17.309  1.00  0.00    -0.410 N 
ATOM     14  H1  UNL     1      51.657  53.005  17.065  1.00  0.00     0.153 HD
HETATM   15  C23 UNL     1      51.492  51.444  18.539  1.00  0.00     0.163 C 
HETATM   16  C24 UNL     1      52.216  52.226  19.649  1.00  0.00     0.174 C 
ENDROOT
BRANCH   1  17
HETATM   17  C9  UNL     1      50.863  53.757  21.121  1.00  0.00     0.061 C 
BRANCH  17  18
HETATM   18  C8  UNL     1      51.863  54.383  21.963  1.00  0.00    -0.028 C 
HETATM   19  C7  UNL     1      51.880  55.639  22.319  1.00  0.00    -0.031 C 
BRANCH  19  20
HETATM   20  C6  UNL     1      50.867  56.629  21.914  1.00  0.00     0.027 C 
BRANCH  20  21
HETATM   21  C5  UNL     1      51.540  57.896  21.416  1.00  0.00     0.005 C 
BRANCH  21  22
HETATM   22  C4  UNL     1      52.321  57.701  20.158  1.00  0.00     0.015 C 
BRANCH  22  23
HETATM   23  C3  UNL     1      53.726  58.176  20.283  1.00  0.00     0.086 C 
BRANCH  23  24
HETATM   24  C2  UNL     1      54.674  57.097  19.758  1.00  0.00     0.011 C 
HETATM   25  C1  UNL     1      53.813  56.021  19.154  1.00  0.00     0.006 C 
ENDBRANCH  23  24
BRANCH  23  26
HETATM   26  C25 UNL     1      54.170  58.466  21.659  1.00  0.00     0.176 C 
HETATM   27  O5  UNL     1      54.808  57.627  22.310  1.00  0.00    -0.648 OA
HETATM   28  O6  UNL     1      53.882  59.685  22.248  1.00  0.00    -0.648 OA
ENDBRANCH  23  26
ENDBRANCH  22  23
ENDBRANCH  21  22
ENDBRANCH  20  21
ENDBRANCH  19  20
ENDBRANCH  17  18
ENDBRANCH   1  17
BRANCH  16  29
HETATM   29  O4  UNL     1      53.524  52.512  19.293  1.00  0.00    -0.391 OA
ATOM     30  H4  UNL     1      53.594  53.299  18.766  1.00  0.00     0.210 HD
ENDBRANCH  16  29
BRANCH   5  31
HETATM   31  C13 UNL     1      48.029  49.660  18.985  1.00  0.00     0.006 C 
HETATM   32  C14 UNL     1      48.955  48.926  19.942  1.00  0.00     0.012 C 
HETATM   33  C15 UNL     1      46.850  48.852  18.571  1.00  0.00     0.012 C 
ENDBRANCH   5  31
BRANCH   7  34
HETATM   34  O3  UNL     1      48.785  51.992  15.670  1.00  0.00    -0.392 OA
ATOM     35  H3  UNL     1      48.187  52.580  16.118  1.00  0.00     0.210 HD
ENDBRANCH   7  34
TORSDOF 11
ENDMDL
MODEL 5
REMARK VINA RESULT: -8.323351876      1.332      1.787
REMARK  11 active torsions:
REMARK  status: ('A' for Active; 'I' for Inactive)
REMARK    1  A    between atoms: C2_2  and  C3_3 
REMARK    2  A    between atoms: C3_3  and  C4_4 
REMARK    3  A    between atoms: C3_3  and  C25_33 
REMARK    4  A    between atoms: C4_4  and  C5_5 
REMARK    5  A    between atoms: C5_5  and  C6_6 
REMARK    6  A    between atoms: C6_6  and  C7_7 
REMARK    7  A    between atoms: C8_8  and  C9_9 
REMARK    8  A    between atoms: C9_9  and  C10_10 
REMARK    9  A    between atoms: C12_14  and  C13_15 
REMARK   10  A    between atoms: C17_19  and  O3_20 
REMARK   11  A    between atoms: C24_30  and  O4_31 
ROOT
HETATM    1  C10 UNL     1      51.061  51.803  19.263  1.00  0.00     0.159 C 
HETATM    2  O1  UNL     1      50.018  52.716  19.406  1.00  0.00    -0.351 OA
HETATM    3  C11 UNL     1      50.268  53.736  18.466  1.00  0.00     0.285 C 
HETATM    4  O2  UNL     1      49.437  54.780  18.710  1.00  0.00    -0.353 OA
HETATM    5  C12 UNL     1      49.534  55.834  17.850  1.00  0.00     0.131 C 
HETATM    6  C16 UNL     1      49.107  57.164  18.361  1.00  0.00     0.068 C 
HETATM    7  C17 UNL     1      48.817  57.302  19.798  1.00  0.00     0.143 C 
HETATM    8  C18 UNL     1      49.552  58.368  20.524  1.00  0.00     0.001 C 
HETATM    9  C19 UNL     1      50.820  58.528  20.702  1.00  0.00    -0.028 C 
HETATM   10  C20 UNL     1      51.963  57.710  20.246  1.00  0.00     0.028 C 
HETATM   11  C21 UNL     1      52.334  56.569  21.147  1.00  0.00     0.023 C 
HETATM   12  C22 UNL     1      52.903  55.410  20.318  1.00  0.00     0.114 C 
HETATM   13  N1  UNL     1      51.941  54.374  20.107  1.00  0.00    -0.410 N 
ATOM     14  H1  UNL     1      51.432  53.942  20.879  1.00  0.00     0.153 HD
HETATM   15  C23 UNL     1      51.737  53.984  18.748  1.00  0.00     0.163 C 
HETATM   16  C24 UNL     1      52.234  52.530  18.652  1.00  0.00     0.174 C 
ENDROOT
BRANCH   1  17
HETATM   17  C9  UNL     1      50.535  50.693  18.371  1.00  0.00     0.061 C 
BRANCH  17  18
HETATM   18  C8  UNL     1      49.844  49.646  19.098  1.00  0.00    -0.028 C 
HETATM   19  C7  UNL     1      48.555  49.437  19.090  1.00  0.00    -0.031 C 
BRANCH  19  20
HETATM   20  C6  UNL     1      47.589  50.248  18.328  1.00  0.00     0.027 C 
BRANCH  20  21
HETATM   21  C5  UNL     1      46.404  49.396  17.907  1.00  0.00     0.005 C 
BRANCH  21  22
HETATM   22  C4  UNL     1      46.707  48.474  16.773  1.00  0.00     0.015 C 
BRANCH  22  23
HETATM   23  C3  UNL     1      47.344  49.177  15.626  1.00  0.00     0.086 C 
BRANCH  23  24
HETATM   24  C2  UNL     1      46.664  48.743  14.326  1.00  0.00     0.011 C 
HETATM   25  C1  UNL     1      45.462  47.930  14.717  1.00  0.00     0.006 C 
ENDBRANCH  23  24
BRANCH  23  26
HETATM   26  C25 UNL     1      48.781  48.901  15.440  1.00  0.00     0.176 C 
HETATM   27  O5  UNL     1      49.314  47.920  15.979  1.00  0.00    -0.648 OA
HETATM   28  O6  UNL     1      49.560  49.732  14.656  1.00  0.00    -0.648 OA
ENDBRANCH  23  26
ENDBRANCH  22  23
ENDBRANCH  21  22
ENDBRANCH  20  21
ENDBRANCH  19  20
ENDBRANCH  17  18
ENDBRANCH   1  17
BRANCH  16  29
HETATM   29  O4  UNL     1      53.404  52.350  19.372  1.00  0.00    -0.391 OA
ATOM     30  H4  UNL     1      54.176  52.350  18.818  1.00  0.00     0.210 HD
ENDBRANCH  16  29
BRANCH   5  31
HETATM   31  C13 UNL     1      48.917  55.512  16.492  1.00  0.00     0.006 C 
HETATM   32  C14 UNL     1      48.534  56.813  15.804  1.00  0.00     0.012 C 
HETATM   33  C15 UNL     1      47.799  54.532  16.562  1.00  0.00     0.012 C 
ENDBRANCH   5  31
BRANCH   7  34
HETATM   34  O3  UNL     1      48.931  56.147  20.566  1.00  0.00    -0.392 OA
ATOM     35  H3  UNL     1      48.362  56.087  21.325  1.00  0.00     0.210 HD
ENDBRANCH   7  34
TORSDOF 11
ENDMDL
