MODEL 1
REMARK VINA RESULT: -8.234411371      0.000      0.000
REMARK  15 active torsions:
REMARK  status: ('A' for Active; 'I' for Inactive)
REMARK    1  A    between atoms: O1_2  and  C2_3 
REMARK    2  A    between atoms: C2_3  and  C3_4 
REMARK    3  A    between atoms: C2_3  and  C23_33 
REMARK    4  A    between atoms: C4_5  and  C5_6 
REMARK    5  A    between atoms: C5_6  and  C7_8 
REMARK    6  A    between atoms: C9_10  and  C10_11 
REMARK    7  A    between atoms: C10_11  and  C11_12 
REMARK    8  A    between atoms: C11_12  and  C12_13 
REMARK    9  A    between atoms: C14_15  and  C15_16 
REMARK   10  A    between atoms: C16_17  and  C17_18 
REMARK   11  A    between atoms: C18_20  and  O3_21 
REMARK   12  A    between atoms: C19_23  and  O4_24 
REMARK   13  A    between atoms: C20_26  and  O5_27 
REMARK   14  A    between atoms: C21_29  and  C22_30 
REMARK   15  A    between atoms: C22_30  and  O6_31 
ROOT
HETATM    1  C12 UNL     1      49.785  56.093  19.211  1.00  0.00    -0.084 C 
HETATM    2  C13 UNL     1      51.105  56.594  18.848  1.00  0.00     0.043 C 
HETATM    3  C14 UNL     1      49.316  54.994  18.622  1.00  0.00     0.002 C 
ENDROOT
BRANCH   1   4
HETATM    4  C11 UNL     1      48.925  56.661  20.140  1.00  0.00     0.037 C 
BRANCH   4   5
HETATM    5  C10 UNL     1      49.193  58.237  20.376  1.00  0.00     0.031 C 
BRANCH   5   6
HETATM    6  C9  UNL     1      47.772  58.491  20.505  1.00  0.00    -0.023 C 
HETATM    7  C7  UNL     1      47.226  59.048  19.379  1.00  0.00    -0.080 C 
HETATM    8  C8  UNL     1      45.788  59.387  19.293  1.00  0.00     0.044 C 
BRANCH   7   9
HETATM    9  C5  UNL     1      48.060  59.356  18.158  1.00  0.00     0.032 C 
HETATM   10  C6  UNL     1      47.284  58.735  16.978  1.00  0.00     0.019 C 
BRANCH   9  11
HETATM   11  C4  UNL     1      48.239  60.808  18.065  1.00  0.00    -0.020 C 
HETATM   12  C3  UNL     1      47.632  61.875  17.806  1.00  0.00     0.002 C 
BRANCH  12  13
HETATM   13  C2  UNL     1      46.204  62.116  17.408  1.00  0.00     0.150 C 
BRANCH  13  14
HETATM   14  O1  UNL     1      46.289  62.475  16.028  1.00  0.00    -0.386 OA
HETATM   15  C1  UNL     1      45.565  61.629  15.211  1.00  0.00     0.202 C 
ENDBRANCH  13  14
BRANCH  13  16
HETATM   16  C23 UNL     1      45.535  63.219  18.102  1.00  0.00    -0.022 C 
HETATM   17  C24 UNL     1      45.627  64.553  17.392  1.00  0.00     0.017 C 
HETATM   18  C25 UNL     1      44.091  62.916  18.348  1.00  0.00     0.017 C 
HETATM   19  C26 UNL     1      46.283  63.427  19.431  1.00  0.00     0.017 C 
ENDBRANCH  13  16
ENDBRANCH  12  13
ENDBRANCH   9  11
ENDBRANCH   7   9
ENDBRANCH   5   6
ENDBRANCH   4   5
ENDBRANCH   1   4
BRANCH   3  20
HETATM   20  C15 UNL     1      49.885  54.161  17.639  1.00  0.00     0.003 C 
HETATM   21  C16 UNL     1      50.378  52.957  17.998  1.00  0.00     0.033 C 
BRANCH  21  22
HETATM   22  C17 UNL     1      50.298  52.572  19.400  1.00  0.00     0.058 C 
HETATM   23  O2  UNL     1      49.644  51.371  19.608  1.00  0.00    -0.322 OA
HETATM   24  C18 UNL     1      50.326  50.291  19.116  1.00  0.00     0.294 C 
HETATM   25  C19 UNL     1      51.725  50.223  19.738  1.00  0.00     0.203 C 
HETATM   26  C20 UNL     1      51.828  51.279  20.805  1.00  0.00     0.164 C 
HETATM   27  C21 UNL     1      51.483  52.677  20.268  1.00  0.00     0.097 C 
BRANCH  24  28
HETATM   28  O3  UNL     1      50.395  50.307  17.747  1.00  0.00    -0.368 OA
ATOM     29  H3  UNL     1      49.887  49.606  17.357  1.00  0.00     0.212 HD
ENDBRANCH  24  28
BRANCH  25  30
HETATM   30  O4  UNL     1      51.803  48.976  20.347  1.00  0.00    -0.388 OA
ATOM     31  H4  UNL     1      52.364  49.096  21.104  1.00  0.00     0.210 HD
ENDBRANCH  25  30
BRANCH  26  32
HETATM   32  O5  UNL     1      53.012  51.212  21.463  1.00  0.00    -0.392 OA
ATOM     33  H5  UNL     1      53.708  51.638  20.977  1.00  0.00     0.210 HD
ENDBRANCH  26  32
BRANCH  27  34
HETATM   34  C22 UNL     1      52.686  53.383  19.788  1.00  0.00     0.178 C 
BRANCH  34  35
HETATM   35  O6  UNL     1      53.659  52.676  19.167  1.00  0.00    -0.400 OA
ATOM     36  H6  UNL     1      54.247  53.125  18.573  1.00  0.00     0.209 HD
ENDBRANCH  34  35
ENDBRANCH  27  34
ENDBRANCH  21  22
ENDBRANCH   3  20
TORSDOF 15
ENDMDL
MODEL 2
REMARK VINA RESULT: -8.202863485      0.897      1.417
REMARK  15 active torsions:
REMARK  status: ('A' for Active; 'I' for Inactive)
REMARK    1  A    between atoms: O1_2  and  C2_3 
REMARK    2  A    between atoms: C2_3  and  C3_4 
REMARK    3  A    between atoms: C2_3  and  C23_33 
REMARK    4  A    between atoms: C4_5  and  C5_6 
REMARK    5  A    between atoms: C5_6  and  C7_8 
REMARK    6  A    between atoms: C9_10  and  C10_11 
REMARK    7  A    between atoms: C10_11  and  C11_12 
REMARK    8  A    between atoms: C11_12  and  C12_13 
REMARK    9  A    between atoms: C14_15  and  C15_16 
REMARK   10  A    between atoms: C16_17  and  C17_18 
REMARK   11  A    between atoms: C18_20  and  O3_21 
REMARK   12  A    between atoms: C19_23  and  O4_24 
REMARK   13  A    between atoms: C20_26  and  O5_27 
REMARK   14  A    between atoms: C21_29  and  C22_30 
REMARK   15  A    between atoms: C22_30  and  O6_31 
ROOT
HETATM    1  C12 UNL     1      49.896  56.182  19.198  1.00  0.00    -0.084 C 
HETATM    2  C13 UNL     1      49.634  56.124  17.765  1.00  0.00     0.043 C 
HETATM    3  C14 UNL     1      51.014  55.644  19.683  1.00  0.00     0.002 C 
ENDROOT
BRANCH   1   4
HETATM    4  C11 UNL     1      49.070  56.756  20.154  1.00  0.00     0.037 C 
BRANCH   4   5
HETATM    5  C10 UNL     1      49.260  58.355  20.283  1.00  0.00     0.031 C 
BRANCH   5   6
HETATM    6  C9  UNL     1      47.833  58.543  20.449  1.00  0.00    -0.023 C 
HETATM    7  C7  UNL     1      47.235  59.090  19.344  1.00  0.00    -0.080 C 
HETATM    8  C8  UNL     1      45.782  59.364  19.297  1.00  0.00     0.044 C 
BRANCH   7   9
HETATM    9  C5  UNL     1      48.025  59.452  18.108  1.00  0.00     0.032 C 
HETATM   10  C6  UNL     1      47.219  58.862  16.933  1.00  0.00     0.019 C 
BRANCH   9  11
HETATM   11  C4  UNL     1      48.181  60.908  18.062  1.00  0.00    -0.020 C 
HETATM   12  C3  UNL     1      47.559  61.974  17.832  1.00  0.00     0.002 C 
BRANCH  12  13
HETATM   13  C2  UNL     1      46.129  62.205  17.435  1.00  0.00     0.150 C 
BRANCH  13  14
HETATM   14  O1  UNL     1      46.218  62.642  16.078  1.00  0.00    -0.386 OA
HETATM   15  C1  UNL     1      45.522  61.826  15.208  1.00  0.00     0.202 C 
ENDBRANCH  13  14
BRANCH  13  16
HETATM   16  C23 UNL     1      45.430  63.252  18.183  1.00  0.00    -0.022 C 
HETATM   17  C24 UNL     1      45.407  64.602  17.497  1.00  0.00     0.017 C 
HETATM   18  C25 UNL     1      44.020  62.857  18.491  1.00  0.00     0.017 C 
HETATM   19  C26 UNL     1      46.228  63.482  19.479  1.00  0.00     0.017 C 
ENDBRANCH  13  16
ENDBRANCH  12  13
ENDBRANCH   9  11
ENDBRANCH   7   9
ENDBRANCH   5   6
ENDBRANCH   4   5
ENDBRANCH   1   4
BRANCH   3  20
HETATM   20  C15 UNL     1      52.071  54.975  19.035  1.00  0.00     0.003 C 
HETATM   21  C16 UNL     1      52.101  53.626  19.040  1.00  0.00     0.033 C 
BRANCH  21  22
HETATM   22  C17 UNL     1      51.027  52.917  19.720  1.00  0.00     0.058 C 
HETATM   23  O2  UNL     1      49.948  52.630  18.902  1.00  0.00    -0.322 OA
HETATM   24  C18 UNL     1      50.239  51.716  17.926  1.00  0.00     0.294 C 
HETATM   25  C19 UNL     1      50.760  50.420  18.553  1.00  0.00     0.203 C 
HETATM   26  C20 UNL     1      50.632  50.525  20.049  1.00  0.00     0.164 C 
HETATM   27  C21 UNL     1      51.331  51.777  20.602  1.00  0.00     0.097 C 
BRANCH  24  28
HETATM   28  O3  UNL     1      51.126  52.212  17.006  1.00  0.00    -0.368 OA
ATOM     29  H3  UNL     1      51.567  51.520  16.528  1.00  0.00     0.212 HD
ENDBRANCH  24  28
BRANCH  25  30
HETATM   30  O4  UNL     1      49.905  49.418  18.110  1.00  0.00    -0.388 OA
ATOM     31  H4  UNL     1      49.167  49.428  18.708  1.00  0.00     0.210 HD
ENDBRANCH  25  30
BRANCH  26  32
HETATM   32  O5  UNL     1      50.990  49.371  20.665  1.00  0.00    -0.392 OA
ATOM     33  H5  UNL     1      51.755  49.489  21.216  1.00  0.00     0.210 HD
ENDBRANCH  26  32
BRANCH  27  34
HETATM   34  C22 UNL     1      52.728  51.493  20.980  1.00  0.00     0.178 C 
BRANCH  34  35
HETATM   35  O6  UNL     1      53.468  50.674  20.197  1.00  0.00    -0.400 OA
ATOM     36  H6  UNL     1      53.475  49.742  20.381  1.00  0.00     0.209 HD
ENDBRANCH  34  35
ENDBRANCH  27  34
ENDBRANCH  21  22
ENDBRANCH   3  20
TORSDOF 15
ENDMDL
MODEL 3
REMARK VINA RESULT: -8.119403734      1.814      3.202
REMARK  15 active torsions:
REMARK  status: ('A' for Active; 'I' for Inactive)
REMARK    1  A    between atoms: O1_2  and  C2_3 
REMARK    2  A    between atoms: C2_3  and  C3_4 
REMARK    3  A    between atoms: C2_3  and  C23_33 
REMARK    4  A    between atoms: C4_5  and  C5_6 
REMARK    5  A    between atoms: C5_6  and  C7_8 
REMARK    6  A    between atoms: C9_10  and  C10_11 
REMARK    7  A    between atoms: C10_11  and  C11_12 
REMARK    8  A    between atoms: C11_12  and  C12_13 
REMARK    9  A    between atoms: C14_15  and  C15_16 
REMARK   10  A    between atoms: C16_17  and  C17_18 
REMARK   11  A    between atoms: C18_20  and  O3_21 
REMARK   12  A    between atoms: C19_23  and  O4_24 
REMARK   13  A    between atoms: C20_26  and  O5_27 
REMARK   14  A    between atoms: C21_29  and  C22_30 
REMARK   15  A    between atoms: C22_30  and  O6_31 
ROOT
HETATM    1  C12 UNL     1      50.201  54.209  20.009  1.00  0.00    -0.084 C 
HETATM    2  C13 UNL     1      50.717  53.460  21.147  1.00  0.00     0.043 C 
HETATM    3  C14 UNL     1      50.674  53.957  18.789  1.00  0.00     0.002 C 
ENDROOT
BRANCH   1   4
HETATM    4  C11 UNL     1      49.232  55.201  20.057  1.00  0.00     0.037 C 
BRANCH   4   5
HETATM    5  C10 UNL     1      49.677  56.563  19.311  1.00  0.00     0.031 C 
BRANCH   5   6
HETATM    6  C9  UNL     1      49.931  57.213  20.581  1.00  0.00    -0.023 C 
HETATM    7  C7  UNL     1      49.096  58.273  20.815  1.00  0.00    -0.080 C 
HETATM    8  C8  UNL     1      49.180  59.077  22.055  1.00  0.00     0.044 C 
BRANCH   7   9
HETATM    9  C5  UNL     1      48.040  58.689  19.818  1.00  0.00     0.032 C 
HETATM   10  C6  UNL     1      46.697  58.466  20.542  1.00  0.00     0.019 C 
BRANCH   9  11
HETATM   11  C4  UNL     1      48.290  60.079  19.425  1.00  0.00    -0.020 C 
HETATM   12  C3  UNL     1      47.789  61.048  18.804  1.00  0.00     0.002 C 
BRANCH  12  13
HETATM   13  C2  UNL     1      46.479  61.174  18.079  1.00  0.00     0.150 C 
BRANCH  13  14
HETATM   14  O1  UNL     1      46.838  61.058  16.702  1.00  0.00    -0.386 OA
HETATM   15  C1  UNL     1      46.605  59.795  16.194  1.00  0.00     0.202 C 
ENDBRANCH  13  14
BRANCH  13  16
HETATM   16  C23 UNL     1      45.791  62.456  18.241  1.00  0.00    -0.022 C 
HETATM   17  C24 UNL     1      46.318  63.311  19.374  1.00  0.00     0.017 C 
HETATM   18  C25 UNL     1      45.834  63.264  16.982  1.00  0.00     0.017 C 
HETATM   19  C26 UNL     1      44.338  62.134  18.633  1.00  0.00     0.017 C 
ENDBRANCH  13  16
ENDBRANCH  12  13
ENDBRANCH   9  11
ENDBRANCH   7   9
ENDBRANCH   5   6
ENDBRANCH   4   5
ENDBRANCH   1   4
BRANCH   3  20
HETATM   20  C15 UNL     1      51.653  53.044  18.350  1.00  0.00     0.003 C 
HETATM   21  C16 UNL     1      51.273  51.949  17.659  1.00  0.00     0.033 C 
BRANCH  21  22
HETATM   22  C17 UNL     1      49.853  51.761  17.396  1.00  0.00     0.058 C 
HETATM   23  O2  UNL     1      49.558  51.576  16.057  1.00  0.00    -0.322 OA
HETATM   24  C18 UNL     1      50.038  50.396  15.556  1.00  0.00     0.294 C 
HETATM   25  C19 UNL     1      49.491  49.217  16.366  1.00  0.00     0.203 C 
HETATM   26  C20 UNL     1      48.478  49.738  17.349  1.00  0.00     0.164 C 
HETATM   27  C21 UNL     1      49.056  50.852  18.237  1.00  0.00     0.097 C 
BRANCH  24  28
HETATM   28  O3  UNL     1      51.409  50.375  15.517  1.00  0.00    -0.368 OA
ATOM     29  H3  UNL     1      51.791  50.506  16.376  1.00  0.00     0.212 HD
ENDBRANCH  24  28
BRANCH  25  30
HETATM   30  O4  UNL     1      48.832  48.406  15.448  1.00  0.00    -0.388 OA
ATOM     31  H4  UNL     1      48.467  47.690  15.955  1.00  0.00     0.210 HD
ENDBRANCH  25  30
BRANCH  26  32
HETATM   32  O5  UNL     1      47.882  48.732  18.036  1.00  0.00    -0.392 OA
ATOM     33  H5  UNL     1      48.480  48.009  18.187  1.00  0.00     0.210 HD
ENDBRANCH  26  32
BRANCH  27  34
HETATM   34  C22 UNL     1      49.631  50.307  19.480  1.00  0.00     0.178 C 
BRANCH  34  35
HETATM   35  O6  UNL     1      50.285  49.123  19.439  1.00  0.00    -0.400 OA
ATOM     36  H6  UNL     1      50.923  48.925  20.114  1.00  0.00     0.209 HD
ENDBRANCH  34  35
ENDBRANCH  27  34
ENDBRANCH  21  22
ENDBRANCH   3  20
TORSDOF 15
ENDMDL
MODEL 4
REMARK VINA RESULT: -7.996131772      4.796      9.670
REMARK  15 active torsions:
REMARK  status: ('A' for Active; 'I' for Inactive)
REMARK    1  A    between atoms: O1_2  and  C2_3 
REMARK    2  A    between atoms: C2_3  and  C3_4 
REMARK    3  A    between atoms: C2_3  and  C23_33 
REMARK    4  A    between atoms: C4_5  and  C5_6 
REMARK    5  A    between atoms: C5_6  and  C7_8 
REMARK    6  A    between atoms: C9_10  and  C10_11 
REMARK    7  A    between atoms: C10_11  and  C11_12 
REMARK    8  A    between atoms: C11_12  and  C12_13 
REMARK    9  A    between atoms: C14_15  and  C15_16 
REMARK   10  A    between atoms: C16_17  and  C17_18 
REMARK   11  A    between atoms: C18_20  and  O3_21 
REMARK   12  A    between atoms: C19_23  and  O4_24 
REMARK   13  A    between atoms: C20_26  and  O5_27 
REMARK   14  A    between atoms: C21_29  and  C22_30 
REMARK   15  A    between atoms: C22_30  and  O6_31 
ROOT
HETATM    1  C12 UNL     1      49.672  53.350  17.859  1.00  0.00    -0.084 C 
HETATM    2  C13 UNL     1      48.426  53.712  17.196  1.00  0.00     0.043 C 
HETATM    3  C14 UNL     1      49.932  53.830  19.074  1.00  0.00     0.002 C 
ENDROOT
BRANCH   1   4
HETATM    4  C11 UNL     1      50.664  52.529  17.339  1.00  0.00     0.037 C 
BRANCH   4   5
HETATM    5  C10 UNL     1      50.332  50.955  17.491  1.00  0.00     0.031 C 
BRANCH   5   6
HETATM    6  C9  UNL     1      51.114  50.645  16.312  1.00  0.00    -0.023 C 
HETATM    7  C7  UNL     1      50.375  50.055  15.321  1.00  0.00    -0.080 C 
HETATM    8  C8  UNL     1      50.975  49.657  14.028  1.00  0.00     0.044 C 
BRANCH   7   9
HETATM    9  C5  UNL     1      48.900  49.770  15.490  1.00  0.00     0.032 C 
HETATM   10  C6  UNL     1      48.267  50.124  14.129  1.00  0.00     0.019 C 
BRANCH   9  11
HETATM   11  C4  UNL     1      48.736  48.368  15.885  1.00  0.00    -0.020 C 
HETATM   12  C3  UNL     1      47.934  47.569  16.426  1.00  0.00     0.002 C 
BRANCH  12  13
HETATM   13  C2  UNL     1      46.561  47.794  16.990  1.00  0.00     0.150 C 
BRANCH  13  14
HETATM   14  O1  UNL     1      45.861  48.453  15.934  1.00  0.00    -0.386 OA
HETATM   15  C1  UNL     1      45.141  47.578  15.143  1.00  0.00     0.202 C 
ENDBRANCH  13  14
BRANCH  13  16
HETATM   16  C23 UNL     1      46.497  48.669  18.163  1.00  0.00    -0.022 C 
HETATM   17  C24 UNL     1      47.803  48.797  18.919  1.00  0.00     0.017 C 
HETATM   18  C25 UNL     1      46.028  50.042  17.798  1.00  0.00     0.017 C 
HETATM   19  C26 UNL     1      45.528  48.008  19.159  1.00  0.00     0.017 C 
ENDBRANCH  13  16
ENDBRANCH  12  13
ENDBRANCH   9  11
ENDBRANCH   7   9
ENDBRANCH   5   6
ENDBRANCH   4   5
ENDBRANCH   1   4
BRANCH   3  20
HETATM   20  C15 UNL     1      49.185  54.687  19.905  1.00  0.00     0.003 C 
HETATM   21  C16 UNL     1      49.793  55.748  20.477  1.00  0.00     0.033 C 
BRANCH  21  22
HETATM   22  C17 UNL     1      51.208  55.959  20.204  1.00  0.00     0.058 C 
HETATM   23  O2  UNL     1      51.466  57.110  19.480  1.00  0.00    -0.322 OA
HETATM   24  C18 UNL     1      51.196  58.258  20.175  1.00  0.00     0.294 C 
HETATM   25  C19 UNL     1      51.999  58.286  21.479  1.00  0.00     0.203 C 
HETATM   26  C20 UNL     1      52.941  57.112  21.489  1.00  0.00     0.164 C 
HETATM   27  C21 UNL     1      52.205  55.781  21.273  1.00  0.00     0.097 C 
BRANCH  24  28
HETATM   28  O3  UNL     1      49.855  58.408  20.417  1.00  0.00    -0.368 OA
ATOM     29  H3  UNL     1      49.649  59.273  20.750  1.00  0.00     0.212 HD
ENDBRANCH  24  28
BRANCH  25  30
HETATM   30  O4  UNL     1      52.755  59.453  21.429  1.00  0.00    -0.388 OA
ATOM     31  H4  UNL     1      53.374  59.387  22.146  1.00  0.00     0.210 HD
ENDBRANCH  25  30
BRANCH  26  32
HETATM   32  O5  UNL     1      53.752  57.130  22.576  1.00  0.00    -0.392 OA
ATOM     33  H5  UNL     1      54.659  57.276  22.335  1.00  0.00     0.210 HD
ENDBRANCH  26  32
BRANCH  27  34
HETATM   34  C22 UNL     1      51.808  55.169  22.554  1.00  0.00     0.178 C 
BRANCH  34  35
HETATM   35  O6  UNL     1      51.832  53.821  22.675  1.00  0.00    -0.400 OA
ATOM     36  H6  UNL     1      52.627  53.400  22.979  1.00  0.00     0.209 HD
ENDBRANCH  34  35
ENDBRANCH  27  34
ENDBRANCH  21  22
ENDBRANCH   3  20
TORSDOF 15
ENDMDL
MODEL 5
REMARK VINA RESULT: -7.982204485      4.821      9.957
REMARK  15 active torsions:
REMARK  status: ('A' for Active; 'I' for Inactive)
REMARK    1  A    between atoms: O1_2  and  C2_3 
REMARK    2  A    between atoms: C2_3  and  C3_4 
REMARK    3  A    between atoms: C2_3  and  C23_33 
REMARK    4  A    between atoms: C4_5  and  C5_6 
REMARK    5  A    between atoms: C5_6  and  C7_8 
REMARK    6  A    between atoms: C9_10  and  C10_11 
REMARK    7  A    between atoms: C10_11  and  C11_12 
REMARK    8  A    between atoms: C11_12  and  C12_13 
REMARK    9  A    between atoms: C14_15  and  C15_16 
REMARK   10  A    between atoms: C16_17  and  C17_18 
REMARK   11  A    between atoms: C18_20  and  O3_21 
REMARK   12  A    between atoms: C19_23  and  O4_24 
REMARK   13  A    between atoms: C20_26  and  O5_27 
REMARK   14  A    between atoms: C21_29  and  C22_30 
REMARK   15  A    between atoms: C22_30  and  O6_31 
ROOT
HETATM    1  C12 UNL     1      49.497  53.552  17.822  1.00  0.00    -0.084 C 
HETATM    2  C13 UNL     1      48.509  54.260  17.018  1.00  0.00     0.043 C 
HETATM    3  C14 UNL     1      49.634  53.856  19.112  1.00  0.00     0.002 C 
ENDROOT
BRANCH   1   4
HETATM    4  C11 UNL     1      50.352  52.555  17.372  1.00  0.00     0.037 C 
BRANCH   4   5
HETATM    5  C10 UNL     1      49.703  51.077  17.447  1.00  0.00     0.031 C 
BRANCH   5   6
HETATM    6  C9  UNL     1      50.671  50.570  16.496  1.00  0.00    -0.023 C 
HETATM    7  C7  UNL     1      50.091  50.078  15.356  1.00  0.00    -0.080 C 
HETATM    8  C8  UNL     1      50.897  49.513  14.250  1.00  0.00     0.044 C 
BRANCH   7   9
HETATM    9  C5  UNL     1      48.593  50.079  15.160  1.00  0.00     0.032 C 
HETATM   10  C6  UNL     1      48.386  50.396  13.665  1.00  0.00     0.019 C 
BRANCH   9  11
HETATM   11  C4  UNL     1      48.066  48.777  15.579  1.00  0.00    -0.020 C 
HETATM   12  C3  UNL     1      47.007  48.109  15.669  1.00  0.00     0.002 C 
BRANCH  12  13
HETATM   13  C2  UNL     1      45.593  48.465  15.312  1.00  0.00     0.150 C 
BRANCH  13  14
HETATM   14  O1  UNL     1      44.832  48.012  16.433  1.00  0.00    -0.386 OA
HETATM   15  C1  UNL     1      45.528  48.103  17.622  1.00  0.00     0.202 C 
ENDBRANCH  13  14
BRANCH  13  16
HETATM   16  C23 UNL     1      45.056  47.795  14.125  1.00  0.00    -0.022 C 
HETATM   17  C24 UNL     1      43.547  47.842  14.009  1.00  0.00     0.017 C 
HETATM   18  C25 UNL     1      45.642  48.356  12.868  1.00  0.00     0.017 C 
HETATM   19  C26 UNL     1      45.394  46.301  14.266  1.00  0.00     0.017 C 
ENDBRANCH  13  16
ENDBRANCH  12  13
ENDBRANCH   9  11
ENDBRANCH   7   9
ENDBRANCH   5   6
ENDBRANCH   4   5
ENDBRANCH   1   4
BRANCH   3  20
HETATM   20  C15 UNL     1      48.964  54.803  19.911  1.00  0.00     0.003 C 
HETATM   21  C16 UNL     1      49.655  55.843  20.423  1.00  0.00     0.033 C 
BRANCH  21  22
HETATM   22  C17 UNL     1      51.076  55.939  20.120  1.00  0.00     0.058 C 
HETATM   23  O2  UNL     1      51.408  57.048  19.362  1.00  0.00    -0.322 OA
HETATM   24  C18 UNL     1      51.239  58.230  20.030  1.00  0.00     0.294 C 
HETATM   25  C19 UNL     1      52.066  58.231  21.319  1.00  0.00     0.203 C 
HETATM   26  C20 UNL     1      52.916  56.989  21.345  1.00  0.00     0.164 C 
HETATM   27  C21 UNL     1      52.077  55.712  21.177  1.00  0.00     0.097 C 
BRANCH  24  28
HETATM   28  O3  UNL     1      49.918  58.489  20.290  1.00  0.00    -0.368 OA
ATOM     29  H3  UNL     1      49.737  58.516  21.222  1.00  0.00     0.212 HD
ENDBRANCH  24  28
BRANCH  25  30
HETATM   30  O4  UNL     1      52.906  59.334  21.225  1.00  0.00    -0.388 OA
ATOM     31  H4  UNL     1      53.490  59.150  20.499  1.00  0.00     0.210 HD
ENDBRANCH  25  30
BRANCH  26  32
HETATM   32  O5  UNL     1      53.745  56.972  22.418  1.00  0.00    -0.392 OA
ATOM     33  H5  UNL     1      53.901  56.088  22.727  1.00  0.00     0.210 HD
ENDBRANCH  26  32
BRANCH  27  34
HETATM   34  C22 UNL     1      51.659  55.166  22.481  1.00  0.00     0.178 C 
BRANCH  34  35
HETATM   35  O6  UNL     1      51.857  53.852  22.737  1.00  0.00    -0.400 OA
ATOM     36  H6  UNL     1      51.424  53.457  23.485  1.00  0.00     0.209 HD
ENDBRANCH  34  35
ENDBRANCH  27  34
ENDBRANCH  21  22
ENDBRANCH   3  20
TORSDOF 15
ENDMDL
