MODEL 1
REMARK VINA RESULT: -9.193228089      0.000      0.000
REMARK  12 active torsions:
REMARK  status: ('A' for Active; 'I' for Inactive)
REMARK    1  A    between atoms: N1_1  and  C1_4 
REMARK    2  A    between atoms: C4_9  and  N3_10 
REMARK    3  A    between atoms: C6_12  and  C7_13 
REMARK    4  A    between atoms: C11_21  and  O1_22 
REMARK    5  A    between atoms: N7_26  and  O2_27 
REMARK    6  A    between atoms: N9_31  and  C12_32 
REMARK    7  A    between atoms: C12_32  and  C13_33 
REMARK    8  A    between atoms: C13_33  and  O3_34 
REMARK    9  A    between atoms: C13_33  and  C14_36 
REMARK   10  A    between atoms: C13_33  and  C15_39 
REMARK   11  A    between atoms: C14_36  and  O4_37 
REMARK   12  A    between atoms: C15_39  and  O5_40 
ROOT
HETATM    1  C1  UNL     1       2.550   8.846  50.685  1.00  0.00     0.679 A 
HETATM    2  N2  UNL     1       3.761   8.829  51.300  1.00  0.00    -0.173 N 
ATOM      3  H2  UNL     1       3.842   8.441  52.240  1.00  0.00     0.186 HD
HETATM    4  C2  UNL     1       4.848   9.311  50.691  1.00  0.00     0.174 A 
HETATM    5  C3  UNL     1       4.712   9.836  49.403  1.00  0.00     0.173 A 
HETATM    6  C4  UNL     1       3.483   9.852  48.787  1.00  0.00     0.164 A 
HETATM    7  N6  UNL     1       2.420   9.358  49.433  1.00  0.00    -0.174 N 
ATOM      8  H6  UNL     1       1.505   9.366  48.982  1.00  0.00     0.186 HD
HETATM    9  N7  UNL     1       5.928  10.252  49.013  1.00  0.00    -0.141 N 
HETATM   10  N8  UNL     1       6.745   9.993  50.001  1.00  0.00    -0.212 N 
ATOM     11  H8  UNL     1       7.741  10.206  49.973  1.00  0.00     0.211 HD
HETATM   12  N9  UNL     1       6.156   9.430  51.032  1.00  0.00    -0.255 N 
ENDROOT
BRANCH   6  13
HETATM   13  N3  UNL     1       3.360  10.387  47.483  1.00  0.00    -0.285 N 
HETATM   14  C5  UNL     1       2.965  11.633  47.127  1.00  0.00     0.116 A 
HETATM   15  C6  UNL     1       2.985  11.743  45.755  1.00  0.00     0.028 A 
HETATM   16  C10 UNL     1       3.398  10.550  45.239  1.00  0.00     0.073 A 
HETATM   17  C11 UNL     1       3.625   9.724  46.319  1.00  0.00     0.148 A 
BRANCH  15  18
HETATM   18  C7  UNL     1       2.622  12.944  44.975  1.00  0.00     0.108 C 
HETATM   19  N4  UNL     1       1.982  13.958  45.450  1.00  0.00    -0.374 N 
HETATM   20  C8  UNL     1       1.780  14.973  44.438  1.00  0.00     0.141 C 
ATOM     21  H4  UNL     1       1.658  14.035  46.415  1.00  0.00     0.161 HD
HETATM   22  C9  UNL     1       2.136  14.319  43.126  1.00  0.00     0.141 C 
HETATM   23  N5  UNL     1       2.918  13.171  43.593  1.00  0.00    -0.374 N 
ATOM     24  H5  UNL     1       3.566  12.623  43.026  1.00  0.00     0.161 HD
ENDBRANCH  15  18
BRANCH  17  25
HETATM   25  O1  UNL     1       4.062   8.406  46.223  1.00  0.00    -0.346 OA
ATOM     26  H1  UNL     1       4.969   8.130  46.160  1.00  0.00     0.219 HD
ENDBRANCH  17  25
ENDBRANCH   6  13
BRANCH   9  27
HETATM   27  O2  UNL     1       6.200  10.834  47.785  1.00  0.00    -0.266 OA
ATOM     28  H2  UNL     1       6.067  10.407  46.947  1.00  0.00     0.247 HD
ENDBRANCH   9  27
BRANCH   1  29
HETATM   29  N1  UNL     1       1.524   8.375  51.297  1.00  0.00    -0.234 N 
ATOM     30  H12 UNL     1       0.955   8.985  51.885  1.00  0.00     0.174 HD
ATOM     31  H11 UNL     1       1.286   7.389  51.192  1.00  0.00     0.174 HD
ENDBRANCH   1  29
BRANCH  12  32
HETATM   32  C12 UNL     1       6.742   9.006  52.298  1.00  0.00     0.194 C 
BRANCH  32  33
HETATM   33  C13 UNL     1       7.280   7.608  52.223  1.00  0.00     0.118 C 
BRANCH  33  34
HETATM   34  O3  UNL     1       6.599   6.849  51.275  1.00  0.00    -0.384 OA
ATOM     35  H3  UNL     1       6.936   7.000  50.400  1.00  0.00     0.210 HD
ENDBRANCH  33  34
BRANCH  33  36
HETATM   36  C14 UNL     1       8.767   7.617  51.917  1.00  0.00     0.206 C 
BRANCH  36  37
HETATM   37  O4  UNL     1       9.011   7.669  50.565  1.00  0.00    -0.398 OA
ATOM     38  H4  UNL     1       9.220   8.550  50.278  1.00  0.00     0.209 HD
ENDBRANCH  36  37
ENDBRANCH  33  36
BRANCH  33  39
HETATM   39  C15 UNL     1       7.114   6.917  53.558  1.00  0.00     0.206 C 
BRANCH  39  40
HETATM   40  O5  UNL     1       7.367   5.542  53.421  1.00  0.00    -0.398 OA
ATOM     41  H5  UNL     1       7.392   5.131  54.277  1.00  0.00     0.209 HD
ENDBRANCH  39  40
ENDBRANCH  33  39
ENDBRANCH  32  33
ENDBRANCH  12  32
TORSDOF 12
ENDMDL
MODEL 2
REMARK VINA RESULT: -9.083818065      0.917      1.113
REMARK  12 active torsions:
REMARK  status: ('A' for Active; 'I' for Inactive)
REMARK    1  A    between atoms: N1_1  and  C1_4 
REMARK    2  A    between atoms: C4_9  and  N3_10 
REMARK    3  A    between atoms: C6_12  and  C7_13 
REMARK    4  A    between atoms: C11_21  and  O1_22 
REMARK    5  A    between atoms: N7_26  and  O2_27 
REMARK    6  A    between atoms: N9_31  and  C12_32 
REMARK    7  A    between atoms: C12_32  and  C13_33 
REMARK    8  A    between atoms: C13_33  and  O3_34 
REMARK    9  A    between atoms: C13_33  and  C14_36 
REMARK   10  A    between atoms: C13_33  and  C15_39 
REMARK   11  A    between atoms: C14_36  and  O4_37 
REMARK   12  A    between atoms: C15_39  and  O5_40 
ROOT
HETATM    1  C1  UNL     1       2.529   8.595  51.125  1.00  0.00     0.679 A 
HETATM    2  N2  UNL     1       3.675   8.759  51.834  1.00  0.00    -0.173 N 
ATOM      3  H2  UNL     1       3.734   8.394  52.784  1.00  0.00     0.186 HD
HETATM    4  C2  UNL     1       4.727   9.390  51.305  1.00  0.00     0.174 A 
HETATM    5  C3  UNL     1       4.622   9.882  50.001  1.00  0.00     0.173 A 
HETATM    6  C4  UNL     1       3.458   9.714  49.289  1.00  0.00     0.164 A 
HETATM    7  N6  UNL     1       2.428   9.074  49.857  1.00  0.00    -0.174 N 
ATOM      8  H6  UNL     1       1.562   8.946  49.334  1.00  0.00     0.186 HD
HETATM    9  N7  UNL     1       5.792  10.467  49.702  1.00  0.00    -0.141 N 
HETATM   10  N8  UNL     1       6.555  10.337  50.756  1.00  0.00    -0.212 N 
ATOM     11  H8  UNL     1       7.508  10.694  50.804  1.00  0.00     0.211 HD
HETATM   12  N9  UNL     1       5.971   9.702  51.747  1.00  0.00    -0.255 N 
ENDROOT
BRANCH   6  13
HETATM   13  N3  UNL     1       3.366  10.216  47.969  1.00  0.00    -0.285 N 
HETATM   14  C5  UNL     1       2.940  11.439  47.571  1.00  0.00     0.116 A 
HETATM   15  C6  UNL     1       3.009  11.520  46.198  1.00  0.00     0.028 A 
HETATM   16  C10 UNL     1       3.483  10.332  45.725  1.00  0.00     0.073 A 
HETATM   17  C11 UNL     1       3.698   9.538  46.831  1.00  0.00     0.148 A 
BRANCH  15  18
HETATM   18  C7  UNL     1       2.633  12.691  45.378  1.00  0.00     0.108 C 
HETATM   19  N4  UNL     1       1.951  13.697  45.810  1.00  0.00    -0.374 N 
HETATM   20  C8  UNL     1       1.749  14.680  44.767  1.00  0.00     0.141 C 
ATOM     21  H4  UNL     1       1.599  13.788  46.763  1.00  0.00     0.161 HD
HETATM   22  C9  UNL     1       2.159  14.005  43.482  1.00  0.00     0.141 C 
HETATM   23  N5  UNL     1       2.960  12.892  43.999  1.00  0.00    -0.374 N 
ATOM     24  H5  UNL     1       3.639  12.349  43.464  1.00  0.00     0.161 HD
ENDBRANCH  15  18
BRANCH  17  25
HETATM   25  O1  UNL     1       4.185   8.235  46.781  1.00  0.00    -0.346 OA
ATOM     26  H1  UNL     1       3.943   7.581  46.135  1.00  0.00     0.219 HD
ENDBRANCH  17  25
ENDBRANCH   6  13
BRANCH   9  27
HETATM   27  O2  UNL     1       6.076  11.075  48.488  1.00  0.00    -0.266 OA
ATOM     28  H2  UNL     1       6.953  11.266  48.176  1.00  0.00     0.247 HD
ENDBRANCH   9  27
BRANCH   1  29
HETATM   29  N1  UNL     1       1.535   7.984  51.662  1.00  0.00    -0.234 N 
ATOM     30  H12 UNL     1       1.422   7.986  52.675  1.00  0.00     0.174 HD
ATOM     31  H11 UNL     1       0.865   7.496  51.067  1.00  0.00     0.174 HD
ENDBRANCH   1  29
BRANCH  12  32
HETATM   32  C12 UNL     1       6.508   9.377  53.063  1.00  0.00     0.194 C 
BRANCH  32  33
HETATM   33  C13 UNL     1       7.389   8.163  53.023  1.00  0.00     0.118 C 
BRANCH  33  34
HETATM   34  O3  UNL     1       7.748   7.837  51.718  1.00  0.00    -0.384 OA
ATOM     35  H3  UNL     1       8.322   7.081  51.693  1.00  0.00     0.210 HD
ENDBRANCH  33  34
BRANCH  33  36
HETATM   36  C14 UNL     1       8.629   8.368  53.873  1.00  0.00     0.206 C 
BRANCH  36  37
HETATM   37  O4  UNL     1       8.636   7.545  54.974  1.00  0.00    -0.398 OA
ATOM     38  H4  UNL     1       8.542   6.631  54.733  1.00  0.00     0.209 HD
ENDBRANCH  36  37
ENDBRANCH  33  36
BRANCH  33  39
HETATM   39  C15 UNL     1       6.656   6.972  53.600  1.00  0.00     0.206 C 
BRANCH  39  40
HETATM   40  O5  UNL     1       7.287   5.782  53.202  1.00  0.00    -0.398 OA
ATOM     41  H5  UNL     1       8.070   5.641  53.722  1.00  0.00     0.209 HD
ENDBRANCH  39  40
ENDBRANCH  33  39
ENDBRANCH  32  33
ENDBRANCH  12  32
TORSDOF 12
ENDMDL
MODEL 3
REMARK VINA RESULT: -9.027643891      0.976      1.207
REMARK  12 active torsions:
REMARK  status: ('A' for Active; 'I' for Inactive)
REMARK    1  A    between atoms: N1_1  and  C1_4 
REMARK    2  A    between atoms: C4_9  and  N3_10 
REMARK    3  A    between atoms: C6_12  and  C7_13 
REMARK    4  A    between atoms: C11_21  and  O1_22 
REMARK    5  A    between atoms: N7_26  and  O2_27 
REMARK    6  A    between atoms: N9_31  and  C12_32 
REMARK    7  A    between atoms: C12_32  and  C13_33 
REMARK    8  A    between atoms: C13_33  and  O3_34 
REMARK    9  A    between atoms: C13_33  and  C14_36 
REMARK   10  A    between atoms: C13_33  and  C15_39 
REMARK   11  A    between atoms: C14_36  and  O4_37 
REMARK   12  A    between atoms: C15_39  and  O5_40 
ROOT
HETATM    1  C1  UNL     1       3.044   7.722  49.544  1.00  0.00     0.679 A 
HETATM    2  N2  UNL     1       3.944   7.899  50.545  1.00  0.00    -0.173 N 
ATOM      3  H2  UNL     1       3.919   7.285  51.358  1.00  0.00     0.186 HD
HETATM    4  C2  UNL     1       4.864   8.866  50.480  1.00  0.00     0.174 A 
HETATM    5  C3  UNL     1       4.879   9.695  49.355  1.00  0.00     0.173 A 
HETATM    6  C4  UNL     1       3.963   9.512  48.346  1.00  0.00     0.164 A 
HETATM    7  N6  UNL     1       3.059   8.530  48.451  1.00  0.00    -0.174 N 
ATOM      8  H6  UNL     1       2.377   8.388  47.707  1.00  0.00     0.186 HD
HETATM    9  N7  UNL     1       5.879  10.575  49.523  1.00  0.00    -0.141 N 
HETATM   10  N8  UNL     1       6.432  10.295  50.674  1.00  0.00    -0.212 N 
ATOM     11  H8  UNL     1       7.224  10.811  51.054  1.00  0.00     0.211 HD
HETATM   12  N9  UNL     1       5.867   9.282  51.292  1.00  0.00    -0.255 N 
ENDROOT
BRANCH   6  13
HETATM   13  N3  UNL     1       3.990  10.359  47.213  1.00  0.00    -0.285 N 
HETATM   14  C5  UNL     1       3.066  11.275  46.835  1.00  0.00     0.116 A 
HETATM   15  C6  UNL     1       3.479  11.885  45.671  1.00  0.00     0.028 A 
HETATM   16  C10 UNL     1       4.678  11.345  45.310  1.00  0.00     0.073 A 
HETATM   17  C11 UNL     1       4.979  10.404  46.272  1.00  0.00     0.148 A 
BRANCH  15  18
HETATM   18  C7  UNL     1       2.749  12.941  44.939  1.00  0.00     0.108 C 
HETATM   19  N4  UNL     1       2.880  13.180  43.679  1.00  0.00    -0.374 N 
HETATM   20  C8  UNL     1       2.030  14.274  43.261  1.00  0.00     0.141 C 
ATOM     21  H4  UNL     1       3.503  12.664  43.056  1.00  0.00     0.161 HD
HETATM   22  C9  UNL     1       1.536  14.918  44.532  1.00  0.00     0.141 C 
HETATM   23  N5  UNL     1       1.797  13.850  45.501  1.00  0.00    -0.374 N 
ATOM     24  H5  UNL     1       1.371  13.769  46.425  1.00  0.00     0.161 HD
ENDBRANCH  15  18
BRANCH  17  25
HETATM   25  O1  UNL     1       6.130   9.620  46.272  1.00  0.00    -0.346 OA
ATOM     26  H1  UNL     1       6.818   9.654  46.926  1.00  0.00     0.219 HD
ENDBRANCH  17  25
ENDBRANCH   6  13
BRANCH   9  27
HETATM   27  O2  UNL     1       6.211  11.567  48.613  1.00  0.00    -0.266 OA
ATOM     28  H2  UNL     1       6.642  12.382  48.841  1.00  0.00     0.247 HD
ENDBRANCH   9  27
BRANCH   1  29
HETATM   29  N1  UNL     1       2.172   6.783  49.638  1.00  0.00    -0.234 N 
ATOM     30  H12 UNL     1       2.072   6.103  48.884  1.00  0.00     0.174 HD
ATOM     31  H11 UNL     1       1.583   6.726  50.468  1.00  0.00     0.174 HD
ENDBRANCH   1  29
BRANCH  12  32
HETATM   32  C12 UNL     1       6.211   8.694  52.581  1.00  0.00     0.194 C 
BRANCH  32  33
HETATM   33  C13 UNL     1       7.025   7.443  52.424  1.00  0.00     0.118 C 
BRANCH  33  34
HETATM   34  O3  UNL     1       6.459   6.581  51.489  1.00  0.00    -0.384 OA
ATOM     35  H3  UNL     1       6.025   5.848  51.909  1.00  0.00     0.210 HD
ENDBRANCH  33  34
BRANCH  33  36
HETATM   36  C14 UNL     1       8.454   7.774  52.035  1.00  0.00     0.206 C 
BRANCH  36  37
HETATM   37  O4  UNL     1       8.636   7.736  50.673  1.00  0.00    -0.398 OA
ATOM     38  H4  UNL     1       8.032   8.312  50.220  1.00  0.00     0.209 HD
ENDBRANCH  36  37
ENDBRANCH  33  36
BRANCH  33  39
HETATM   39  C15 UNL     1       7.092   6.701  53.740  1.00  0.00     0.206 C 
BRANCH  39  40
HETATM   40  O5  UNL     1       7.376   5.344  53.511  1.00  0.00    -0.398 OA
ATOM     41  H5  UNL     1       6.584   4.827  53.609  1.00  0.00     0.209 HD
ENDBRANCH  39  40
ENDBRANCH  33  39
ENDBRANCH  32  33
ENDBRANCH  12  32
TORSDOF 12
ENDMDL
MODEL 4
REMARK VINA RESULT: -8.719627358      2.600      8.371
REMARK  12 active torsions:
REMARK  status: ('A' for Active; 'I' for Inactive)
REMARK    1  A    between atoms: N1_1  and  C1_4 
REMARK    2  A    between atoms: C4_9  and  N3_10 
REMARK    3  A    between atoms: C6_12  and  C7_13 
REMARK    4  A    between atoms: C11_21  and  O1_22 
REMARK    5  A    between atoms: N7_26  and  O2_27 
REMARK    6  A    between atoms: N9_31  and  C12_32 
REMARK    7  A    between atoms: C12_32  and  C13_33 
REMARK    8  A    between atoms: C13_33  and  O3_34 
REMARK    9  A    between atoms: C13_33  and  C14_36 
REMARK   10  A    between atoms: C13_33  and  C15_39 
REMARK   11  A    between atoms: C14_36  and  O4_37 
REMARK   12  A    between atoms: C15_39  and  O5_40 
ROOT
HETATM    1  C1  UNL     1       6.797  11.933  48.131  1.00  0.00     0.679 A 
HETATM    2  N2  UNL     1       5.712  11.711  47.346  1.00  0.00    -0.173 N 
ATOM      3  H2  UNL     1       5.500  12.359  46.587  1.00  0.00     0.186 HD
HETATM    4  C2  UNL     1       4.917  10.658  47.553  1.00  0.00     0.174 A 
HETATM    5  C3  UNL     1       5.228   9.785  48.599  1.00  0.00     0.173 A 
HETATM    6  C4  UNL     1       6.327  10.015  49.391  1.00  0.00     0.164 A 
HETATM    7  N6  UNL     1       7.097  11.083  49.149  1.00  0.00    -0.174 N 
ATOM      8  H6  UNL     1       7.915  11.260  49.732  1.00  0.00     0.186 HD
HETATM    9  N7  UNL     1       4.293   8.821  48.603  1.00  0.00    -0.141 N 
HETATM   10  N8  UNL     1       3.473   9.093  47.622  1.00  0.00    -0.212 N 
ATOM     11  H8  UNL     1       2.662   8.518  47.394  1.00  0.00     0.211 HD
HETATM   12  N9  UNL     1       3.795  10.180  46.959  1.00  0.00    -0.255 N 
ENDROOT
BRANCH   6  13
HETATM   13  N3  UNL     1       6.630   9.123  50.447  1.00  0.00    -0.285 N 
HETATM   14  C5  UNL     1       6.347   9.264  51.764  1.00  0.00     0.116 A 
HETATM   15  C6  UNL     1       6.815   8.167  52.451  1.00  0.00     0.028 A 
HETATM   16  C10 UNL     1       7.401   7.323  51.554  1.00  0.00     0.073 A 
HETATM   17  C11 UNL     1       7.279   7.928  50.322  1.00  0.00     0.148 A 
BRANCH  15  18
HETATM   18  C7  UNL     1       6.703   7.941  53.907  1.00  0.00     0.108 C 
HETATM   19  N4  UNL     1       7.406   8.555  54.798  1.00  0.00    -0.374 N 
HETATM   20  C8  UNL     1       7.061   8.114  56.133  1.00  0.00     0.141 C 
ATOM     21  H4  UNL     1       8.113   9.260  54.588  1.00  0.00     0.161 HD
HETATM   22  C9  UNL     1       6.217   6.877  55.951  1.00  0.00     0.141 C 
HETATM   23  N5  UNL     1       5.813   7.023  54.550  1.00  0.00    -0.374 N 
ATOM     24  H5  UNL     1       5.027   6.547  54.106  1.00  0.00     0.161 HD
ENDBRANCH  15  18
BRANCH  17  25
HETATM   25  O1  UNL     1       7.752   7.388  49.130  1.00  0.00    -0.346 OA
ATOM     26  H1  UNL     1       8.433   6.729  49.056  1.00  0.00     0.219 HD
ENDBRANCH  17  25
ENDBRANCH   6  13
BRANCH   9  27
HETATM   27  O2  UNL     1       4.261   7.765  49.500  1.00  0.00    -0.266 OA
ATOM     28  H2  UNL     1       4.099   6.860  49.259  1.00  0.00     0.247 HD
ENDBRANCH   9  27
BRANCH   1  29
HETATM   29  N1  UNL     1       7.541  12.955  47.907  1.00  0.00    -0.234 N 
ATOM     30  H12 UNL     1       7.299  13.861  48.308  1.00  0.00     0.174 HD
ATOM     31  H11 UNL     1       8.373  12.853  47.324  1.00  0.00     0.174 HD
ENDBRANCH   1  29
BRANCH  12  32
HETATM   32  C12 UNL     1       3.119  10.787  45.817  1.00  0.00     0.194 C 
BRANCH  32  33
HETATM   33  C13 UNL     1       3.454  10.086  44.534  1.00  0.00     0.118 C 
BRANCH  33  34
HETATM   34  O3  UNL     1       3.715   8.735  44.743  1.00  0.00    -0.384 OA
ATOM     35  H3  UNL     1       3.344   8.197  44.054  1.00  0.00     0.210 HD
ENDBRANCH  33  34
BRANCH  33  36
HETATM   36  C14 UNL     1       2.337  10.254  43.519  1.00  0.00     0.206 C 
BRANCH  36  37
HETATM   37  O4  UNL     1       2.813  10.245  42.229  1.00  0.00    -0.398 OA
ATOM     38  H4  UNL     1       3.187  11.083  41.986  1.00  0.00     0.209 HD
ENDBRANCH  36  37
ENDBRANCH  33  36
BRANCH  33  39
HETATM   39  C15 UNL     1       4.695  10.696  43.921  1.00  0.00     0.206 C 
BRANCH  39  40
HETATM   40  O5  UNL     1       5.549   9.681  43.459  1.00  0.00    -0.398 OA
ATOM     41  H5  UNL     1       5.569   9.682  42.508  1.00  0.00     0.209 HD
ENDBRANCH  39  40
ENDBRANCH  33  39
ENDBRANCH  32  33
ENDBRANCH  12  32
TORSDOF 12
ENDMDL
MODEL 5
REMARK VINA RESULT: -8.715802865      1.887      2.305
REMARK  12 active torsions:
REMARK  status: ('A' for Active; 'I' for Inactive)
REMARK    1  A    between atoms: N1_1  and  C1_4 
REMARK    2  A    between atoms: C4_9  and  N3_10 
REMARK    3  A    between atoms: C6_12  and  C7_13 
REMARK    4  A    between atoms: C11_21  and  O1_22 
REMARK    5  A    between atoms: N7_26  and  O2_27 
REMARK    6  A    between atoms: N9_31  and  C12_32 
REMARK    7  A    between atoms: C12_32  and  C13_33 
REMARK    8  A    between atoms: C13_33  and  O3_34 
REMARK    9  A    between atoms: C13_33  and  C14_36 
REMARK   10  A    between atoms: C13_33  and  C15_39 
REMARK   11  A    between atoms: C14_36  and  O4_37 
REMARK   12  A    between atoms: C15_39  and  O5_40 
ROOT
HETATM    1  C1  UNL     1       3.816   7.014  48.675  1.00  0.00     0.679 A 
HETATM    2  N2  UNL     1       4.910   7.142  49.469  1.00  0.00    -0.173 N 
ATOM      3  H2  UNL     1       5.196   6.362  50.060  1.00  0.00     0.186 HD
HETATM    4  C2  UNL     1       5.618   8.275  49.487  1.00  0.00     0.174 A 
HETATM    5  C3  UNL     1       5.206   9.330  48.669  1.00  0.00     0.173 A 
HETATM    6  C4  UNL     1       4.097   9.195  47.868  1.00  0.00     0.164 A 
HETATM    7  N6  UNL     1       3.417   8.041  47.880  1.00  0.00    -0.174 N 
ATOM      8  H6  UNL     1       2.593   7.933  47.288  1.00  0.00     0.186 HD
HETATM    9  N7  UNL     1       6.065  10.343  48.864  1.00  0.00    -0.141 N 
HETATM   10  N8  UNL     1       6.939   9.926  49.742  1.00  0.00    -0.212 N 
ATOM     11  H8  UNL     1       7.714  10.499  50.076  1.00  0.00     0.211 HD
HETATM   12  N9  UNL     1       6.722   8.697  50.151  1.00  0.00    -0.255 N 
ENDROOT
BRANCH   6  13
HETATM   13  N3  UNL     1       3.691  10.271  47.044  1.00  0.00    -0.285 N 
HETATM   14  C5  UNL     1       3.859  10.407  45.707  1.00  0.00     0.116 A 
HETATM   15  C6  UNL     1       3.316  11.605  45.299  1.00  0.00     0.028 A 
HETATM   16  C10 UNL     1       2.799  12.232  46.394  1.00  0.00     0.073 A 
HETATM   17  C11 UNL     1       3.039  11.397  47.463  1.00  0.00     0.148 A 
BRANCH  15  18
HETATM   18  C7  UNL     1       3.296  12.122  43.915  1.00  0.00     0.108 C 
HETATM   19  N4  UNL     1       2.691  13.200  43.546  1.00  0.00    -0.374 N 
HETATM   20  C8  UNL     1       2.859  13.436  42.128  1.00  0.00     0.141 C 
ATOM     21  H4  UNL     1       2.162  13.807  44.173  1.00  0.00     0.161 HD
HETATM   22  C9  UNL     1       3.430  12.159  41.564  1.00  0.00     0.141 C 
HETATM   23  N5  UNL     1       3.933  11.520  42.783  1.00  0.00    -0.374 N 
ATOM     24  H5  UNL     1       4.624  10.770  42.818  1.00  0.00     0.161 HD
ENDBRANCH  15  18
BRANCH  17  25
HETATM   25  O1  UNL     1       2.665  11.671  48.776  1.00  0.00    -0.346 OA
ATOM     26  H1  UNL     1       1.899  12.168  49.037  1.00  0.00     0.219 HD
ENDBRANCH  17  25
ENDBRANCH   6  13
BRANCH   9  27
HETATM   27  O2  UNL     1       5.987  11.571  48.225  1.00  0.00    -0.266 OA
ATOM     28  H2  UNL     1       5.390  11.768  47.512  1.00  0.00     0.247 HD
ENDBRANCH   9  27
BRANCH   1  29
HETATM   29  N1  UNL     1       3.157   5.912  48.680  1.00  0.00    -0.234 N 
ATOM     30  H12 UNL     1       2.139   5.926  48.737  1.00  0.00     0.174 HD
ATOM     31  H11 UNL     1       3.660   5.026  48.629  1.00  0.00     0.174 HD
ENDBRANCH   1  29
BRANCH  12  32
HETATM   32  C12 UNL     1       7.482   7.910  51.116  1.00  0.00     0.194 C 
BRANCH  32  33
HETATM   33  C13 UNL     1       7.335   8.443  52.511  1.00  0.00     0.118 C 
BRANCH  33  34
HETATM   34  O3  UNL     1       7.614   9.806  52.567  1.00  0.00    -0.384 OA
ATOM     35  H3  UNL     1       8.374   9.984  53.109  1.00  0.00     0.210 HD
ENDBRANCH  33  34
BRANCH  33  36
HETATM   36  C14 UNL     1       5.943   8.169  53.049  1.00  0.00     0.206 C 
BRANCH  36  37
HETATM   37  O4  UNL     1       5.523   6.894  52.755  1.00  0.00    -0.398 OA
ATOM     38  H4  UNL     1       4.977   6.872  51.978  1.00  0.00     0.209 HD
ENDBRANCH  36  37
ENDBRANCH  33  36
BRANCH  33  39
HETATM   39  C15 UNL     1       8.306   7.745  53.437  1.00  0.00     0.206 C 
BRANCH  39  40
HETATM   40  O5  UNL     1       8.353   6.374  53.136  1.00  0.00    -0.398 OA
ATOM     41  H5  UNL     1       8.245   5.864  53.931  1.00  0.00     0.209 HD
ENDBRANCH  39  40
ENDBRANCH  33  39
ENDBRANCH  32  33
ENDBRANCH  12  32
TORSDOF 12
ENDMDL
