MODEL 1
REMARK VINA RESULT: -7.790509408      0.000      0.000
REMARK  14 active torsions:
REMARK  status: ('A' for Active; 'I' for Inactive)
REMARK    1  A    between atoms: C2_2  and  C3_3 
REMARK    2  A    between atoms: C3_3  and  C4_4 
REMARK    3  A    between atoms: C5_7  and  C6_8 
REMARK    4  A    between atoms: C6_8  and  C7_9 
REMARK    5  A    between atoms: C7_9  and  C8_10 
REMARK    6  A    between atoms: C8_10  and  C9_11 
REMARK       I    between atoms: C9_11  and  N2_13 
REMARK    7  A    between atoms: N2_13  and  C10_15 
REMARK    8  A    between atoms: C10_15  and  C11_16 
REMARK    9  A    between atoms: C11_16  and  N3_17 
REMARK   10  A    between atoms: N3_17  and  C14_20 
REMARK   11  A    between atoms: C17_24  and  C18_25 
REMARK   12  A    between atoms: C18_25  and  C19_26 
REMARK   13  A    between atoms: C19_26  and  C20_27 
REMARK   14  A    between atoms: C20_27  and  N4_28 
ROOT
HETATM    1  C4  UNL     1      43.894  35.141  41.716  1.00  0.00     0.039 A 
HETATM    2  N1  UNL     1      44.535  35.354  40.571  1.00  0.00    -0.359 N 
ATOM      3  H1  UNL     1      44.154  35.889  39.790  1.00  0.00     0.166 HD
HETATM    4  C5  UNL     1      45.740  34.783  40.570  1.00  0.00     0.016 A 
HETATM    5  C15 UNL     1      45.893  34.154  41.800  1.00  0.00    -0.027 A 
HETATM    6  C16 UNL     1      47.109  33.385  42.229  1.00  0.00     0.051 C 
HETATM    7  C17 UNL     1      44.752  34.366  42.529  1.00  0.00    -0.006 A 
ENDROOT
BRANCH   4   8
HETATM    8  C6  UNL     1      46.719  34.821  39.460  1.00  0.00     0.058 C 
BRANCH   8   9
HETATM    9  C7  UNL     1      46.414  33.846  38.378  1.00  0.00     0.015 C 
BRANCH   9  10
HETATM   10  C8  UNL     1      46.900  32.477  38.720  1.00  0.00     0.103 C 
BRANCH  10  11
HETATM   11  C9  UNL     1      45.824  31.458  38.775  1.00  0.00     0.217 C 
HETATM   12  O1  UNL     1      45.888  30.341  38.210  1.00  0.00    -0.274 OA
HETATM   13  N2  UNL     1      44.613  31.716  39.505  1.00  0.00    -0.359 N 
ATOM     14  H2  UNL     1      44.533  32.620  39.972  1.00  0.00     0.162 HD
BRANCH  13  15
HETATM   15  C10 UNL     1      43.515  30.814  39.633  1.00  0.00     0.151 C 
BRANCH  15  16
HETATM   16  C11 UNL     1      42.742  31.060  40.882  1.00  0.00     0.265 C 
BRANCH  16  17
HETATM   17  N3  UNL     1      42.224  29.880  41.530  1.00  0.00    -0.019 N 
HETATM   18  C12 UNL     1      43.276  29.266  42.349  1.00  0.00     0.281 C 
HETATM   19  C13 UNL     1      41.132  30.307  42.415  1.00  0.00     0.281 C 
BRANCH  17  20
HETATM   20  C14 UNL     1      41.798  28.884  40.630  1.00  0.00     0.458 C 
HETATM   21  O2  UNL     1      40.666  28.836  40.164  1.00  0.00    -0.276 OA
ENDBRANCH  17  20
ENDBRANCH  16  17
ENDBRANCH  15  16
ENDBRANCH  13  15
ENDBRANCH  10  11
ENDBRANCH   9  10
ENDBRANCH   8   9
ENDBRANCH   4   8
BRANCH   1  22
HETATM   22  C3  UNL     1      42.681  35.579  42.018  1.00  0.00     0.003 C 
BRANCH  22  23
HETATM   23  C2  UNL     1      41.500  34.871  41.480  1.00  0.00     0.025 C 
HETATM   24  C1  UNL     1      40.401  34.765  42.526  1.00  0.00     0.009 C 
ENDBRANCH  22  23
ENDBRANCH   1  22
BRANCH   7  25
HETATM   25  C18 UNL     1      44.412  33.985  43.725  1.00  0.00    -0.011 C 
BRANCH  25  26
HETATM   26  C19 UNL     1      43.657  32.766  44.076  1.00  0.00     0.047 C 
BRANCH  26  27
HETATM   27  C20 UNL     1      42.583  33.098  45.125  1.00  0.00     0.126 C 
BRANCH  27  28
HETATM   28  N4  UNL     1      42.916  34.355  45.760  1.00  0.00    -0.367 N 
HETATM   29  C21 UNL     1      41.992  35.112  46.229  1.00  0.00     0.196 C 
HETATM   30  N5  UNL     1      40.638  34.707  46.119  1.00  0.00    -0.067 NA
HETATM   31  N6  UNL     1      42.302  36.341  46.851  1.00  0.00    -0.067 NA
ATOM     32  H4  UNL     1      43.892  34.641  45.836  1.00  0.00     0.161 HD
ENDBRANCH  27  28
ENDBRANCH  26  27
ENDBRANCH  25  26
ENDBRANCH   7  25
TORSDOF 14
ENDMDL
MODEL 2
REMARK VINA RESULT: -7.683305851      3.971      8.606
REMARK  14 active torsions:
REMARK  status: ('A' for Active; 'I' for Inactive)
REMARK    1  A    between atoms: C2_2  and  C3_3 
REMARK    2  A    between atoms: C3_3  and  C4_4 
REMARK    3  A    between atoms: C5_7  and  C6_8 
REMARK    4  A    between atoms: C6_8  and  C7_9 
REMARK    5  A    between atoms: C7_9  and  C8_10 
REMARK    6  A    between atoms: C8_10  and  C9_11 
REMARK       I    between atoms: C9_11  and  N2_13 
REMARK    7  A    between atoms: N2_13  and  C10_15 
REMARK    8  A    between atoms: C10_15  and  C11_16 
REMARK    9  A    between atoms: C11_16  and  N3_17 
REMARK   10  A    between atoms: N3_17  and  C14_20 
REMARK   11  A    between atoms: C17_24  and  C18_25 
REMARK   12  A    between atoms: C18_25  and  C19_26 
REMARK   13  A    between atoms: C19_26  and  C20_27 
REMARK   14  A    between atoms: C20_27  and  N4_28 
ROOT
HETATM    1  C4  UNL     1      44.412  35.049  41.485  1.00  0.00     0.039 A 
HETATM    2  N1  UNL     1      44.044  35.035  42.763  1.00  0.00    -0.359 N 
ATOM      3  H1  UNL     1      44.688  35.150  43.546  1.00  0.00     0.166 HD
HETATM    4  C5  UNL     1      42.730  34.853  42.893  1.00  0.00     0.016 A 
HETATM    5  C15 UNL     1      42.206  34.741  41.610  1.00  0.00    -0.027 A 
HETATM    6  C16 UNL     1      40.755  34.528  41.288  1.00  0.00     0.051 C 
HETATM    7  C17 UNL     1      43.240  34.860  40.718  1.00  0.00    -0.006 A 
ENDROOT
BRANCH   4   8
HETATM    8  C6  UNL     1      41.984  34.788  44.170  1.00  0.00     0.058 C 
BRANCH   8   9
HETATM    9  C7  UNL     1      42.826  34.356  45.318  1.00  0.00     0.015 C 
BRANCH   9  10
HETATM   10  C8  UNL     1      42.054  34.359  46.595  1.00  0.00     0.103 C 
BRANCH  10  11
HETATM   11  C9  UNL     1      42.224  35.597  47.393  1.00  0.00     0.217 C 
HETATM   12  O1  UNL     1      42.213  36.751  46.906  1.00  0.00    -0.274 OA
HETATM   13  N2  UNL     1      42.416  35.525  48.815  1.00  0.00    -0.359 N 
ATOM     14  H2  UNL     1      42.433  34.596  49.239  1.00  0.00     0.162 HD
BRANCH  13  15
HETATM   15  C10 UNL     1      42.586  36.643  49.686  1.00  0.00     0.151 C 
BRANCH  15  16
HETATM   16  C11 UNL     1      41.355  36.917  50.478  1.00  0.00     0.265 C 
BRANCH  16  17
HETATM   17  N3  UNL     1      40.693  38.163  50.180  1.00  0.00    -0.019 N 
HETATM   18  C12 UNL     1      39.924  38.605  51.350  1.00  0.00     0.281 C 
HETATM   19  C13 UNL     1      41.736  39.160  49.903  1.00  0.00     0.281 C 
BRANCH  17  20
HETATM   20  C14 UNL     1      39.772  38.072  49.119  1.00  0.00     0.458 C 
HETATM   21  O2  UNL     1      39.381  37.009  48.654  1.00  0.00    -0.276 OA
ENDBRANCH  17  20
ENDBRANCH  16  17
ENDBRANCH  15  16
ENDBRANCH  13  15
ENDBRANCH  10  11
ENDBRANCH   9  10
ENDBRANCH   8   9
ENDBRANCH   4   8
BRANCH   1  22
HETATM   22  C3  UNL     1      45.648  35.207  41.036  1.00  0.00     0.003 C 
BRANCH  22  23
HETATM   23  C2  UNL     1      46.756  34.476  41.685  1.00  0.00     0.025 C 
HETATM   24  C1  UNL     1      46.725  32.999  41.320  1.00  0.00     0.009 C 
ENDBRANCH  22  23
ENDBRANCH   1  22
BRANCH   7  25
HETATM   25  C18 UNL     1      43.263  34.823  39.418  1.00  0.00    -0.011 C 
BRANCH  25  26
HETATM   26  C19 UNL     1      43.157  33.617  38.573  1.00  0.00     0.047 C 
BRANCH  26  27
HETATM   27  C20 UNL     1      43.773  32.411  39.301  1.00  0.00     0.126 C 
BRANCH  27  28
HETATM   28  N4  UNL     1      42.769  31.377  39.434  1.00  0.00    -0.367 N 
HETATM   29  C21 UNL     1      42.979  30.201  38.965  1.00  0.00     0.196 C 
HETATM   30  N5  UNL     1      44.206  29.921  38.313  1.00  0.00    -0.067 NA
HETATM   31  N6  UNL     1      42.009  29.183  39.089  1.00  0.00    -0.067 NA
ATOM     32  H4  UNL     1      41.888  31.584  39.905  1.00  0.00     0.161 HD
ENDBRANCH  27  28
ENDBRANCH  26  27
ENDBRANCH  25  26
ENDBRANCH   7  25
TORSDOF 14
ENDMDL
MODEL 3
REMARK VINA RESULT: -7.634000096      4.870      9.403
REMARK  14 active torsions:
REMARK  status: ('A' for Active; 'I' for Inactive)
REMARK    1  A    between atoms: C2_2  and  C3_3 
REMARK    2  A    between atoms: C3_3  and  C4_4 
REMARK    3  A    between atoms: C5_7  and  C6_8 
REMARK    4  A    between atoms: C6_8  and  C7_9 
REMARK    5  A    between atoms: C7_9  and  C8_10 
REMARK    6  A    between atoms: C8_10  and  C9_11 
REMARK       I    between atoms: C9_11  and  N2_13 
REMARK    7  A    between atoms: N2_13  and  C10_15 
REMARK    8  A    between atoms: C10_15  and  C11_16 
REMARK    9  A    between atoms: C11_16  and  N3_17 
REMARK   10  A    between atoms: N3_17  and  C14_20 
REMARK   11  A    between atoms: C17_24  and  C18_25 
REMARK   12  A    between atoms: C18_25  and  C19_26 
REMARK   13  A    between atoms: C19_26  and  C20_27 
REMARK   14  A    between atoms: C20_27  and  N4_28 
ROOT
HETATM    1  C4  UNL     1      44.163  34.771  42.228  1.00  0.00     0.039 A 
HETATM    2  N1  UNL     1      43.740  34.727  43.488  1.00  0.00    -0.359 N 
ATOM      3  H1  UNL     1      44.356  34.646  44.297  1.00  0.00     0.166 HD
HETATM    4  C5  UNL     1      42.411  34.802  43.562  1.00  0.00     0.016 A 
HETATM    5  C15 UNL     1      41.936  34.902  42.260  1.00  0.00    -0.027 A 
HETATM    6  C16 UNL     1      40.488  35.012  41.877  1.00  0.00     0.051 C 
HETATM    7  C17 UNL     1      43.014  34.885  41.413  1.00  0.00    -0.006 A 
ENDROOT
BRANCH   4   8
HETATM    8  C6  UNL     1      41.608  34.783  44.805  1.00  0.00     0.058 C 
BRANCH   8   9
HETATM    9  C7  UNL     1      42.440  34.778  46.039  1.00  0.00     0.015 C 
BRANCH   9  10
HETATM   10  C8  UNL     1      41.613  35.018  47.258  1.00  0.00     0.103 C 
BRANCH  10  11
HETATM   11  C9  UNL     1      42.065  36.175  48.068  1.00  0.00     0.217 C 
HETATM   12  O1  UNL     1      42.037  37.363  47.670  1.00  0.00    -0.274 OA
HETATM   13  N2  UNL     1      42.575  35.977  49.397  1.00  0.00    -0.359 N 
ATOM     14  H2  UNL     1      42.613  35.019  49.746  1.00  0.00     0.162 HD
BRANCH  13  15
HETATM   15  C10 UNL     1      43.034  37.009  50.270  1.00  0.00     0.151 C 
BRANCH  15  16
HETATM   16  C11 UNL     1      41.959  37.468  51.193  1.00  0.00     0.265 C 
BRANCH  16  17
HETATM   17  N3  UNL     1      41.965  38.878  51.495  1.00  0.00    -0.019 N 
HETATM   18  C12 UNL     1      41.483  39.633  50.332  1.00  0.00     0.281 C 
HETATM   19  C13 UNL     1      41.033  39.093  52.611  1.00  0.00     0.281 C 
BRANCH  17  20
HETATM   20  C14 UNL     1      43.245  39.386  51.789  1.00  0.00     0.458 C 
HETATM   21  O2  UNL     1      43.609  40.515  51.483  1.00  0.00    -0.276 OA
ENDBRANCH  17  20
ENDBRANCH  16  17
ENDBRANCH  15  16
ENDBRANCH  13  15
ENDBRANCH  10  11
ENDBRANCH   9  10
ENDBRANCH   8   9
ENDBRANCH   4   8
BRANCH   1  22
HETATM   22  C3  UNL     1      45.425  34.715  41.831  1.00  0.00     0.003 C 
BRANCH  22  23
HETATM   23  C2  UNL     1      46.296  33.631  42.332  1.00  0.00     0.025 C 
HETATM   24  C1  UNL     1      46.873  32.816  41.183  1.00  0.00     0.009 C 
ENDBRANCH  22  23
ENDBRANCH   1  22
BRANCH   7  25
HETATM   25  C18 UNL     1      43.090  34.950  40.116  1.00  0.00    -0.011 C 
BRANCH  25  26
HETATM   26  C19 UNL     1      42.820  33.853  39.165  1.00  0.00     0.047 C 
BRANCH  26  27
HETATM   27  C20 UNL     1      43.001  32.497  39.864  1.00  0.00     0.126 C 
BRANCH  27  28
HETATM   28  N4  UNL     1      44.050  31.757  39.195  1.00  0.00    -0.367 N 
HETATM   29  C21 UNL     1      43.814  30.597  38.700  1.00  0.00     0.196 C 
HETATM   30  N5  UNL     1      42.514  30.043  38.812  1.00  0.00    -0.067 NA
HETATM   31  N6  UNL     1      44.828  29.864  38.045  1.00  0.00    -0.067 NA
ATOM     32  H4  UNL     1      44.983  32.161  39.117  1.00  0.00     0.161 HD
ENDBRANCH  27  28
ENDBRANCH  26  27
ENDBRANCH  25  26
ENDBRANCH   7  25
TORSDOF 14
ENDMDL
MODEL 4
REMARK VINA RESULT: -7.591732523      2.806      5.740
REMARK  14 active torsions:
REMARK  status: ('A' for Active; 'I' for Inactive)
REMARK    1  A    between atoms: C2_2  and  C3_3 
REMARK    2  A    between atoms: C3_3  and  C4_4 
REMARK    3  A    between atoms: C5_7  and  C6_8 
REMARK    4  A    between atoms: C6_8  and  C7_9 
REMARK    5  A    between atoms: C7_9  and  C8_10 
REMARK    6  A    between atoms: C8_10  and  C9_11 
REMARK       I    between atoms: C9_11  and  N2_13 
REMARK    7  A    between atoms: N2_13  and  C10_15 
REMARK    8  A    between atoms: C10_15  and  C11_16 
REMARK    9  A    between atoms: C11_16  and  N3_17 
REMARK   10  A    between atoms: N3_17  and  C14_20 
REMARK   11  A    between atoms: C17_24  and  C18_25 
REMARK   12  A    between atoms: C18_25  and  C19_26 
REMARK   13  A    between atoms: C19_26  and  C20_27 
REMARK   14  A    between atoms: C20_27  and  N4_28 
ROOT
HETATM    1  C4  UNL     1      45.415  34.671  40.653  1.00  0.00     0.039 A 
HETATM    2  N1  UNL     1      44.354  35.286  41.164  1.00  0.00    -0.359 N 
ATOM      3  H1  UNL     1      44.378  35.880  41.993  1.00  0.00     0.166 HD
HETATM    4  C5  UNL     1      43.252  35.032  40.456  1.00  0.00     0.016 A 
HETATM    5  C15 UNL     1      43.624  34.193  39.413  1.00  0.00    -0.027 A 
HETATM    6  C16 UNL     1      42.692  33.656  38.365  1.00  0.00     0.051 C 
HETATM    7  C17 UNL     1      44.970  33.956  39.518  1.00  0.00    -0.006 A 
ENDROOT
BRANCH   4   8
HETATM    8  C6  UNL     1      41.897  35.554  40.741  1.00  0.00     0.058 C 
BRANCH   8   9
HETATM    9  C7  UNL     1      40.967  34.516  41.262  1.00  0.00     0.015 C 
BRANCH   9  10
HETATM   10  C8  UNL     1      40.502  34.840  42.643  1.00  0.00     0.103 C 
BRANCH  10  11
HETATM   11  C9  UNL     1      40.946  33.865  43.667  1.00  0.00     0.217 C 
HETATM   12  O1  UNL     1      40.583  33.894  44.866  1.00  0.00    -0.274 OA
HETATM   13  N2  UNL     1      41.848  32.802  43.317  1.00  0.00    -0.359 N 
ATOM     14  H2  UNL     1      42.164  32.757  42.348  1.00  0.00     0.162 HD
BRANCH  13  15
HETATM   15  C10 UNL     1      42.340  31.805  44.212  1.00  0.00     0.151 C 
BRANCH  15  16
HETATM   16  C11 UNL     1      41.625  30.509  44.040  1.00  0.00     0.265 C 
BRANCH  16  17
HETATM   17  N3  UNL     1      42.304  29.354  44.572  1.00  0.00    -0.019 N 
HETATM   18  C12 UNL     1      42.479  28.353  43.512  1.00  0.00     0.281 C 
HETATM   19  C13 UNL     1      43.632  29.793  45.024  1.00  0.00     0.281 C 
BRANCH  17  20
HETATM   20  C14 UNL     1      41.596  28.710  45.605  1.00  0.00     0.458 C 
HETATM   21  O2  UNL     1      41.752  28.969  46.792  1.00  0.00    -0.276 OA
ENDBRANCH  17  20
ENDBRANCH  16  17
ENDBRANCH  15  16
ENDBRANCH  13  15
ENDBRANCH  10  11
ENDBRANCH   9  10
ENDBRANCH   8   9
ENDBRANCH   4   8
BRANCH   1  22
HETATM   22  C3  UNL     1      46.649  34.727  41.133  1.00  0.00     0.003 C 
BRANCH  22  23
HETATM   23  C2  UNL     1      47.100  33.702  42.097  1.00  0.00     0.025 C 
HETATM   24  C1  UNL     1      45.970  33.297  43.033  1.00  0.00     0.009 C 
ENDBRANCH  22  23
ENDBRANCH   1  22
BRANCH   7  25
HETATM   25  C18 UNL     1      45.777  33.241  38.791  1.00  0.00    -0.011 C 
BRANCH  25  26
HETATM   26  C19 UNL     1      46.175  31.841  39.039  1.00  0.00     0.047 C 
BRANCH  26  27
HETATM   27  C20 UNL     1      45.141  31.155  39.945  1.00  0.00     0.126 C 
BRANCH  27  28
HETATM   28  N4  UNL     1      44.219  30.400  39.124  1.00  0.00    -0.367 N 
HETATM   29  C21 UNL     1      42.983  30.302  39.454  1.00  0.00     0.196 C 
HETATM   30  N5  UNL     1      42.525  30.941  40.633  1.00  0.00    -0.067 NA
HETATM   31  N6  UNL     1      42.073  29.569  38.661  1.00  0.00    -0.067 NA
ATOM     32  H4  UNL     1      44.555  29.943  38.276  1.00  0.00     0.161 HD
ENDBRANCH  27  28
ENDBRANCH  26  27
ENDBRANCH  25  26
ENDBRANCH   7  25
TORSDOF 14
ENDMDL
MODEL 5
REMARK VINA RESULT: -7.514577534      3.854      7.884
REMARK  14 active torsions:
REMARK  status: ('A' for Active; 'I' for Inactive)
REMARK    1  A    between atoms: C2_2  and  C3_3 
REMARK    2  A    between atoms: C3_3  and  C4_4 
REMARK    3  A    between atoms: C5_7  and  C6_8 
REMARK    4  A    between atoms: C6_8  and  C7_9 
REMARK    5  A    between atoms: C7_9  and  C8_10 
REMARK    6  A    between atoms: C8_10  and  C9_11 
REMARK       I    between atoms: C9_11  and  N2_13 
REMARK    7  A    between atoms: N2_13  and  C10_15 
REMARK    8  A    between atoms: C10_15  and  C11_16 
REMARK    9  A    between atoms: C11_16  and  N3_17 
REMARK   10  A    between atoms: N3_17  and  C14_20 
REMARK   11  A    between atoms: C17_24  and  C18_25 
REMARK   12  A    between atoms: C18_25  and  C19_26 
REMARK   13  A    between atoms: C19_26  and  C20_27 
REMARK   14  A    between atoms: C20_27  and  N4_28 
ROOT
HETATM    1  C4  UNL     1      45.803  33.049  41.987  1.00  0.00     0.039 A 
HETATM    2  N1  UNL     1      45.627  33.347  43.270  1.00  0.00    -0.359 N 
ATOM      3  H1  UNL     1      46.296  33.870  43.835  1.00  0.00     0.166 HD
HETATM    4  C5  UNL     1      44.465  32.879  43.727  1.00  0.00     0.016 A 
HETATM    5  C15 UNL     1      43.843  32.231  42.667  1.00  0.00    -0.027 A 
HETATM    6  C16 UNL     1      42.504  31.555  42.737  1.00  0.00     0.051 C 
HETATM    7  C17 UNL     1      44.662  32.326  41.572  1.00  0.00    -0.006 A 
ENDROOT
BRANCH   4   8
HETATM    8  C6  UNL     1      43.949  33.031  45.106  1.00  0.00     0.058 C 
BRANCH   8   9
HETATM    9  C7  UNL     1      43.091  34.234  45.280  1.00  0.00     0.015 C 
BRANCH   9  10
HETATM   10  C8  UNL     1      42.288  34.157  46.537  1.00  0.00     0.103 C 
BRANCH  10  11
HETATM   11  C9  UNL     1      42.200  35.443  47.269  1.00  0.00     0.217 C 
HETATM   12  O1  UNL     1      42.199  36.567  46.714  1.00  0.00    -0.274 OA
HETATM   13  N2  UNL     1      42.109  35.458  48.703  1.00  0.00    -0.359 N 
ATOM     14  H2  UNL     1      42.111  34.557  49.182  1.00  0.00     0.162 HD
BRANCH  13  15
HETATM   15  C10 UNL     1      42.015  36.629  49.514  1.00  0.00     0.151 C 
BRANCH  15  16
HETATM   16  C11 UNL     1      40.827  36.584  50.412  1.00  0.00     0.265 C 
BRANCH  16  17
HETATM   17  N3  UNL     1      39.622  37.161  49.869  1.00  0.00    -0.019 N 
HETATM   18  C12 UNL     1      38.791  37.685  50.961  1.00  0.00     0.281 C 
HETATM   19  C13 UNL     1      40.019  38.281  49.005  1.00  0.00     0.281 C 
BRANCH  17  20
HETATM   20  C14 UNL     1      38.817  36.236  49.176  1.00  0.00     0.458 C 
HETATM   21  O2  UNL     1      38.939  36.000  47.980  1.00  0.00    -0.276 OA
ENDBRANCH  17  20
ENDBRANCH  16  17
ENDBRANCH  15  16
ENDBRANCH  13  15
ENDBRANCH  10  11
ENDBRANCH   9  10
ENDBRANCH   8   9
ENDBRANCH   4   8
BRANCH   1  22
HETATM   22  C3  UNL     1      46.858  33.374  41.254  1.00  0.00     0.003 C 
BRANCH  22  23
HETATM   23  C2  UNL     1      46.888  34.683  40.568  1.00  0.00     0.025 C 
HETATM   24  C1  UNL     1      46.964  34.508  39.058  1.00  0.00     0.009 C 
ENDBRANCH  22  23
ENDBRANCH   1  22
BRANCH   7  25
HETATM   25  C18 UNL     1      44.528  31.884  40.356  1.00  0.00    -0.011 C 
BRANCH  25  26
HETATM   26  C19 UNL     1      43.593  32.397  39.335  1.00  0.00     0.047 C 
BRANCH  26  27
HETATM   27  C20 UNL     1      43.358  33.900  39.547  1.00  0.00     0.126 C 
BRANCH  27  28
HETATM   28  N4  UNL     1      42.026  34.100  40.076  1.00  0.00    -0.367 N 
HETATM   29  C21 UNL     1      41.826  34.914  41.047  1.00  0.00     0.196 C 
HETATM   30  N5  UNL     1      42.924  35.620  41.601  1.00  0.00    -0.067 NA
HETATM   31  N6  UNL     1      40.532  35.119  41.573  1.00  0.00    -0.067 NA
ATOM     32  H4  UNL     1      41.240  33.589  39.673  1.00  0.00     0.161 HD
ENDBRANCH  27  28
ENDBRANCH  26  27
ENDBRANCH  25  26
ENDBRANCH   7  25
TORSDOF 14
ENDMDL
