MODEL 1
REMARK VINA RESULT: -7.967573408      0.000      0.000
REMARK  14 active torsions:
REMARK  status: ('A' for Active; 'I' for Inactive)
REMARK    1  A    between atoms: C3_3  and  C4_4 
REMARK    2  A    between atoms: C4_4  and  C5_5 
REMARK    3  A    between atoms: C7_7  and  C8_8 
REMARK    4  A    between atoms: C8_8  and  C9_9 
REMARK    5  A    between atoms: C9_9  and  N1_10 
REMARK    6  A    between atoms: C13_19  and  C14_20 
REMARK    7  A    between atoms: N5_24  and  C17_25 
REMARK    8  A    between atoms: C17_25  and  C18_26 
REMARK    9  A    between atoms: C18_26  and  C19_27 
REMARK   10  A    between atoms: C19_27  and  C20_28 
REMARK   11  A    between atoms: C20_28  and  C21_29 
REMARK   12  A    between atoms: C21_29  and  C22_30 
REMARK   13  A    between atoms: C22_30  and  C23_31 
REMARK   14  A    between atoms: C23_31  and  N6_32 
ROOT
HETATM    1  C1  UNL     1      45.222  33.321  43.476  1.00  0.00     0.044 C 
HETATM    2  C2  UNL     1      44.165  33.939  42.939  1.00  0.00     0.036 A 
HETATM    3  C3  UNL     1      42.709  33.660  43.282  1.00  0.00     0.007 A 
HETATM    4  C13 UNL     1      42.003  34.406  42.450  1.00  0.00     0.036 A 
HETATM    5  C15 UNL     1      42.965  35.156  41.595  1.00  0.00     0.022 A 
HETATM    6  C16 UNL     1      42.537  36.119  40.555  1.00  0.00     0.069 C 
HETATM    7  N5  UNL     1      44.168  34.871  41.899  1.00  0.00    -0.350 N 
ENDROOT
BRANCH   3   8
HETATM    8  C4  UNL     1      42.397  32.845  44.404  1.00  0.00     0.044 C 
BRANCH   8   9
HETATM    9  C5  UNL     1      42.231  31.611  44.769  1.00  0.00     0.034 A 
HETATM   10  C6  UNL     1      42.666  30.813  45.773  1.00  0.00     0.039 A 
HETATM   11  C7  UNL     1      42.251  29.504  45.599  1.00  0.00    -0.029 A 
HETATM   12  C11 UNL     1      41.538  29.514  44.451  1.00  0.00     0.029 A 
HETATM   13  C12 UNL     1      40.925  28.463  43.926  1.00  0.00     0.043 C 
HETATM   14  N4  UNL     1      41.518  30.744  43.954  1.00  0.00    -0.356 N 
ATOM     15  H4  UNL     1      41.044  31.015  43.093  1.00  0.00     0.166 HD
BRANCH  11  16
HETATM   16  C8  UNL     1      42.614  28.373  46.517  1.00  0.00     0.060 C 
BRANCH  16  17
HETATM   17  C9  UNL     1      44.042  27.971  46.455  1.00  0.00     0.126 C 
BRANCH  17  18
HETATM   18  N1  UNL     1      44.331  26.646  46.039  1.00  0.00    -0.367 N 
HETATM   19  C10 UNL     1      44.565  25.698  46.867  1.00  0.00     0.196 C 
HETATM   20  N2  UNL     1      44.857  24.363  46.481  1.00  0.00    -0.067 NA
HETATM   21  N3  UNL     1      44.522  26.013  48.260  1.00  0.00    -0.067 NA
ATOM     22  H1  UNL     1      44.355  26.440  45.040  1.00  0.00     0.161 HD
ENDBRANCH  17  18
ENDBRANCH  16  17
ENDBRANCH  11  16
ENDBRANCH   8   9
ENDBRANCH   3   8
BRANCH   4  23
HETATM   23  C14 UNL     1      40.576  34.568  42.308  1.00  0.00     0.272 C 
HETATM   24  O1  UNL     1      39.900  33.664  41.693  1.00  0.00    -0.301 OA
ENDBRANCH   4  23
BRANCH   7  25
HETATM   25  C17 UNL     1      45.349  35.510  41.318  1.00  0.00     0.129 C 
BRANCH  25  26
HETATM   26  C18 UNL     1      45.802  34.897  40.065  1.00  0.00     0.020 C 
BRANCH  26  27
HETATM   27  C19 UNL     1      45.549  33.459  39.783  1.00  0.00     0.002 C 
BRANCH  27  28
HETATM   28  C20 UNL     1      44.552  33.410  38.630  1.00  0.00     0.000 C 
BRANCH  28  29
HETATM   29  C21 UNL     1      43.305  32.664  39.003  1.00  0.00     0.002 C 
BRANCH  29  30
HETATM   30  C22 UNL     1      43.536  31.559  39.982  1.00  0.00     0.027 C 
BRANCH  30  31
HETATM   31  C23 UNL     1      43.013  30.268  39.339  1.00  0.00     0.229 C 
BRANCH  31  32
HETATM   32  N6  UNL     1      44.031  29.678  38.492  1.00  0.00    -0.079 N 
ATOM     33  H63 UNL     1      43.927  29.962  37.518  1.00  0.00     0.274 HD
ATOM     34  H62 UNL     1      44.953  30.078  38.670  1.00  0.00     0.274 HD
ATOM     35  H61 UNL     1      44.032  28.662  38.593  1.00  0.00     0.274 HD
ENDBRANCH  31  32
ENDBRANCH  30  31
ENDBRANCH  29  30
ENDBRANCH  28  29
ENDBRANCH  27  28
ENDBRANCH  26  27
ENDBRANCH  25  26
ENDBRANCH   7  25
TORSDOF 14
ENDMDL
MODEL 2
REMARK VINA RESULT: -7.930218662      3.150      4.874
REMARK  14 active torsions:
REMARK  status: ('A' for Active; 'I' for Inactive)
REMARK    1  A    between atoms: C3_3  and  C4_4 
REMARK    2  A    between atoms: C4_4  and  C5_5 
REMARK    3  A    between atoms: C7_7  and  C8_8 
REMARK    4  A    between atoms: C8_8  and  C9_9 
REMARK    5  A    between atoms: C9_9  and  N1_10 
REMARK    6  A    between atoms: C13_19  and  C14_20 
REMARK    7  A    between atoms: N5_24  and  C17_25 
REMARK    8  A    between atoms: C17_25  and  C18_26 
REMARK    9  A    between atoms: C18_26  and  C19_27 
REMARK   10  A    between atoms: C19_27  and  C20_28 
REMARK   11  A    between atoms: C20_28  and  C21_29 
REMARK   12  A    between atoms: C21_29  and  C22_30 
REMARK   13  A    between atoms: C22_30  and  C23_31 
REMARK   14  A    between atoms: C23_31  and  N6_32 
ROOT
HETATM    1  C1  UNL     1      43.726  31.194  40.146  1.00  0.00     0.044 C 
HETATM    2  C2  UNL     1      42.945  32.039  40.827  1.00  0.00     0.036 A 
HETATM    3  C3  UNL     1      42.086  31.677  42.030  1.00  0.00     0.007 A 
HETATM    4  C13 UNL     1      41.403  32.772  42.315  1.00  0.00     0.036 A 
HETATM    5  C15 UNL     1      41.807  33.821  41.337  1.00  0.00     0.022 A 
HETATM    6  C16 UNL     1      41.265  35.198  41.363  1.00  0.00     0.069 C 
HETATM    7  N5  UNL     1      42.674  33.374  40.519  1.00  0.00    -0.350 N 
ENDROOT
BRANCH   3   8
HETATM    8  C4  UNL     1      42.252  30.411  42.653  1.00  0.00     0.044 C 
BRANCH   8   9
HETATM    9  C5  UNL     1      41.660  29.274  42.855  1.00  0.00     0.034 A 
HETATM   10  C6  UNL     1      41.666  28.045  42.286  1.00  0.00     0.039 A 
HETATM   11  C7  UNL     1      40.718  27.215  42.858  1.00  0.00    -0.029 A 
HETATM   12  C11 UNL     1      40.121  27.968  43.807  1.00  0.00     0.029 A 
HETATM   13  C12 UNL     1      39.167  27.548  44.625  1.00  0.00     0.043 C 
HETATM   14  N4  UNL     1      40.665  29.179  43.816  1.00  0.00    -0.356 N 
ATOM     15  H4  UNL     1      40.390  29.934  44.444  1.00  0.00     0.166 HD
BRANCH  11  16
HETATM   16  C8  UNL     1      40.447  25.807  42.411  1.00  0.00     0.060 C 
BRANCH  16  17
HETATM   17  C9  UNL     1      40.601  25.590  40.950  1.00  0.00     0.126 C 
BRANCH  17  18
HETATM   18  N1  UNL     1      39.853  24.537  40.363  1.00  0.00    -0.367 N 
HETATM   19  C10 UNL     1      40.202  23.968  39.270  1.00  0.00     0.196 C 
HETATM   20  N2  UNL     1      39.475  22.913  38.659  1.00  0.00    -0.067 NA
HETATM   21  N3  UNL     1      41.399  24.428  38.640  1.00  0.00    -0.067 NA
ATOM     22  H1  UNL     1      39.002  24.221  40.829  1.00  0.00     0.161 HD
ENDBRANCH  17  18
ENDBRANCH  16  17
ENDBRANCH  11  16
ENDBRANCH   8   9
ENDBRANCH   3   8
BRANCH   4  23
HETATM   23  C14 UNL     1      40.439  33.037  43.356  1.00  0.00     0.272 C 
HETATM   24  O1  UNL     1      40.855  33.319  44.540  1.00  0.00    -0.301 OA
ENDBRANCH   4  23
BRANCH   7  25
HETATM   25  C17 UNL     1      43.350  34.178  39.499  1.00  0.00     0.129 C 
BRANCH  25  26
HETATM   26  C18 UNL     1      44.752  34.478  39.810  1.00  0.00     0.020 C 
BRANCH  26  27
HETATM   27  C19 UNL     1      45.121  35.174  41.072  1.00  0.00     0.002 C 
BRANCH  27  28
HETATM   28  C20 UNL     1      46.258  34.370  41.696  1.00  0.00     0.000 C 
BRANCH  28  29
HETATM   29  C21 UNL     1      45.758  33.422  42.746  1.00  0.00     0.002 C 
BRANCH  29  30
HETATM   30  C22 UNL     1      44.624  33.963  43.553  1.00  0.00     0.027 C 
BRANCH  30  31
HETATM   31  C23 UNL     1      44.370  32.974  44.698  1.00  0.00     0.229 C 
BRANCH  31  32
HETATM   32  N6  UNL     1      43.580  33.601  45.740  1.00  0.00    -0.079 N 
ATOM     33  H63 UNL     1      43.858  33.284  46.669  1.00  0.00     0.274 HD
ATOM     34  H62 UNL     1      43.804  34.590  45.844  1.00  0.00     0.274 HD
ATOM     35  H61 UNL     1      42.585  33.452  45.570  1.00  0.00     0.274 HD
ENDBRANCH  31  32
ENDBRANCH  30  31
ENDBRANCH  29  30
ENDBRANCH  28  29
ENDBRANCH  27  28
ENDBRANCH  26  27
ENDBRANCH  25  26
ENDBRANCH   7  25
TORSDOF 14
ENDMDL
MODEL 3
REMARK VINA RESULT: -7.886140487      3.267      5.053
REMARK  14 active torsions:
REMARK  status: ('A' for Active; 'I' for Inactive)
REMARK    1  A    between atoms: C3_3  and  C4_4 
REMARK    2  A    between atoms: C4_4  and  C5_5 
REMARK    3  A    between atoms: C7_7  and  C8_8 
REMARK    4  A    between atoms: C8_8  and  C9_9 
REMARK    5  A    between atoms: C9_9  and  N1_10 
REMARK    6  A    between atoms: C13_19  and  C14_20 
REMARK    7  A    between atoms: N5_24  and  C17_25 
REMARK    8  A    between atoms: C17_25  and  C18_26 
REMARK    9  A    between atoms: C18_26  and  C19_27 
REMARK   10  A    between atoms: C19_27  and  C20_28 
REMARK   11  A    between atoms: C20_28  and  C21_29 
REMARK   12  A    between atoms: C21_29  and  C22_30 
REMARK   13  A    between atoms: C22_30  and  C23_31 
REMARK   14  A    between atoms: C23_31  and  N6_32 
ROOT
HETATM    1  C1  UNL     1      44.380  32.499  43.443  1.00  0.00     0.044 C 
HETATM    2  C2  UNL     1      44.468  32.201  42.143  1.00  0.00     0.036 A 
HETATM    3  C3  UNL     1      43.591  31.202  41.402  1.00  0.00     0.007 A 
HETATM    4  C13 UNL     1      44.087  31.138  40.179  1.00  0.00     0.036 A 
HETATM    5  C15 UNL     1      45.247  32.072  40.117  1.00  0.00     0.022 A 
HETATM    6  C16 UNL     1      46.042  32.288  38.886  1.00  0.00     0.069 C 
HETATM    7  N5  UNL     1      45.429  32.652  41.235  1.00  0.00    -0.350 N 
ENDROOT
BRANCH   3   8
HETATM    8  C4  UNL     1      42.436  30.675  42.041  1.00  0.00     0.044 C 
BRANCH   8   9
HETATM    9  C5  UNL     1      41.857  29.562  42.373  1.00  0.00     0.034 A 
HETATM   10  C6  UNL     1      41.911  28.267  41.979  1.00  0.00     0.039 A 
HETATM   11  C7  UNL     1      40.955  27.500  42.621  1.00  0.00    -0.029 A 
HETATM   12  C11 UNL     1      40.303  28.361  43.432  1.00  0.00     0.029 A 
HETATM   13  C12 UNL     1      39.322  28.034  44.260  1.00  0.00     0.043 C 
HETATM   14  N4  UNL     1      40.823  29.575  43.297  1.00  0.00    -0.356 N 
ATOM     15  H4  UNL     1      40.506  30.402  43.802  1.00  0.00     0.166 HD
BRANCH  11  16
HETATM   16  C8  UNL     1      40.730  26.038  42.361  1.00  0.00     0.060 C 
BRANCH  16  17
HETATM   17  C9  UNL     1      40.788  25.657  40.927  1.00  0.00     0.126 C 
BRANCH  17  18
HETATM   18  N1  UNL     1      39.929  24.615  40.492  1.00  0.00    -0.367 N 
HETATM   19  C10 UNL     1      40.119  23.975  39.400  1.00  0.00     0.196 C 
HETATM   20  N2  UNL     1      39.277  22.928  38.939  1.00  0.00    -0.067 NA
HETATM   21  N3  UNL     1      41.250  24.342  38.607  1.00  0.00    -0.067 NA
ATOM     22  H1  UNL     1      39.128  24.365  41.073  1.00  0.00     0.161 HD
ENDBRANCH  17  18
ENDBRANCH  16  17
ENDBRANCH  11  16
ENDBRANCH   8   9
ENDBRANCH   3   8
BRANCH   4  23
HETATM   23  C14 UNL     1      43.669  30.370  39.031  1.00  0.00     0.272 C 
HETATM   24  O1  UNL     1      42.435  30.400  38.671  1.00  0.00    -0.301 OA
ENDBRANCH   4  23
BRANCH   7  25
HETATM   25  C17 UNL     1      46.420  33.701  41.479  1.00  0.00     0.129 C 
BRANCH  25  26
HETATM   26  C18 UNL     1      45.844  35.042  41.623  1.00  0.00     0.020 C 
BRANCH  26  27
HETATM   27  C19 UNL     1      44.933  35.597  40.585  1.00  0.00     0.002 C 
BRANCH  27  28
HETATM   28  C20 UNL     1      43.703  36.120  41.320  1.00  0.00     0.000 C 
BRANCH  28  29
HETATM   29  C21 UNL     1      42.441  35.850  40.555  1.00  0.00     0.002 C 
BRANCH  29  30
HETATM   30  C22 UNL     1      41.801  34.544  40.894  1.00  0.00     0.027 C 
BRANCH  30  31
HETATM   31  C23 UNL     1      41.325  34.636  42.350  1.00  0.00     0.229 C 
BRANCH  31  32
HETATM   32  N6  UNL     1      39.911  34.951  42.400  1.00  0.00    -0.079 N 
ATOM     33  H63 UNL     1      39.739  35.859  42.833  1.00  0.00     0.274 HD
ATOM     34  H62 UNL     1      39.533  35.150  41.474  1.00  0.00     0.274 HD
ATOM     35  H61 UNL     1      39.397  34.204  42.867  1.00  0.00     0.274 HD
ENDBRANCH  31  32
ENDBRANCH  30  31
ENDBRANCH  29  30
ENDBRANCH  28  29
ENDBRANCH  27  28
ENDBRANCH  26  27
ENDBRANCH  25  26
ENDBRANCH   7  25
TORSDOF 14
ENDMDL
MODEL 4
REMARK VINA RESULT: -7.853319396      2.238      2.895
REMARK  14 active torsions:
REMARK  status: ('A' for Active; 'I' for Inactive)
REMARK    1  A    between atoms: C3_3  and  C4_4 
REMARK    2  A    between atoms: C4_4  and  C5_5 
REMARK    3  A    between atoms: C7_7  and  C8_8 
REMARK    4  A    between atoms: C8_8  and  C9_9 
REMARK    5  A    between atoms: C9_9  and  N1_10 
REMARK    6  A    between atoms: C13_19  and  C14_20 
REMARK    7  A    between atoms: N5_24  and  C17_25 
REMARK    8  A    between atoms: C17_25  and  C18_26 
REMARK    9  A    between atoms: C18_26  and  C19_27 
REMARK   10  A    between atoms: C19_27  and  C20_28 
REMARK   11  A    between atoms: C20_28  and  C21_29 
REMARK   12  A    between atoms: C21_29  and  C22_30 
REMARK   13  A    between atoms: C22_30  and  C23_31 
REMARK   14  A    between atoms: C23_31  and  N6_32 
ROOT
HETATM    1  C1  UNL     1      44.813  32.929  43.013  1.00  0.00     0.044 C 
HETATM    2  C2  UNL     1      43.477  32.973  43.020  1.00  0.00     0.036 A 
HETATM    3  C3  UNL     1      42.551  31.770  43.124  1.00  0.00     0.007 A 
HETATM    4  C13 UNL     1      41.329  32.253  42.983  1.00  0.00     0.036 A 
HETATM    5  C15 UNL     1      41.449  33.728  42.801  1.00  0.00     0.022 A 
HETATM    6  C16 UNL     1      40.276  34.616  42.638  1.00  0.00     0.069 C 
HETATM    7  N5  UNL     1      42.667  34.095  42.830  1.00  0.00    -0.350 N 
ENDROOT
BRANCH   3   8
HETATM    8  C4  UNL     1      43.091  30.498  43.457  1.00  0.00     0.044 C 
BRANCH   8   9
HETATM    9  C5  UNL     1      43.186  29.274  43.035  1.00  0.00     0.034 A 
HETATM   10  C6  UNL     1      44.079  28.262  43.141  1.00  0.00     0.039 A 
HETATM   11  C7  UNL     1      43.711  27.176  42.365  1.00  0.00    -0.029 A 
HETATM   12  C11 UNL     1      42.555  27.545  41.774  1.00  0.00     0.029 A 
HETATM   13  C12 UNL     1      41.835  26.782  40.964  1.00  0.00     0.043 C 
HETATM   14  N4  UNL     1      42.234  28.774  42.159  1.00  0.00    -0.356 N 
ATOM     15  H4  UNL     1      41.404  29.281  41.853  1.00  0.00     0.166 HD
BRANCH  11  16
HETATM   16  C8  UNL     1      44.522  25.919  42.232  1.00  0.00     0.060 C 
BRANCH  16  17
HETATM   17  C9  UNL     1      44.074  24.808  43.110  1.00  0.00     0.126 C 
BRANCH  17  18
HETATM   18  N1  UNL     1      44.443  24.867  44.478  1.00  0.00    -0.367 N 
HETATM   19  C10 UNL     1      44.792  23.831  45.145  1.00  0.00     0.196 C 
HETATM   20  N2  UNL     1      45.165  23.859  46.514  1.00  0.00    -0.067 NA
HETATM   21  N3  UNL     1      44.806  22.578  44.458  1.00  0.00    -0.067 NA
ATOM     22  H1  UNL     1      44.429  25.772  44.951  1.00  0.00     0.161 HD
ENDBRANCH  17  18
ENDBRANCH  16  17
ENDBRANCH  11  16
ENDBRANCH   8   9
ENDBRANCH   3   8
BRANCH   4  23
HETATM   23  C14 UNL     1      40.046  31.593  43.001  1.00  0.00     0.272 C 
HETATM   24  O1  UNL     1      39.800  30.674  42.136  1.00  0.00    -0.301 OA
ENDBRANCH   4  23
BRANCH   7  25
HETATM   25  C17 UNL     1      43.119  35.487  42.782  1.00  0.00     0.129 C 
BRANCH  25  26
HETATM   26  C18 UNL     1      43.540  35.931  41.450  1.00  0.00     0.020 C 
BRANCH  26  27
HETATM   27  C19 UNL     1      42.828  35.464  40.229  1.00  0.00     0.002 C 
BRANCH  27  28
HETATM   28  C20 UNL     1      43.730  34.426  39.569  1.00  0.00     0.000 C 
BRANCH  28  29
HETATM   29  C21 UNL     1      43.009  33.131  39.336  1.00  0.00     0.002 C 
BRANCH  29  30
HETATM   30  C22 UNL     1      43.884  31.926  39.459  1.00  0.00     0.027 C 
BRANCH  30  31
HETATM   31  C23 UNL     1      42.990  30.695  39.264  1.00  0.00     0.229 C 
BRANCH  31  32
HETATM   32  N6  UNL     1      43.742  29.616  38.654  1.00  0.00    -0.079 N 
ATOM     33  H63 UNL     1      43.851  29.750  37.649  1.00  0.00     0.274 HD
ATOM     34  H62 UNL     1      44.727  29.642  38.919  1.00  0.00     0.274 HD
ATOM     35  H61 UNL     1      43.314  28.716  38.874  1.00  0.00     0.274 HD
ENDBRANCH  31  32
ENDBRANCH  30  31
ENDBRANCH  29  30
ENDBRANCH  28  29
ENDBRANCH  27  28
ENDBRANCH  26  27
ENDBRANCH  25  26
ENDBRANCH   7  25
TORSDOF 14
ENDMDL
MODEL 5
REMARK VINA RESULT: -7.850990695      2.327      3.222
REMARK  14 active torsions:
REMARK  status: ('A' for Active; 'I' for Inactive)
REMARK    1  A    between atoms: C3_3  and  C4_4 
REMARK    2  A    between atoms: C4_4  and  C5_5 
REMARK    3  A    between atoms: C7_7  and  C8_8 
REMARK    4  A    between atoms: C8_8  and  C9_9 
REMARK    5  A    between atoms: C9_9  and  N1_10 
REMARK    6  A    between atoms: C13_19  and  C14_20 
REMARK    7  A    between atoms: N5_24  and  C17_25 
REMARK    8  A    between atoms: C17_25  and  C18_26 
REMARK    9  A    between atoms: C18_26  and  C19_27 
REMARK   10  A    between atoms: C19_27  and  C20_28 
REMARK   11  A    between atoms: C20_28  and  C21_29 
REMARK   12  A    between atoms: C21_29  and  C22_30 
REMARK   13  A    between atoms: C22_30  and  C23_31 
REMARK   14  A    between atoms: C23_31  and  N6_32 
ROOT
HETATM    1  C1  UNL     1      44.844  33.286  43.800  1.00  0.00     0.044 C 
HETATM    2  C2  UNL     1      43.557  33.396  43.456  1.00  0.00     0.036 A 
HETATM    3  C3  UNL     1      42.471  32.370  43.748  1.00  0.00     0.007 A 
HETATM    4  C13 UNL     1      41.388  32.823  43.141  1.00  0.00     0.036 A 
HETATM    5  C15 UNL     1      41.749  34.109  42.480  1.00  0.00     0.022 A 
HETATM    6  C16 UNL     1      40.774  34.925  41.721  1.00  0.00     0.069 C 
HETATM    7  N5  UNL     1      42.971  34.399  42.680  1.00  0.00    -0.350 N 
ENDROOT
BRANCH   3   8
HETATM    8  C4  UNL     1      42.744  31.296  44.638  1.00  0.00     0.044 C 
BRANCH   8   9
HETATM    9  C5  UNL     1      43.221  30.090  44.684  1.00  0.00     0.034 A 
HETATM   10  C6  UNL     1      43.410  29.071  43.814  1.00  0.00     0.039 A 
HETATM   11  C7  UNL     1      43.866  27.932  44.455  1.00  0.00    -0.029 A 
HETATM   12  C11 UNL     1      43.959  28.278  45.757  1.00  0.00     0.029 A 
HETATM   13  C12 UNL     1      44.392  27.486  46.727  1.00  0.00     0.043 C 
HETATM   14  N4  UNL     1      43.584  29.542  45.906  1.00  0.00    -0.356 N 
ATOM     15  H4  UNL     1      43.565  30.042  46.795  1.00  0.00     0.166 HD
BRANCH  11  16
HETATM   16  C8  UNL     1      44.122  26.621  43.769  1.00  0.00     0.060 C 
BRANCH  16  17
HETATM   17  C9  UNL     1      43.440  26.475  42.457  1.00  0.00     0.126 C 
BRANCH  17  18
HETATM   18  N1  UNL     1      42.267  25.678  42.416  1.00  0.00    -0.367 N 
HETATM   19  C10 UNL     1      41.348  25.848  41.540  1.00  0.00     0.196 C 
HETATM   20  N2  UNL     1      40.164  25.067  41.473  1.00  0.00    -0.067 NA
HETATM   21  N3  UNL     1      41.539  26.885  40.576  1.00  0.00    -0.067 NA
ATOM     22  H1  UNL     1      42.150  24.941  43.111  1.00  0.00     0.161 HD
ENDBRANCH  17  18
ENDBRANCH  16  17
ENDBRANCH  11  16
ENDBRANCH   8   9
ENDBRANCH   3   8
BRANCH   4  23
HETATM   23  C14 UNL     1      40.051  32.284  43.073  1.00  0.00     0.272 C 
HETATM   24  O1  UNL     1      39.819  31.275  42.310  1.00  0.00    -0.301 OA
ENDBRANCH   4  23
BRANCH   7  25
HETATM   25  C17 UNL     1      43.614  35.643  42.252  1.00  0.00     0.129 C 
BRANCH  25  26
HETATM   26  C18 UNL     1      43.973  35.670  40.831  1.00  0.00     0.020 C 
BRANCH  26  27
HETATM   27  C19 UNL     1      44.422  34.435  40.134  1.00  0.00     0.002 C 
BRANCH  27  28
HETATM   28  C20 UNL     1      43.348  34.102  39.102  1.00  0.00     0.000 C 
BRANCH  28  29
HETATM   29  C21 UNL     1      42.916  32.668  39.191  1.00  0.00     0.002 C 
BRANCH  29  30
HETATM   30  C22 UNL     1      43.761  31.841  40.103  1.00  0.00     0.027 C 
BRANCH  30  31
HETATM   31  C23 UNL     1      42.927  30.621  40.513  1.00  0.00     0.229 C 
BRANCH  31  32
HETATM   32  N6  UNL     1      43.520  29.405  39.991  1.00  0.00    -0.079 N 
ATOM     33  H63 UNL     1      42.862  28.625  40.004  1.00  0.00     0.274 HD
ATOM     34  H62 UNL     1      43.673  29.459  38.984  1.00  0.00     0.274 HD
ATOM     35  H61 UNL     1      44.380  29.185  40.495  1.00  0.00     0.274 HD
ENDBRANCH  31  32
ENDBRANCH  30  31
ENDBRANCH  29  30
ENDBRANCH  28  29
ENDBRANCH  27  28
ENDBRANCH  26  27
ENDBRANCH  25  26
ENDBRANCH   7  25
TORSDOF 14
ENDMDL
