MODEL 1
REMARK VINA RESULT: -7.461701991      0.000      0.000
REMARK  14 active torsions:
REMARK  status: ('A' for Active; 'I' for Inactive)
REMARK    1  A    between atoms: C2_2  and  C3_3 
REMARK    2  A    between atoms: C3_3  and  C4_4 
REMARK    3  A    between atoms: C6_6  and  N1_7 
REMARK    4  A    between atoms: N3_12  and  C8_13 
REMARK    5  A    between atoms: C8_13  and  C9_14 
REMARK    6  A    between atoms: C9_14  and  C10_15 
REMARK    7  A    between atoms: C10_15  and  N5_19 
REMARK    8  A    between atoms: C12_22  and  O1_23 
REMARK    9  A    between atoms: O1_23  and  C13_24 
REMARK   10  A    between atoms: C13_24  and  C14_25 
REMARK       I    between atoms: C14_25  and  N6_27 
REMARK   11  A    between atoms: N6_27  and  C15_29 
REMARK   12  A    between atoms: C15_29  and  C16_30 
REMARK   13  A    between atoms: C16_30  and  C17_31 
REMARK   14  A    between atoms: C17_31  and  N7_32 
ROOT
HETATM    1  C4  UNL     1      43.798  32.918  38.971  1.00  0.00     0.001 A 
HETATM    2  C5  UNL     1      43.083  31.740  38.961  1.00  0.00     0.061 A 
HETATM    3  C6  UNL     1      43.712  30.516  38.905  1.00  0.00     0.116 A 
HETATM    4  N2  UNL     1      45.054  30.513  38.858  1.00  0.00    -0.282 N 
ATOM      5  H2  UNL     1      45.545  29.621  38.815  1.00  0.00     0.189 HD
HETATM    6  N3  UNL     1      45.772  31.654  38.865  1.00  0.00    -0.269 N 
HETATM    7  C12 UNL     1      45.187  32.850  38.921  1.00  0.00     0.166 A 
ENDROOT
BRANCH   7   8
HETATM    8  O1  UNL     1      45.853  34.030  38.940  1.00  0.00    -0.325 OA
BRANCH   8   9
HETATM    9  C13 UNL     1      46.791  34.557  39.809  1.00  0.00     0.280 C 
BRANCH   9  10
HETATM   10  C14 UNL     1      46.172  34.618  41.182  1.00  0.00     0.241 C 
HETATM   11  O2  UNL     1      45.616  35.677  41.541  1.00  0.00    -0.271 OA
HETATM   12  N6  UNL     1      46.244  33.480  42.008  1.00  0.00    -0.359 N 
ATOM     13  H6  UNL     1      46.717  32.653  41.641  1.00  0.00     0.162 HD
BRANCH  12  14
HETATM   14  C15 UNL     1      45.687  33.408  43.347  1.00  0.00     0.124 C 
BRANCH  14  15
HETATM   15  C16 UNL     1      44.238  32.993  43.231  1.00  0.00     0.047 C 
BRANCH  15  16
HETATM   16  C17 UNL     1      43.445  34.015  44.038  1.00  0.00     0.237 C 
BRANCH  16  17
HETATM   17  N7  UNL     1      42.343  33.364  44.675  1.00  0.00    -0.079 N 
HETATM   18  C18 UNL     1      41.941  32.233  43.869  1.00  0.00     0.271 C 
HETATM   19  C19 UNL     1      41.266  34.329  44.807  1.00  0.00     0.271 C 
HETATM   20  C20 UNL     1      42.668  32.902  45.997  1.00  0.00     0.271 C 
ENDBRANCH  16  17
ENDBRANCH  15  16
ENDBRANCH  14  15
ENDBRANCH  12  14
ENDBRANCH   9  10
ENDBRANCH   8   9
ENDBRANCH   7   8
BRANCH   1  21
HETATM   21  C3  UNL     1      43.069  34.197  39.047  1.00  0.00     0.069 C 
BRANCH  21  22
HETATM   22  C2  UNL     1      42.401  34.293  40.369  1.00  0.00    -0.032 C 
HETATM   23  C1  UNL     1      42.104  35.418  40.954  1.00  0.00     0.007 C 
ENDBRANCH  21  22
ENDBRANCH   1  21
BRANCH   6  24
HETATM   24  C8  UNL     1      47.219  31.475  38.776  1.00  0.00     0.159 C 
BRANCH  24  25
HETATM   25  C9  UNL     1      47.511  30.431  37.756  1.00  0.00     0.097 C 
BRANCH  25  26
HETATM   26  C10 UNL     1      48.933  30.485  37.285  1.00  0.00     0.071 C 
HETATM   27  N4  UNL     1      49.473  31.594  36.926  1.00  0.00    -0.389 N 
ATOM     28  H42 UNL     1      48.909  32.443  36.969  1.00  0.00     0.157 HD
ATOM     29  H41 UNL     1      50.441  31.630  36.606  1.00  0.00     0.157 HD
BRANCH  26  30
HETATM   30  N5  UNL     1      49.720  29.302  37.225  1.00  0.00    -0.384 N 
HETATM   31  C11 UNL     1      49.441  28.180  36.366  1.00  0.00     0.147 C 
ATOM     32  H5  UNL     1      50.538  29.244  37.833  1.00  0.00     0.160 HD
ENDBRANCH  26  30
ENDBRANCH  25  26
ENDBRANCH  24  25
ENDBRANCH   6  24
BRANCH   3  33
HETATM   33  N1  UNL     1      43.066  29.400  38.895  1.00  0.00    -0.380 N 
HETATM   34  C7  UNL     1      42.268  29.076  40.062  1.00  0.00     0.147 C 
ATOM     35  H1  UNL     1      43.116  28.767  38.097  1.00  0.00     0.160 HD
ENDBRANCH   3  33
TORSDOF 14
ENDMDL
MODEL 2
REMARK VINA RESULT: -7.336145118      2.015      5.156
REMARK  14 active torsions:
REMARK  status: ('A' for Active; 'I' for Inactive)
REMARK    1  A    between atoms: C2_2  and  C3_3 
REMARK    2  A    between atoms: C3_3  and  C4_4 
REMARK    3  A    between atoms: C6_6  and  N1_7 
REMARK    4  A    between atoms: N3_12  and  C8_13 
REMARK    5  A    between atoms: C8_13  and  C9_14 
REMARK    6  A    between atoms: C9_14  and  C10_15 
REMARK    7  A    between atoms: C10_15  and  N5_19 
REMARK    8  A    between atoms: C12_22  and  O1_23 
REMARK    9  A    between atoms: O1_23  and  C13_24 
REMARK   10  A    between atoms: C13_24  and  C14_25 
REMARK       I    between atoms: C14_25  and  N6_27 
REMARK   11  A    between atoms: N6_27  and  C15_29 
REMARK   12  A    between atoms: C15_29  and  C16_30 
REMARK   13  A    between atoms: C16_30  and  C17_31 
REMARK   14  A    between atoms: C17_31  and  N7_32 
ROOT
HETATM    1  C4  UNL     1      46.054  31.573  38.815  1.00  0.00     0.001 A 
HETATM    2  C5  UNL     1      45.322  30.405  38.803  1.00  0.00     0.061 A 
HETATM    3  C6  UNL     1      43.948  30.416  38.895  1.00  0.00     0.116 A 
HETATM    4  N2  UNL     1      43.345  31.612  39.000  1.00  0.00    -0.282 N 
ATOM      5  H2  UNL     1      42.329  31.649  39.070  1.00  0.00     0.189 HD
HETATM    6  N3  UNL     1      44.044  32.765  39.014  1.00  0.00    -0.269 N 
HETATM    7  C12 UNL     1      45.372  32.781  38.925  1.00  0.00     0.166 A 
ENDROOT
BRANCH   7   8
HETATM    8  O1  UNL     1      46.129  33.906  38.927  1.00  0.00    -0.325 OA
BRANCH   8   9
HETATM    9  C13 UNL     1      46.965  34.466  39.875  1.00  0.00     0.280 C 
BRANCH   9  10
HETATM   10  C14 UNL     1      46.201  34.565  41.170  1.00  0.00     0.241 C 
HETATM   11  O2  UNL     1      45.577  35.619  41.416  1.00  0.00    -0.271 OA
HETATM   12  N6  UNL     1      46.219  33.469  42.053  1.00  0.00    -0.359 N 
ATOM     13  H6  UNL     1      46.754  32.644  41.779  1.00  0.00     0.162 HD
BRANCH  12  14
HETATM   14  C15 UNL     1      45.525  33.438  43.328  1.00  0.00     0.124 C 
BRANCH  14  15
HETATM   15  C16 UNL     1      44.299  32.565  43.173  1.00  0.00     0.047 C 
BRANCH  15  16
HETATM   16  C17 UNL     1      43.872  32.191  44.587  1.00  0.00     0.237 C 
BRANCH  16  17
HETATM   17  N7  UNL     1      42.893  31.149  44.527  1.00  0.00    -0.079 N 
HETATM   18  C18 UNL     1      41.703  31.666  43.887  1.00  0.00     0.271 C 
HETATM   19  C19 UNL     1      42.618  30.712  45.883  1.00  0.00     0.271 C 
HETATM   20  C20 UNL     1      43.357  30.003  43.793  1.00  0.00     0.271 C 
ENDBRANCH  16  17
ENDBRANCH  15  16
ENDBRANCH  14  15
ENDBRANCH  12  14
ENDBRANCH   9  10
ENDBRANCH   8   9
ENDBRANCH   7   8
BRANCH   1  21
HETATM   21  C3  UNL     1      47.522  31.498  38.699  1.00  0.00     0.069 C 
BRANCH  21  22
HETATM   22  C2  UNL     1      47.874  30.447  37.713  1.00  0.00    -0.032 C 
HETATM   23  C1  UNL     1      49.080  30.240  37.269  1.00  0.00     0.007 C 
ENDBRANCH  21  22
ENDBRANCH   1  21
BRANCH   6  24
HETATM   24  C8  UNL     1      43.237  33.975  39.167  1.00  0.00     0.159 C 
BRANCH  24  25
HETATM   25  C9  UNL     1      42.298  33.783  40.306  1.00  0.00     0.097 C 
BRANCH  25  26
HETATM   26  C10 UNL     1      41.884  35.087  40.919  1.00  0.00     0.071 C 
HETATM   27  N4  UNL     1      42.695  36.080  40.981  1.00  0.00    -0.389 N 
ATOM     28  H42 UNL     1      43.635  35.962  40.601  1.00  0.00     0.157 HD
ATOM     29  H41 UNL     1      42.413  36.967  41.398  1.00  0.00     0.157 HD
BRANCH  26  30
HETATM   30  N5  UNL     1      40.574  35.253  41.448  1.00  0.00    -0.384 N 
HETATM   31  C11 UNL     1      40.144  34.755  42.730  1.00  0.00     0.147 C 
ATOM     32  H5  UNL     1      39.893  35.759  40.882  1.00  0.00     0.160 HD
ENDBRANCH  26  30
ENDBRANCH  25  26
ENDBRANCH  24  25
ENDBRANCH   6  24
BRANCH   3  33
HETATM   33  N1  UNL     1      43.239  29.339  38.885  1.00  0.00    -0.380 N 
HETATM   34  C7  UNL     1      42.223  29.194  39.909  1.00  0.00     0.147 C 
ATOM     35  H1  UNL     1      43.389  28.615  38.182  1.00  0.00     0.160 HD
ENDBRANCH   3  33
TORSDOF 14
ENDMDL
MODEL 3
REMARK VINA RESULT: -7.175233828      4.219      7.044
REMARK  14 active torsions:
REMARK  status: ('A' for Active; 'I' for Inactive)
REMARK    1  A    between atoms: C2_2  and  C3_3 
REMARK    2  A    between atoms: C3_3  and  C4_4 
REMARK    3  A    between atoms: C6_6  and  N1_7 
REMARK    4  A    between atoms: N3_12  and  C8_13 
REMARK    5  A    between atoms: C8_13  and  C9_14 
REMARK    6  A    between atoms: C9_14  and  C10_15 
REMARK    7  A    between atoms: C10_15  and  N5_19 
REMARK    8  A    between atoms: C12_22  and  O1_23 
REMARK    9  A    between atoms: O1_23  and  C13_24 
REMARK   10  A    between atoms: C13_24  and  C14_25 
REMARK       I    between atoms: C14_25  and  N6_27 
REMARK   11  A    between atoms: N6_27  and  C15_29 
REMARK   12  A    between atoms: C15_29  and  C16_30 
REMARK   13  A    between atoms: C16_30  and  C17_31 
REMARK   14  A    between atoms: C17_31  and  N7_32 
ROOT
HETATM    1  C4  UNL     1      42.785  30.059  45.120  1.00  0.00     0.001 A 
HETATM    2  C5  UNL     1      43.462  29.083  45.819  1.00  0.00     0.061 A 
HETATM    3  C6  UNL     1      43.703  27.842  45.274  1.00  0.00     0.116 A 
HETATM    4  N2  UNL     1      43.249  27.616  44.030  1.00  0.00    -0.282 N 
ATOM      5  H2  UNL     1      43.413  26.705  43.602  1.00  0.00     0.189 HD
HETATM    6  N3  UNL     1      42.584  28.557  43.330  1.00  0.00    -0.269 N 
HETATM    7  C12 UNL     1      42.340  29.765  43.835  1.00  0.00     0.166 A 
ENDROOT
BRANCH   7   8
HETATM    8  O1  UNL     1      41.685  30.753  43.179  1.00  0.00    -0.325 OA
BRANCH   8   9
HETATM    9  C13 UNL     1      40.347  30.960  42.901  1.00  0.00     0.280 C 
BRANCH   9  10
HETATM   10  C14 UNL     1      40.141  32.434  42.664  1.00  0.00     0.241 C 
HETATM   11  O2  UNL     1      39.139  32.800  42.015  1.00  0.00    -0.271 OA
HETATM   12  N6  UNL     1      41.084  33.341  43.182  1.00  0.00    -0.359 N 
ATOM     13  H6  UNL     1      41.877  32.962  43.701  1.00  0.00     0.162 HD
BRANCH  12  14
HETATM   14  C15 UNL     1      41.000  34.782  43.026  1.00  0.00     0.124 C 
BRANCH  14  15
HETATM   15  C16 UNL     1      41.674  35.153  41.724  1.00  0.00     0.047 C 
BRANCH  15  16
HETATM   16  C17 UNL     1      43.171  35.138  42.010  1.00  0.00     0.237 C 
BRANCH  16  17
HETATM   17  N7  UNL     1      43.859  34.536  40.909  1.00  0.00    -0.079 N 
HETATM   18  C18 UNL     1      45.093  35.255  40.682  1.00  0.00     0.271 C 
HETATM   19  C19 UNL     1      42.989  34.597  39.749  1.00  0.00     0.271 C 
HETATM   20  C20 UNL     1      44.164  33.151  41.144  1.00  0.00     0.271 C 
ENDBRANCH  16  17
ENDBRANCH  15  16
ENDBRANCH  14  15
ENDBRANCH  12  14
ENDBRANCH   9  10
ENDBRANCH   8   9
ENDBRANCH   7   8
BRANCH   1  21
HETATM   21  C3  UNL     1      42.571  31.373  45.753  1.00  0.00     0.069 C 
BRANCH  21  22
HETATM   22  C2  UNL     1      43.858  32.110  45.780  1.00  0.00    -0.032 C 
HETATM   23  C1  UNL     1      44.224  32.970  44.874  1.00  0.00     0.007 C 
ENDBRANCH  21  22
ENDBRANCH   1  21
BRANCH   6  24
HETATM   24  C8  UNL     1      42.131  28.137  42.005  1.00  0.00     0.159 C 
BRANCH  24  25
HETATM   25  C9  UNL     1      41.046  27.132  42.166  1.00  0.00     0.097 C 
BRANCH  25  26
HETATM   26  C10 UNL     1      41.199  25.980  41.219  1.00  0.00     0.071 C 
HETATM   27  N4  UNL     1      42.228  25.878  40.458  1.00  0.00    -0.389 N 
ATOM     28  H42 UNL     1      42.944  26.603  40.513  1.00  0.00     0.157 HD
ATOM     29  H41 UNL     1      42.333  25.094  39.814  1.00  0.00     0.157 HD
BRANCH  26  30
HETATM   30  N5  UNL     1      40.202  24.969  41.143  1.00  0.00    -0.384 N 
HETATM   31  C11 UNL     1      39.659  24.451  39.913  1.00  0.00     0.147 C 
ATOM     32  H5  UNL     1      39.846  24.585  42.018  1.00  0.00     0.160 HD
ENDBRANCH  26  30
ENDBRANCH  25  26
ENDBRANCH  24  25
ENDBRANCH   6  24
BRANCH   3  33
HETATM   33  N1  UNL     1      44.335  26.913  45.906  1.00  0.00    -0.380 N 
HETATM   34  C7  UNL     1      44.470  27.051  47.343  1.00  0.00     0.147 C 
ATOM     35  H1  UNL     1      44.725  26.109  45.413  1.00  0.00     0.160 HD
ENDBRANCH   3  33
TORSDOF 14
ENDMDL
MODEL 4
REMARK VINA RESULT: -7.127175104      3.348      7.513
REMARK  14 active torsions:
REMARK  status: ('A' for Active; 'I' for Inactive)
REMARK    1  A    between atoms: C2_2  and  C3_3 
REMARK    2  A    between atoms: C3_3  and  C4_4 
REMARK    3  A    between atoms: C6_6  and  N1_7 
REMARK    4  A    between atoms: N3_12  and  C8_13 
REMARK    5  A    between atoms: C8_13  and  C9_14 
REMARK    6  A    between atoms: C9_14  and  C10_15 
REMARK    7  A    between atoms: C10_15  and  N5_19 
REMARK    8  A    between atoms: C12_22  and  O1_23 
REMARK    9  A    between atoms: O1_23  and  C13_24 
REMARK   10  A    between atoms: C13_24  and  C14_25 
REMARK       I    between atoms: C14_25  and  N6_27 
REMARK   11  A    between atoms: N6_27  and  C15_29 
REMARK   12  A    between atoms: C15_29  and  C16_30 
REMARK   13  A    between atoms: C16_30  and  C17_31 
REMARK   14  A    between atoms: C17_31  and  N7_32 
ROOT
HETATM    1  C4  UNL     1      42.345  34.069  44.199  1.00  0.00     0.001 A 
HETATM    2  C5  UNL     1      42.122  34.786  45.354  1.00  0.00     0.061 A 
HETATM    3  C6  UNL     1      42.337  34.233  46.597  1.00  0.00     0.116 A 
HETATM    4  N2  UNL     1      42.771  32.963  46.642  1.00  0.00    -0.282 N 
ATOM      5  H2  UNL     1      42.938  32.530  47.549  1.00  0.00     0.189 HD
HETATM    6  N3  UNL     1      42.994  32.245  45.523  1.00  0.00    -0.269 N 
HETATM    7  C12 UNL     1      42.796  32.757  44.310  1.00  0.00     0.166 A 
ENDROOT
BRANCH   7   8
HETATM    8  O1  UNL     1      43.010  32.089  43.150  1.00  0.00    -0.325 OA
BRANCH   8   9
HETATM    9  C13 UNL     1      42.361  31.022  42.556  1.00  0.00     0.280 C 
BRANCH   9  10
HETATM   10  C14 UNL     1      42.504  31.162  41.062  1.00  0.00     0.241 C 
HETATM   11  O2  UNL     1      42.099  30.232  40.333  1.00  0.00    -0.271 OA
HETATM   12  N6  UNL     1      43.088  32.334  40.545  1.00  0.00    -0.359 N 
ATOM     13  H6  UNL     1      43.394  33.048  41.207  1.00  0.00     0.162 HD
BRANCH  12  14
HETATM   14  C15 UNL     1      43.281  32.592  39.129  1.00  0.00     0.124 C 
BRANCH  14  15
HETATM   15  C16 UNL     1      44.553  33.394  38.968  1.00  0.00     0.047 C 
BRANCH  15  16
HETATM   16  C17 UNL     1      45.298  33.266  40.291  1.00  0.00     0.237 C 
BRANCH  16  17
HETATM   17  N7  UNL     1      46.086  34.440  40.507  1.00  0.00    -0.079 N 
HETATM   18  C18 UNL     1      45.208  35.527  40.880  1.00  0.00     0.271 C 
HETATM   19  C19 UNL     1      46.801  34.734  39.279  1.00  0.00     0.271 C 
HETATM   20  C20 UNL     1      47.068  34.258  41.542  1.00  0.00     0.271 C 
ENDBRANCH  16  17
ENDBRANCH  15  16
ENDBRANCH  14  15
ENDBRANCH  12  14
ENDBRANCH   9  10
ENDBRANCH   8   9
ENDBRANCH   7   8
BRANCH   1  21
HETATM   21  C3  UNL     1      42.111  34.719  42.896  1.00  0.00     0.069 C 
BRANCH  21  22
HETATM   22  C2  UNL     1      40.650  34.783  42.646  1.00  0.00    -0.032 C 
HETATM   23  C1  UNL     1      39.919  33.750  42.338  1.00  0.00     0.007 C 
ENDBRANCH  21  22
ENDBRANCH   1  21
BRANCH   6  24
HETATM   24  C8  UNL     1      43.434  30.869  45.749  1.00  0.00     0.159 C 
BRANCH  24  25
HETATM   25  C9  UNL     1      42.286  30.080  46.275  1.00  0.00     0.097 C 
BRANCH  25  26
HETATM   26  C10 UNL     1      42.412  28.621  45.956  1.00  0.00     0.071 C 
HETATM   27  N4  UNL     1      42.089  28.163  44.800  1.00  0.00    -0.389 N 
ATOM     28  H42 UNL     1      41.743  28.818  44.099  1.00  0.00     0.157 HD
ATOM     29  H41 UNL     1      42.176  27.170  44.583  1.00  0.00     0.157 HD
BRANCH  26  30
HETATM   30  N5  UNL     1      42.895  27.706  46.932  1.00  0.00    -0.384 N 
HETATM   31  C11 UNL     1      44.266  27.282  47.044  1.00  0.00     0.147 C 
ATOM     32  H5  UNL     1      42.223  27.325  47.599  1.00  0.00     0.160 HD
ENDBRANCH  26  30
ENDBRANCH  25  26
ENDBRANCH  24  25
ENDBRANCH   6  24
BRANCH   3  33
HETATM   33  N1  UNL     1      42.137  34.883  47.693  1.00  0.00    -0.380 N 
HETATM   34  C7  UNL     1      40.771  35.241  48.022  1.00  0.00     0.147 C 
ATOM     35  H1  UNL     1      42.912  35.135  48.307  1.00  0.00     0.160 HD
ENDBRANCH   3  33
TORSDOF 14
ENDMDL
MODEL 5
REMARK VINA RESULT: -7.107427293      5.110      7.467
REMARK  14 active torsions:
REMARK  status: ('A' for Active; 'I' for Inactive)
REMARK    1  A    between atoms: C2_2  and  C3_3 
REMARK    2  A    between atoms: C3_3  and  C4_4 
REMARK    3  A    between atoms: C6_6  and  N1_7 
REMARK    4  A    between atoms: N3_12  and  C8_13 
REMARK    5  A    between atoms: C8_13  and  C9_14 
REMARK    6  A    between atoms: C9_14  and  C10_15 
REMARK    7  A    between atoms: C10_15  and  N5_19 
REMARK    8  A    between atoms: C12_22  and  O1_23 
REMARK    9  A    between atoms: O1_23  and  C13_24 
REMARK   10  A    between atoms: C13_24  and  C14_25 
REMARK       I    between atoms: C14_25  and  N6_27 
REMARK   11  A    between atoms: N6_27  and  C15_29 
REMARK   12  A    between atoms: C15_29  and  C16_30 
REMARK   13  A    between atoms: C16_30  and  C17_31 
REMARK   14  A    between atoms: C17_31  and  N7_32 
ROOT
HETATM    1  C4  UNL     1      43.287  29.944  43.119  1.00  0.00     0.001 A 
HETATM    2  C5  UNL     1      43.791  28.932  42.331  1.00  0.00     0.061 A 
HETATM    3  C6  UNL     1      44.126  27.706  42.860  1.00  0.00     0.116 A 
HETATM    4  N2  UNL     1      43.944  27.532  44.179  1.00  0.00    -0.282 N 
ATOM      5  H2  UNL     1      44.184  26.633  44.597  1.00  0.00     0.189 HD
HETATM    6  N3  UNL     1      43.453  28.509  44.968  1.00  0.00    -0.269 N 
HETATM    7  C12 UNL     1      43.120  29.703  44.480  1.00  0.00     0.166 A 
ENDROOT
BRANCH   7   8
HETATM    8  O1  UNL     1      42.615  30.721  45.219  1.00  0.00    -0.325 OA
BRANCH   8   9
HETATM    9  C13 UNL     1      43.211  31.668  46.030  1.00  0.00     0.280 C 
BRANCH   9  10
HETATM   10  C14 UNL     1      42.392  32.932  45.952  1.00  0.00     0.241 C 
HETATM   11  O2  UNL     1      41.527  33.028  45.056  1.00  0.00    -0.271 OA
HETATM   12  N6  UNL     1      42.633  33.953  46.890  1.00  0.00    -0.359 N 
ATOM     13  H6  UNL     1      43.359  33.798  47.590  1.00  0.00     0.162 HD
BRANCH  12  14
HETATM   14  C15 UNL     1      41.914  35.214  46.924  1.00  0.00     0.124 C 
BRANCH  14  15
HETATM   15  C16 UNL     1      42.397  35.998  48.124  1.00  0.00     0.047 C 
BRANCH  15  16
HETATM   16  C17 UNL     1      41.244  35.988  49.120  1.00  0.00     0.237 C 
BRANCH  16  17
HETATM   17  N7  UNL     1      41.361  37.116  49.993  1.00  0.00    -0.079 N 
HETATM   18  C18 UNL     1      40.392  36.982  51.058  1.00  0.00     0.271 C 
HETATM   19  C19 UNL     1      41.126  38.315  49.210  1.00  0.00     0.271 C 
HETATM   20  C20 UNL     1      42.674  37.230  50.568  1.00  0.00     0.271 C 
ENDBRANCH  16  17
ENDBRANCH  15  16
ENDBRANCH  14  15
ENDBRANCH  12  14
ENDBRANCH   9  10
ENDBRANCH   8   9
ENDBRANCH   7   8
BRANCH   1  21
HETATM   21  C3  UNL     1      42.934  31.231  42.492  1.00  0.00     0.069 C 
BRANCH  21  22
HETATM   22  C2  UNL     1      44.181  31.963  42.161  1.00  0.00    -0.032 C 
HETATM   23  C1  UNL     1      44.649  32.958  42.860  1.00  0.00     0.007 C 
ENDBRANCH  21  22
ENDBRANCH   1  21
BRANCH   6  24
HETATM   24  C8  UNL     1      43.347  28.167  46.385  1.00  0.00     0.159 C 
BRANCH  24  25
HETATM   25  C9  UNL     1      44.667  27.661  46.854  1.00  0.00     0.097 C 
BRANCH  25  26
HETATM   26  C10 UNL     1      44.539  26.375  47.614  1.00  0.00     0.071 C 
HETATM   27  N4  UNL     1      43.810  26.296  48.668  1.00  0.00    -0.389 N 
ATOM     28  H42 UNL     1      43.316  27.133  48.979  1.00  0.00     0.157 HD
ATOM     29  H41 UNL     1      43.723  25.421  49.185  1.00  0.00     0.157 HD
BRANCH  26  30
HETATM   30  N5  UNL     1      45.228  25.209  47.182  1.00  0.00    -0.384 N 
HETATM   31  C11 UNL     1      44.801  24.367  46.094  1.00  0.00     0.147 C 
ATOM     32  H5  UNL     1      46.082  24.950  47.676  1.00  0.00     0.160 HD
ENDBRANCH  26  30
ENDBRANCH  25  26
ENDBRANCH  24  25
ENDBRANCH   6  24
BRANCH   3  33
HETATM   33  N1  UNL     1      44.598  26.743  42.145  1.00  0.00    -0.380 N 
HETATM   34  C7  UNL     1      44.147  25.398  42.447  1.00  0.00     0.147 C 
ATOM     35  H1  UNL     1      45.265  26.920  41.393  1.00  0.00     0.160 HD
ENDBRANCH   3  33
TORSDOF 14
ENDMDL
