MODEL 1
REMARK VINA RESULT: -7.705748771      0.000      0.000
REMARK  15 active torsions:
REMARK  status: ('A' for Active; 'I' for Inactive)
REMARK    1  A    between atoms: C2_2  and  C3_3 
REMARK    2  A    between atoms: C3_3  and  C4_4 
REMARK    3  A    between atoms: C4_4  and  C5_5 
REMARK    4  A    between atoms: C5_5  and  C6_6 
REMARK    5  A    between atoms: C6_6  and  C7_7 
REMARK    6  A    between atoms: C7_7  and  C8_8 
REMARK    7  A    between atoms: N3_14  and  C11_15 
REMARK    8  A    between atoms: C11_15  and  C12_16 
REMARK    9  A    between atoms: C12_16  and  C13_17 
REMARK   10  A    between atoms: C13_17  and  C14_18 
REMARK   11  A    between atoms: C14_18  and  N4_19 
REMARK   12  A    between atoms: C16_21  and  N5_22 
REMARK   13  A    between atoms: C17_27  and  N7_28 
REMARK   14  A    between atoms: N7_28  and  C18_30 
REMARK   15  A    between atoms: C18_30  and  C19_31 
ROOT
HETATM    1  C14 UNL     1      43.296  30.356  42.397  1.00  0.00     0.176 C 
ENDROOT
BRANCH   1   2
HETATM    2  C13 UNL     1      43.567  31.654  41.774  1.00  0.00    -0.004 C 
BRANCH   2   3
HETATM    3  C12 UNL     1      42.948  32.062  40.510  1.00  0.00     0.017 C 
BRANCH   3   4
HETATM    4  C11 UNL     1      43.584  32.473  39.452  1.00  0.00     0.118 C 
BRANCH   4   5
HETATM    5  N3  UNL     1      44.966  32.628  39.261  1.00  0.00    -0.253 N 
HETATM    6  C8  UNL     1      45.792  33.634  39.477  1.00  0.00     0.104 A 
HETATM    7  N1  UNL     1      47.055  33.228  39.084  1.00  0.00    -0.339 N 
HETATM    8  C9  UNL     1      46.929  31.989  38.649  1.00  0.00     0.201 A 
ATOM      9  H1  UNL     1      47.914  33.777  39.123  1.00  0.00     0.168 HD
HETATM   10  N2  UNL     1      45.666  31.578  38.738  1.00  0.00    -0.285 N 
HETATM   11  C10 UNL     1      45.172  30.282  38.350  1.00  0.00     0.179 C 
BRANCH   6  12
HETATM   12  C7  UNL     1      45.550  34.981  40.045  1.00  0.00     0.078 C 
BRANCH  12  13
HETATM   13  C6  UNL     1      45.445  34.833  41.551  1.00  0.00     0.007 C 
BRANCH  13  14
HETATM   14  C5  UNL     1      44.136  35.363  42.091  1.00  0.00     0.000 C 
BRANCH  14  15
HETATM   15  C4  UNL     1      43.352  36.062  40.986  1.00  0.00     0.000 C 
BRANCH  15  16
HETATM   16  C3  UNL     1      41.903  35.551  41.011  1.00  0.00    -0.000 C 
BRANCH  16  17
HETATM   17  C2  UNL     1      41.647  34.914  42.369  1.00  0.00    -0.005 C 
HETATM   18  C1  UNL     1      40.162  34.750  42.575  1.00  0.00     0.005 C 
ENDBRANCH  16  17
ENDBRANCH  15  16
ENDBRANCH  14  15
ENDBRANCH  13  14
ENDBRANCH  12  13
ENDBRANCH   6  12
ENDBRANCH   4   5
ENDBRANCH   3   4
ENDBRANCH   2   3
ENDBRANCH   1   2
BRANCH   1  19
HETATM   19  N4  UNL     1      42.958  30.341  43.797  1.00  0.00    -0.282 N 
HETATM   20  C15 UNL     1      42.637  29.279  44.517  1.00  0.00     0.159 A 
HETATM   21  C16 UNL     1      42.353  29.385  45.884  1.00  0.00     0.132 A 
HETATM   22  N6  UNL     1      42.393  30.562  46.522  1.00  0.00    -0.175 N 
HETATM   23  C17 UNL     1      42.721  31.631  45.770  1.00  0.00     0.694 A 
ATOM     24  H6  UNL     1      42.188  30.644  47.518  1.00  0.00     0.186 HD
HETATM   25  N9  UNL     1      42.986  31.515  44.479  1.00  0.00    -0.130 N 
ATOM     26  H9  UNL     1      43.228  32.361  43.963  1.00  0.00     0.206 HD
BRANCH  21  27
HETATM   27  N5  UNL     1      42.054  28.318  46.507  1.00  0.00    -0.384 N 
ATOM     28  H52 UNL     1      42.577  27.457  46.348  1.00  0.00     0.157 HD
ATOM     29  H51 UNL     1      41.275  28.358  47.164  1.00  0.00     0.157 HD
ENDBRANCH  21  27
BRANCH  23  30
HETATM   30  N7  UNL     1      42.759  32.779  46.391  1.00  0.00    -0.216 N 
ATOM     31  H7  UNL     1      42.651  32.779  47.405  1.00  0.00     0.178 HD
BRANCH  30  32
HETATM   32  C18 UNL     1      42.942  34.037  45.733  1.00  0.00     0.237 C 
BRANCH  32  33
HETATM   33  C19 UNL     1      41.920  35.033  46.152  1.00  0.00     0.249 C 
HETATM   34  N8  UNL     1      42.250  36.327  46.600  1.00  0.00    -0.061 NA
HETATM   35  O1  UNL     1      40.716  34.698  46.099  1.00  0.00    -0.275 OA
ENDBRANCH  32  33
ENDBRANCH  30  32
ENDBRANCH  23  30
ENDBRANCH   1  19
TORSDOF 15
ENDMDL
MODEL 2
REMARK VINA RESULT: -7.658499069      2.707      5.440
REMARK  15 active torsions:
REMARK  status: ('A' for Active; 'I' for Inactive)
REMARK    1  A    between atoms: C2_2  and  C3_3 
REMARK    2  A    between atoms: C3_3  and  C4_4 
REMARK    3  A    between atoms: C4_4  and  C5_5 
REMARK    4  A    between atoms: C5_5  and  C6_6 
REMARK    5  A    between atoms: C6_6  and  C7_7 
REMARK    6  A    between atoms: C7_7  and  C8_8 
REMARK    7  A    between atoms: N3_14  and  C11_15 
REMARK    8  A    between atoms: C11_15  and  C12_16 
REMARK    9  A    between atoms: C12_16  and  C13_17 
REMARK   10  A    between atoms: C13_17  and  C14_18 
REMARK   11  A    between atoms: C14_18  and  N4_19 
REMARK   12  A    between atoms: C16_21  and  N5_22 
REMARK   13  A    between atoms: C17_27  and  N7_28 
REMARK   14  A    between atoms: N7_28  and  C18_30 
REMARK   15  A    between atoms: C18_30  and  C19_31 
ROOT
HETATM    1  C14 UNL     1      43.716  31.951  44.885  1.00  0.00     0.176 C 
ENDROOT
BRANCH   1   2
HETATM    2  C13 UNL     1      44.211  32.519  43.628  1.00  0.00    -0.004 C 
BRANCH   2   3
HETATM    3  C12 UNL     1      44.448  33.954  43.456  1.00  0.00     0.017 C 
BRANCH   3   4
HETATM    4  C11 UNL     1      43.531  34.877  43.439  1.00  0.00     0.118 C 
BRANCH   4   5
HETATM    5  N3  UNL     1      42.313  34.894  42.743  1.00  0.00    -0.253 N 
HETATM    6  C8  UNL     1      42.009  35.104  41.476  1.00  0.00     0.104 A 
HETATM    7  N1  UNL     1      40.633  35.016  41.358  1.00  0.00    -0.339 N 
HETATM    8  C9  UNL     1      40.172  34.756  42.565  1.00  0.00     0.201 A 
ATOM      9  H1  UNL     1      40.085  35.131  40.505  1.00  0.00     0.168 HD
HETATM   10  N2  UNL     1      41.164  34.672  43.448  1.00  0.00    -0.285 N 
HETATM   11  C10 UNL     1      41.021  34.401  44.855  1.00  0.00     0.179 C 
BRANCH   6  12
HETATM   12  C7  UNL     1      42.876  35.369  40.304  1.00  0.00     0.078 C 
BRANCH  12  13
HETATM   13  C6  UNL     1      42.747  34.188  39.359  1.00  0.00     0.007 C 
BRANCH  13  14
HETATM   14  C5  UNL     1      43.271  32.907  39.967  1.00  0.00     0.000 C 
BRANCH  14  15
HETATM   15  C4  UNL     1      44.796  32.902  39.959  1.00  0.00     0.000 C 
BRANCH  15  16
HETATM   16  C3  UNL     1      45.284  33.370  38.580  1.00  0.00    -0.000 C 
BRANCH  16  17
HETATM   17  C2  UNL     1      46.545  34.197  38.777  1.00  0.00    -0.005 C 
HETATM   18  C1  UNL     1      46.657  34.610  40.223  1.00  0.00     0.005 C 
ENDBRANCH  16  17
ENDBRANCH  15  16
ENDBRANCH  14  15
ENDBRANCH  13  14
ENDBRANCH  12  13
ENDBRANCH   6  12
ENDBRANCH   4   5
ENDBRANCH   3   4
ENDBRANCH   2   3
ENDBRANCH   1   2
BRANCH   1  19
HETATM   19  N4  UNL     1      43.102  30.648  44.836  1.00  0.00    -0.282 N 
HETATM   20  C15 UNL     1      42.623  29.967  45.863  1.00  0.00     0.159 A 
HETATM   21  C16 UNL     1      42.021  28.714  45.688  1.00  0.00     0.132 A 
HETATM   22  N6  UNL     1      41.904  28.151  44.479  1.00  0.00    -0.175 N 
HETATM   23  C17 UNL     1      42.400  28.862  43.447  1.00  0.00     0.694 A 
ATOM     24  H6  UNL     1      41.465  27.240  44.346  1.00  0.00     0.186 HD
HETATM   25  N9  UNL     1      42.966  30.044  43.628  1.00  0.00    -0.130 N 
ATOM     26  H9  UNL     1      43.323  30.533  42.807  1.00  0.00     0.206 HD
BRANCH  21  27
HETATM   27  N5  UNL     1      41.584  28.122  46.725  1.00  0.00    -0.384 N 
ATOM     28  H52 UNL     1      41.974  27.226  47.016  1.00  0.00     0.157 HD
ATOM     29  H51 UNL     1      40.835  28.576  47.248  1.00  0.00     0.157 HD
ENDBRANCH  21  27
BRANCH  23  30
HETATM   30  N7  UNL     1      42.288  28.314  42.267  1.00  0.00    -0.216 N 
ATOM     31  H7  UNL     1      41.763  27.443  42.191  1.00  0.00     0.178 HD
BRANCH  30  32
HETATM   32  C18 UNL     1      42.858  28.863  41.074  1.00  0.00     0.237 C 
BRANCH  32  33
HETATM   33  C19 UNL     1      41.832  29.073  40.018  1.00  0.00     0.249 C 
HETATM   34  N8  UNL     1      42.138  29.593  38.745  1.00  0.00    -0.061 NA
HETATM   35  O1  UNL     1      40.647  28.771  40.280  1.00  0.00    -0.275 OA
ENDBRANCH  32  33
ENDBRANCH  30  32
ENDBRANCH  23  30
ENDBRANCH   1  19
TORSDOF 15
ENDMDL
MODEL 3
REMARK VINA RESULT: -7.409174535      2.577      6.618
REMARK  15 active torsions:
REMARK  status: ('A' for Active; 'I' for Inactive)
REMARK    1  A    between atoms: C2_2  and  C3_3 
REMARK    2  A    between atoms: C3_3  and  C4_4 
REMARK    3  A    between atoms: C4_4  and  C5_5 
REMARK    4  A    between atoms: C5_5  and  C6_6 
REMARK    5  A    between atoms: C6_6  and  C7_7 
REMARK    6  A    between atoms: C7_7  and  C8_8 
REMARK    7  A    between atoms: N3_14  and  C11_15 
REMARK    8  A    between atoms: C11_15  and  C12_16 
REMARK    9  A    between atoms: C12_16  and  C13_17 
REMARK   10  A    between atoms: C13_17  and  C14_18 
REMARK   11  A    between atoms: C14_18  and  N4_19 
REMARK   12  A    between atoms: C16_21  and  N5_22 
REMARK   13  A    between atoms: C17_27  and  N7_28 
REMARK   14  A    between atoms: N7_28  and  C18_30 
REMARK   15  A    between atoms: C18_30  and  C19_31 
ROOT
HETATM    1  C14 UNL     1      45.958  33.376  42.727  1.00  0.00     0.176 C 
ENDROOT
BRANCH   1   2
HETATM    2  C13 UNL     1      44.617  33.374  43.317  1.00  0.00    -0.004 C 
BRANCH   2   3
HETATM    3  C12 UNL     1      44.310  32.668  44.563  1.00  0.00     0.017 C 
BRANCH   3   4
HETATM    4  C11 UNL     1      43.122  32.315  44.962  1.00  0.00     0.118 C 
BRANCH   4   5
HETATM    5  N3  UNL     1      41.961  32.117  44.199  1.00  0.00    -0.253 N 
HETATM    6  C8  UNL     1      41.096  32.951  43.655  1.00  0.00     0.104 A 
HETATM    7  N1  UNL     1      40.125  32.192  43.026  1.00  0.00    -0.339 N 
HETATM    8  C9  UNL     1      40.454  30.930  43.223  1.00  0.00     0.201 A 
ATOM      9  H1  UNL     1      39.315  32.540  42.512  1.00  0.00     0.168 HD
HETATM   10  N2  UNL     1      41.572  30.834  43.937  1.00  0.00    -0.285 N 
HETATM   11  C10 UNL     1      42.215  29.609  44.337  1.00  0.00     0.179 C 
BRANCH   6  12
HETATM   12  C7  UNL     1      41.065  34.432  43.627  1.00  0.00     0.078 C 
BRANCH  12  13
HETATM   13  C6  UNL     1      40.117  34.852  42.518  1.00  0.00     0.007 C 
BRANCH  13  14
HETATM   14  C5  UNL     1      40.846  35.205  41.242  1.00  0.00     0.000 C 
BRANCH  14  15
HETATM   15  C4  UNL     1      42.282  35.619  41.549  1.00  0.00     0.000 C 
BRANCH  15  16
HETATM   16  C3  UNL     1      43.176  35.210  40.369  1.00  0.00    -0.000 C 
BRANCH  16  17
HETATM   17  C2  UNL     1      42.776  33.809  39.932  1.00  0.00    -0.005 C 
HETATM   18  C1  UNL     1      43.039  33.647  38.456  1.00  0.00     0.005 C 
ENDBRANCH  16  17
ENDBRANCH  15  16
ENDBRANCH  14  15
ENDBRANCH  13  14
ENDBRANCH  12  13
ENDBRANCH   6  12
ENDBRANCH   4   5
ENDBRANCH   3   4
ENDBRANCH   2   3
ENDBRANCH   1   2
BRANCH   1  19
HETATM   19  N4  UNL     1      46.080  33.011  41.338  1.00  0.00    -0.282 N 
HETATM   20  C15 UNL     1      46.615  33.745  40.377  1.00  0.00     0.159 A 
HETATM   21  C16 UNL     1      46.703  33.271  39.062  1.00  0.00     0.132 A 
HETATM   22  N6  UNL     1      46.251  32.057  38.720  1.00  0.00    -0.175 N 
HETATM   23  C17 UNL     1      45.709  31.327  39.714  1.00  0.00     0.694 A 
ATOM     24  H6  UNL     1      46.314  31.707  37.764  1.00  0.00     0.186 HD
HETATM   25  N9  UNL     1      45.633  31.789  40.951  1.00  0.00    -0.130 N 
ATOM     26  H9  UNL     1      45.211  31.189  41.660  1.00  0.00     0.206 HD
BRANCH  21  27
HETATM   27  N5  UNL     1      47.231  34.036  38.196  1.00  0.00    -0.384 N 
ATOM     28  H52 UNL     1      47.910  34.745  38.471  1.00  0.00     0.157 HD
ATOM     29  H51 UNL     1      46.949  33.912  37.223  1.00  0.00     0.157 HD
ENDBRANCH  21  27
BRANCH  23  30
HETATM   30  N7  UNL     1      45.266  30.144  39.381  1.00  0.00    -0.216 N 
ATOM     31  H7  UNL     1      45.748  29.328  39.758  1.00  0.00     0.178 HD
BRANCH  30  32
HETATM   32  C18 UNL     1      44.146  29.924  38.518  1.00  0.00     0.237 C 
BRANCH  32  33
HETATM   33  C19 UNL     1      42.871  29.842  39.279  1.00  0.00     0.249 C 
HETATM   34  N8  UNL     1      42.775  30.147  40.651  1.00  0.00    -0.061 NA
HETATM   35  O1  UNL     1      41.840  29.487  38.664  1.00  0.00    -0.275 OA
ENDBRANCH  32  33
ENDBRANCH  30  32
ENDBRANCH  23  30
ENDBRANCH   1  19
TORSDOF 15
ENDMDL
MODEL 4
REMARK VINA RESULT: -7.389991197      1.090      2.036
REMARK  15 active torsions:
REMARK  status: ('A' for Active; 'I' for Inactive)
REMARK    1  A    between atoms: C2_2  and  C3_3 
REMARK    2  A    between atoms: C3_3  and  C4_4 
REMARK    3  A    between atoms: C4_4  and  C5_5 
REMARK    4  A    between atoms: C5_5  and  C6_6 
REMARK    5  A    between atoms: C6_6  and  C7_7 
REMARK    6  A    between atoms: C7_7  and  C8_8 
REMARK    7  A    between atoms: N3_14  and  C11_15 
REMARK    8  A    between atoms: C11_15  and  C12_16 
REMARK    9  A    between atoms: C12_16  and  C13_17 
REMARK   10  A    between atoms: C13_17  and  C14_18 
REMARK   11  A    between atoms: C14_18  and  N4_19 
REMARK   12  A    between atoms: C16_21  and  N5_22 
REMARK   13  A    between atoms: C17_27  and  N7_28 
REMARK   14  A    between atoms: N7_28  and  C18_30 
REMARK   15  A    between atoms: C18_30  and  C19_31 
ROOT
HETATM    1  C14 UNL     1      42.181  30.732  42.308  1.00  0.00     0.176 C 
ENDROOT
BRANCH   1   2
HETATM    2  C13 UNL     1      43.438  30.977  41.594  1.00  0.00    -0.004 C 
BRANCH   2   3
HETATM    3  C12 UNL     1      43.976  30.036  40.609  1.00  0.00     0.017 C 
BRANCH   3   4
HETATM    4  C11 UNL     1      44.563  30.358  39.494  1.00  0.00     0.118 C 
BRANCH   4   5
HETATM    5  N3  UNL     1      45.085  31.601  39.102  1.00  0.00    -0.253 N 
HETATM    6  C8  UNL     1      44.517  32.735  38.739  1.00  0.00     0.104 A 
HETATM    7  N1  UNL     1      45.529  33.630  38.439  1.00  0.00    -0.339 N 
HETATM    8  C9  UNL     1      46.664  32.989  38.637  1.00  0.00     0.201 A 
ATOM      9  H1  UNL     1      45.418  34.595  38.127  1.00  0.00     0.168 HD
HETATM   10  N2  UNL     1      46.442  31.741  39.044  1.00  0.00    -0.285 N 
HETATM   11  C10 UNL     1      47.453  30.762  39.351  1.00  0.00     0.179 C 
BRANCH   6  12
HETATM   12  C7  UNL     1      43.088  33.117  38.650  1.00  0.00     0.078 C 
BRANCH  12  13
HETATM   13  C6  UNL     1      42.951  34.521  39.210  1.00  0.00     0.007 C 
BRANCH  13  14
HETATM   14  C5  UNL     1      42.488  34.522  40.649  1.00  0.00     0.000 C 
BRANCH  14  15
HETATM   15  C4  UNL     1      43.261  35.562  41.453  1.00  0.00     0.000 C 
BRANCH  15  16
HETATM   16  C3  UNL     1      44.176  34.834  42.449  1.00  0.00    -0.000 C 
BRANCH  16  17
HETATM   17  C2  UNL     1      45.554  34.699  41.819  1.00  0.00    -0.005 C 
HETATM   18  C1  UNL     1      46.212  33.436  42.312  1.00  0.00     0.005 C 
ENDBRANCH  16  17
ENDBRANCH  15  16
ENDBRANCH  14  15
ENDBRANCH  13  14
ENDBRANCH  12  13
ENDBRANCH   6  12
ENDBRANCH   4   5
ENDBRANCH   3   4
ENDBRANCH   2   3
ENDBRANCH   1   2
BRANCH   1  19
HETATM   19  N4  UNL     1      42.237  30.613  43.743  1.00  0.00    -0.282 N 
HETATM   20  C15 UNL     1      42.111  29.500  44.444  1.00  0.00     0.159 A 
HETATM   21  C16 UNL     1      42.210  29.505  45.841  1.00  0.00     0.132 A 
HETATM   22  N6  UNL     1      42.436  30.632  46.527  1.00  0.00    -0.175 N 
HETATM   23  C17 UNL     1      42.560  31.755  45.793  1.00  0.00     0.694 A 
ATOM     24  H6  UNL     1      42.510  30.641  47.545  1.00  0.00     0.186 HD
HETATM   25  N9  UNL     1      42.463  31.735  44.474  1.00  0.00    -0.130 N 
ATOM     26  H9  UNL     1      42.566  32.618  43.974  1.00  0.00     0.206 HD
BRANCH  21  27
HETATM   27  N5  UNL     1      42.078  28.393  46.443  1.00  0.00    -0.384 N 
ATOM     28  H52 UNL     1      41.790  27.556  45.936  1.00  0.00     0.157 HD
ATOM     29  H51 UNL     1      42.269  28.373  47.445  1.00  0.00     0.157 HD
ENDBRANCH  21  27
BRANCH  23  30
HETATM   30  N7  UNL     1      42.778  32.856  46.461  1.00  0.00    -0.216 N 
ATOM     31  H7  UNL     1      42.829  32.798  47.478  1.00  0.00     0.178 HD
BRANCH  30  32
HETATM   32  C18 UNL     1      42.951  34.139  45.851  1.00  0.00     0.237 C 
BRANCH  32  33
HETATM   33  C19 UNL     1      41.903  35.101  46.283  1.00  0.00     0.249 C 
HETATM   34  N8  UNL     1      42.199  36.360  46.842  1.00  0.00    -0.061 NA
HETATM   35  O1  UNL     1      40.705  34.770  46.138  1.00  0.00    -0.275 OA
ENDBRANCH  32  33
ENDBRANCH  30  32
ENDBRANCH  23  30
ENDBRANCH   1  19
TORSDOF 15
ENDMDL
MODEL 5
REMARK VINA RESULT: -7.336405244      3.202      5.818
REMARK  15 active torsions:
REMARK  status: ('A' for Active; 'I' for Inactive)
REMARK    1  A    between atoms: C2_2  and  C3_3 
REMARK    2  A    between atoms: C3_3  and  C4_4 
REMARK    3  A    between atoms: C4_4  and  C5_5 
REMARK    4  A    between atoms: C5_5  and  C6_6 
REMARK    5  A    between atoms: C6_6  and  C7_7 
REMARK    6  A    between atoms: C7_7  and  C8_8 
REMARK    7  A    between atoms: N3_14  and  C11_15 
REMARK    8  A    between atoms: C11_15  and  C12_16 
REMARK    9  A    between atoms: C12_16  and  C13_17 
REMARK   10  A    between atoms: C13_17  and  C14_18 
REMARK   11  A    between atoms: C14_18  and  N4_19 
REMARK   12  A    between atoms: C16_21  and  N5_22 
REMARK   13  A    between atoms: C17_27  and  N7_28 
REMARK   14  A    between atoms: N7_28  and  C18_30 
REMARK   15  A    between atoms: C18_30  and  C19_31 
ROOT
HETATM    1  C14 UNL     1      43.210  31.413  43.782  1.00  0.00     0.176 C 
ENDROOT
BRANCH   1   2
HETATM    2  C13 UNL     1      44.091  32.315  43.034  1.00  0.00    -0.004 C 
BRANCH   2   3
HETATM    3  C12 UNL     1      44.388  33.676  43.489  1.00  0.00     0.017 C 
BRANCH   3   4
HETATM    4  C11 UNL     1      43.601  34.705  43.366  1.00  0.00     0.118 C 
BRANCH   4   5
HETATM    5  N3  UNL     1      42.362  34.792  42.712  1.00  0.00    -0.253 N 
HETATM    6  C8  UNL     1      42.029  35.002  41.454  1.00  0.00     0.104 A 
HETATM    7  N1  UNL     1      40.646  35.005  41.384  1.00  0.00    -0.339 N 
HETATM    8  C9  UNL     1      40.212  34.796  42.611  1.00  0.00     0.201 A 
ATOM      9  H1  UNL     1      40.077  35.142  40.549  1.00  0.00     0.168 HD
HETATM   10  N2  UNL     1      41.227  34.659  43.461  1.00  0.00    -0.285 N 
HETATM   11  C10 UNL     1      41.116  34.422  44.876  1.00  0.00     0.179 C 
BRANCH   6  12
HETATM   12  C7  UNL     1      42.869  35.189  40.247  1.00  0.00     0.078 C 
BRANCH  12  13
HETATM   13  C6  UNL     1      42.692  33.964  39.368  1.00  0.00     0.007 C 
BRANCH  13  14
HETATM   14  C5  UNL     1      43.895  33.711  38.488  1.00  0.00     0.000 C 
BRANCH  14  15
HETATM   15  C4  UNL     1      44.868  32.763  39.180  1.00  0.00     0.000 C 
BRANCH  15  16
HETATM   16  C3  UNL     1      46.302  33.203  38.852  1.00  0.00    -0.000 C 
BRANCH  16  17
HETATM   17  C2  UNL     1      46.484  34.634  39.338  1.00  0.00    -0.005 C 
HETATM   18  C1  UNL     1      46.775  34.631  40.817  1.00  0.00     0.005 C 
ENDBRANCH  16  17
ENDBRANCH  15  16
ENDBRANCH  14  15
ENDBRANCH  13  14
ENDBRANCH  12  13
ENDBRANCH   6  12
ENDBRANCH   4   5
ENDBRANCH   3   4
ENDBRANCH   2   3
ENDBRANCH   1   2
BRANCH   1  19
HETATM   19  N4  UNL     1      43.263  30.008  43.466  1.00  0.00    -0.282 N 
HETATM   20  C15 UNL     1      42.959  29.452  42.306  1.00  0.00     0.159 A 
HETATM   21  C16 UNL     1      43.076  28.071  42.108  1.00  0.00     0.132 A 
HETATM   22  N6  UNL     1      43.499  27.253  43.081  1.00  0.00    -0.175 N 
HETATM   23  C17 UNL     1      43.802  27.841  44.255  1.00  0.00     0.694 A 
ATOM     24  H6  UNL     1      43.587  26.247  42.941  1.00  0.00     0.186 HD
HETATM   25  N9  UNL     1      43.686  29.147  44.427  1.00  0.00    -0.130 N 
ATOM     26  H9  UNL     1      43.931  29.533  45.339  1.00  0.00     0.206 HD
BRANCH  21  27
HETATM   27  N5  UNL     1      42.765  27.612  40.964  1.00  0.00    -0.384 N 
ATOM     28  H52 UNL     1      41.832  27.238  40.788  1.00  0.00     0.157 HD
ATOM     29  H51 UNL     1      43.479  27.633  40.237  1.00  0.00     0.157 HD
ENDBRANCH  21  27
BRANCH  23  30
HETATM   30  N7  UNL     1      44.213  27.045  45.205  1.00  0.00    -0.216 N 
ATOM     31  H7  UNL     1      44.591  26.136  44.939  1.00  0.00     0.178 HD
BRANCH  30  32
HETATM   32  C18 UNL     1      44.166  27.372  46.598  1.00  0.00     0.237 C 
BRANCH  32  33
HETATM   33  C19 UNL     1      44.424  26.183  47.453  1.00  0.00     0.249 C 
HETATM   34  N8  UNL     1      44.241  26.189  48.850  1.00  0.00    -0.061 NA
HETATM   35  O1  UNL     1      44.820  25.134  46.899  1.00  0.00    -0.275 OA
ENDBRANCH  32  33
ENDBRANCH  30  32
ENDBRANCH  23  30
ENDBRANCH   1  19
TORSDOF 15
ENDMDL
