MODEL 1
REMARK VINA RESULT: -6.087264842      0.000      0.000
REMARK  5 active torsions:
REMARK  status: ('A' for Active; 'I' for Inactive)
REMARK    1  A    between atoms: C2_3  and  C4_11 
REMARK    2  A    between atoms: N2_4  and  N3_6 
REMARK    3  A    between atoms: C6_13  and  C7_14 
REMARK    4  A    between atoms: C7_14  and  N6_15 
REMARK    5  A    between atoms: C8_19  and  N7_20 
ROOT
HETATM    1  N1  UNL     1      -3.591  -6.878   0.127  1.00  0.00    -0.190 NA
HETATM    2  C1  UNL     1      -2.942  -7.232   1.008  1.00  0.00     0.121 C 
HETATM    3  C2  UNL     1      -2.139  -7.689   2.129  1.00  0.00     0.156 C 
HETATM    4  N2  UNL     1      -2.484  -8.800   2.702  1.00  0.00    -0.287 N 
ATOM      5  H2  UNL     1      -1.923  -9.119   3.492  1.00  0.00     0.188 HD
ENDROOT
BRANCH   3   6
HETATM    6  C4  UNL     1      -1.014  -6.904   2.558  1.00  0.00     0.087 A 
HETATM    7  C5  UNL     1       0.299  -7.200   2.251  1.00  0.00     0.046 A 
HETATM    8  C6  UNL     1       1.311  -6.408   2.630  1.00  0.00     0.014 A 
HETATM    9  C8  UNL     1       1.022  -5.259   3.349  1.00  0.00     0.121 A 
HETATM   10  N8  UNL     1      -0.264  -4.963   3.651  1.00  0.00    -0.285 N 
HETATM   11  N9  UNL     1      -1.246  -5.750   3.273  1.00  0.00    -0.296 N 
ATOM     12  H8  UNL     1      -0.474  -4.116   4.179  1.00  0.00     0.188 HD
ATOM     13  H9  UNL     1      -2.206  -5.500   3.516  1.00  0.00     0.187 HD
BRANCH   8  14
HETATM   14  C7  UNL     1       2.740  -6.625   2.278  1.00  0.00     0.272 C 
BRANCH  14  15
HETATM   15  N6  UNL     1       3.191  -7.980   2.600  1.00  0.00    -0.075 N 
ATOM     16  H63 UNL     1       4.209  -8.037   2.612  1.00  0.00     0.274 HD
ATOM     17  H62 UNL     1       3.004  -8.209   3.577  1.00  0.00     0.274 HD
ATOM     18  H61 UNL     1       2.790  -8.680   1.976  1.00  0.00     0.274 HD
ENDBRANCH  14  15
ENDBRANCH   8  14
BRANCH   9  19
HETATM   19  N7  UNL     1       2.003  -4.512   3.721  1.00  0.00    -0.384 N 
ATOM     20  H72 UNL     1       2.923  -4.566   3.283  1.00  0.00     0.157 HD
ATOM     21  H71 UNL     1       1.841  -3.842   4.472  1.00  0.00     0.157 HD
ENDBRANCH   9  19
ENDBRANCH   3   6
BRANCH   4  22
HETATM   22  N3  UNL     1      -3.506  -9.545   2.338  1.00  0.00    -0.275 N 
HETATM   23  C3  UNL     1      -3.939 -10.625   2.097  1.00  0.00     0.215 C 
HETATM   24  N4  UNL     1      -3.184 -11.837   2.180  1.00  0.00    -0.065 NA
HETATM   25  N5  UNL     1      -5.334 -10.812   1.663  1.00  0.00    -0.065 NA
ATOM     26  H3  UNL     1      -4.283  -8.899   2.197  1.00  0.00     0.189 HD
ENDBRANCH   4  22
TORSDOF 5
ENDMDL
MODEL 2
REMARK VINA RESULT: -6.059396268      1.552      1.801
REMARK  5 active torsions:
REMARK  status: ('A' for Active; 'I' for Inactive)
REMARK    1  A    between atoms: C2_3  and  C4_11 
REMARK    2  A    between atoms: N2_4  and  N3_6 
REMARK    3  A    between atoms: C6_13  and  C7_14 
REMARK    4  A    between atoms: C7_14  and  N6_15 
REMARK    5  A    between atoms: C8_19  and  N7_20 
ROOT
HETATM    1  N1  UNL     1      -2.684  -9.549  -0.327  1.00  0.00    -0.190 NA
HETATM    2  C1  UNL     1      -2.680  -9.083   0.724  1.00  0.00     0.121 C 
HETATM    3  C2  UNL     1      -2.694  -8.501   2.056  1.00  0.00     0.156 C 
HETATM    4  N2  UNL     1      -3.437  -9.070   2.952  1.00  0.00    -0.287 N 
ATOM      5  H2  UNL     1      -3.450  -8.660   3.886  1.00  0.00     0.188 HD
ENDROOT
BRANCH   3   6
HETATM    6  C4  UNL     1      -1.901  -7.332   2.324  1.00  0.00     0.087 A 
HETATM    7  C5  UNL     1      -0.534  -7.352   2.516  1.00  0.00     0.046 A 
HETATM    8  C6  UNL     1       0.170  -6.229   2.712  1.00  0.00     0.014 A 
HETATM    9  C8  UNL     1      -0.501  -5.016   2.716  1.00  0.00     0.121 A 
HETATM   10  N8  UNL     1      -1.841  -4.991   2.524  1.00  0.00    -0.285 N 
HETATM   11  N9  UNL     1      -2.519  -6.101   2.335  1.00  0.00    -0.296 N 
ATOM     12  H8  UNL     1      -2.333  -4.098   2.526  1.00  0.00     0.188 HD
ATOM     13  H9  UNL     1      -3.528  -6.050   2.194  1.00  0.00     0.187 HD
BRANCH   8  14
HETATM   14  C7  UNL     1       1.649  -6.165   2.858  1.00  0.00     0.272 C 
BRANCH  14  15
HETATM   15  N6  UNL     1       2.338  -6.244   1.569  1.00  0.00    -0.075 N 
ATOM     16  H63 UNL     1       2.053  -7.075   1.049  1.00  0.00     0.274 HD
ATOM     17  H62 UNL     1       2.000  -5.527   0.926  1.00  0.00     0.274 HD
ATOM     18  H61 UNL     1       3.352  -6.202   1.669  1.00  0.00     0.274 HD
ENDBRANCH  14  15
ENDBRANCH   8  14
BRANCH   9  19
HETATM   19  N7  UNL     1       0.182  -3.944   2.919  1.00  0.00    -0.384 N 
ATOM     20  H72 UNL     1       1.114  -3.964   3.334  1.00  0.00     0.157 HD
ATOM     21  H71 UNL     1      -0.228  -3.052   2.642  1.00  0.00     0.157 HD
ENDBRANCH   9  19
ENDBRANCH   3   6
BRANCH   4  22
HETATM   22  N3  UNL     1      -4.175 -10.141   2.744  1.00  0.00    -0.275 N 
HETATM   23  C3  UNL     1      -5.059 -10.848   3.104  1.00  0.00     0.215 C 
HETATM   24  N4  UNL     1      -5.837 -10.636   4.286  1.00  0.00    -0.065 NA
HETATM   25  N5  UNL     1      -5.431 -12.055   2.346  1.00  0.00    -0.065 NA
ATOM     26  H3  UNL     1      -3.830 -10.550   1.876  1.00  0.00     0.189 HD
ENDBRANCH   4  22
TORSDOF 5
ENDMDL
MODEL 3
REMARK VINA RESULT: -5.989526919      2.182      6.495
REMARK  5 active torsions:
REMARK  status: ('A' for Active; 'I' for Inactive)
REMARK    1  A    between atoms: C2_3  and  C4_11 
REMARK    2  A    between atoms: N2_4  and  N3_6 
REMARK    3  A    between atoms: C6_13  and  C7_14 
REMARK    4  A    between atoms: C7_14  and  N6_15 
REMARK    5  A    between atoms: C8_19  and  N7_20 
ROOT
HETATM    1  N1  UNL     1      -1.496  -6.389  -0.680  1.00  0.00    -0.190 NA
HETATM    2  C1  UNL     1      -1.883  -6.830   0.308  1.00  0.00     0.121 C 
HETATM    3  C2  UNL     1      -2.358  -7.377   1.568  1.00  0.00     0.156 C 
HETATM    4  N2  UNL     1      -2.106  -6.705   2.648  1.00  0.00    -0.287 N 
ATOM      5  H2  UNL     1      -2.436  -7.091   3.533  1.00  0.00     0.188 HD
ENDROOT
BRANCH   3   6
HETATM    6  C4  UNL     1      -3.072  -8.624   1.571  1.00  0.00     0.087 A 
HETATM    7  C5  UNL     1      -3.496  -9.271   2.715  1.00  0.00     0.046 A 
HETATM    8  C6  UNL     1      -4.205 -10.407   2.665  1.00  0.00     0.014 A 
HETATM    9  C8  UNL     1      -4.519 -10.940   1.425  1.00  0.00     0.121 A 
HETATM   10  N8  UNL     1      -4.109 -10.308   0.300  1.00  0.00    -0.285 N 
HETATM   11  N9  UNL     1      -3.413  -9.195   0.364  1.00  0.00    -0.296 N 
ATOM     12  H8  UNL     1      -4.343 -10.702  -0.611  1.00  0.00     0.188 HD
ATOM     13  H9  UNL     1      -3.118  -8.743  -0.501  1.00  0.00     0.187 HD
BRANCH   8  14
HETATM   14  C7  UNL     1      -4.752 -11.121   3.849  1.00  0.00     0.272 C 
BRANCH  14  15
HETATM   15  N6  UNL     1      -5.755 -10.327   4.562  1.00  0.00    -0.075 N 
ATOM     16  H63 UNL     1      -5.713  -9.346   4.285  1.00  0.00     0.274 HD
ATOM     17  H62 UNL     1      -6.697 -10.547   4.238  1.00  0.00     0.274 HD
ATOM     18  H61 UNL     1      -5.679 -10.427   5.574  1.00  0.00     0.274 HD
ENDBRANCH  14  15
ENDBRANCH   8  14
BRANCH   9  19
HETATM   19  N7  UNL     1      -5.189 -12.040   1.388  1.00  0.00    -0.384 N 
ATOM     20  H72 UNL     1      -6.069 -12.157   1.892  1.00  0.00     0.157 HD
ATOM     21  H71 UNL     1      -4.823 -12.808   0.826  1.00  0.00     0.157 HD
ENDBRANCH   9  19
ENDBRANCH   3   6
BRANCH   4  22
HETATM   22  N3  UNL     1      -1.456  -5.561   2.684  1.00  0.00    -0.275 N 
HETATM   23  C3  UNL     1      -0.626  -4.883   3.195  1.00  0.00     0.215 C 
HETATM   24  N4  UNL     1       0.181  -5.287   4.305  1.00  0.00    -0.065 NA
HETATM   25  N5  UNL     1      -0.358  -3.513   2.723  1.00  0.00    -0.065 NA
ATOM     26  H3  UNL     1      -1.842  -4.999   1.925  1.00  0.00     0.189 HD
ENDBRANCH   4  22
TORSDOF 5
ENDMDL
MODEL 4
REMARK VINA RESULT: -5.944314523      2.377      3.873
REMARK  5 active torsions:
REMARK  status: ('A' for Active; 'I' for Inactive)
REMARK    1  A    between atoms: C2_3  and  C4_11 
REMARK    2  A    between atoms: N2_4  and  N3_6 
REMARK    3  A    between atoms: C6_13  and  C7_14 
REMARK    4  A    between atoms: C7_14  and  N6_15 
REMARK    5  A    between atoms: C8_19  and  N7_20 
ROOT
HETATM    1  N1  UNL     1      -0.086  -4.212   1.917  1.00  0.00    -0.190 NA
HETATM    2  C1  UNL     1       0.289  -5.298   1.882  1.00  0.00     0.121 C 
HETATM    3  C2  UNL     1       0.744  -6.678   1.841  1.00  0.00     0.156 C 
HETATM    4  N2  UNL     1      -0.093  -7.574   1.419  1.00  0.00    -0.287 N 
ATOM      5  H2  UNL     1       0.224  -8.543   1.394  1.00  0.00     0.188 HD
ENDROOT
BRANCH   3   6
HETATM    6  C4  UNL     1       2.079  -6.994   2.269  1.00  0.00     0.087 A 
HETATM    7  C5  UNL     1       2.539  -8.277   2.486  1.00  0.00     0.046 A 
HETATM    8  C6  UNL     1       3.809  -8.525   2.834  1.00  0.00     0.014 A 
HETATM    9  C8  UNL     1       4.680  -7.457   2.976  1.00  0.00     0.121 A 
HETATM   10  N8  UNL     1       4.234  -6.196   2.761  1.00  0.00    -0.285 N 
HETATM   11  N9  UNL     1       2.986  -5.968   2.422  1.00  0.00    -0.296 N 
ATOM     12  H8  UNL     1       4.878  -5.412   2.865  1.00  0.00     0.188 HD
ATOM     13  H9  UNL     1       2.680  -5.007   2.267  1.00  0.00     0.187 HD
BRANCH   8  14
HETATM   14  C7  UNL     1       4.392  -9.881   3.017  1.00  0.00     0.272 C 
BRANCH  14  15
HETATM   15  N6  UNL     1       4.516 -10.607   1.752  1.00  0.00    -0.075 N 
ATOM     16  H63 UNL     1       4.303 -10.003   0.958  1.00  0.00     0.274 HD
ATOM     17  H62 UNL     1       5.493 -10.815   1.540  1.00  0.00     0.274 HD
ATOM     18  H61 UNL     1       3.948 -11.454   1.734  1.00  0.00     0.274 HD
ENDBRANCH  14  15
ENDBRANCH   8  14
BRANCH   9  19
HETATM   19  N7  UNL     1       5.894  -7.705   3.324  1.00  0.00    -0.384 N 
ATOM     20  H72 UNL     1       6.554  -6.962   3.559  1.00  0.00     0.157 HD
ATOM     21  H71 UNL     1       6.193  -8.679   3.373  1.00  0.00     0.157 HD
ENDBRANCH   9  19
ENDBRANCH   3   6
BRANCH   4  22
HETATM   22  N3  UNL     1      -1.322  -7.322   1.019  1.00  0.00    -0.275 N 
HETATM   23  C3  UNL     1      -2.260  -7.641   0.365  1.00  0.00     0.215 C 
HETATM   24  N4  UNL     1      -2.318  -8.815  -0.452  1.00  0.00    -0.065 NA
HETATM   25  N5  UNL     1      -3.481  -6.818   0.324  1.00  0.00    -0.065 NA
ATOM     26  H3  UNL     1      -1.593  -6.457   1.487  1.00  0.00     0.189 HD
ENDBRANCH   4  22
TORSDOF 5
ENDMDL
MODEL 5
REMARK VINA RESULT: -5.893286661      2.051      2.618
REMARK  5 active torsions:
REMARK  status: ('A' for Active; 'I' for Inactive)
REMARK    1  A    between atoms: C2_3  and  C4_11 
REMARK    2  A    between atoms: N2_4  and  N3_6 
REMARK    3  A    between atoms: C6_13  and  C7_14 
REMARK    4  A    between atoms: C7_14  and  N6_15 
REMARK    5  A    between atoms: C8_19  and  N7_20 
ROOT
HETATM    1  N1  UNL     1      -3.312  -9.835   0.007  1.00  0.00    -0.190 NA
HETATM    2  C1  UNL     1      -3.019  -9.080   0.823  1.00  0.00     0.121 C 
HETATM    3  C2  UNL     1      -2.666  -8.129   1.864  1.00  0.00     0.156 C 
HETATM    4  N2  UNL     1      -3.179  -8.309   3.040  1.00  0.00    -0.287 N 
ATOM      5  H2  UNL     1      -2.935  -7.639   3.770  1.00  0.00     0.188 HD
ENDROOT
BRANCH   3   6
HETATM    6  C4  UNL     1      -1.781  -7.040   1.554  1.00  0.00     0.087 A 
HETATM    7  C5  UNL     1      -1.002  -6.386   2.488  1.00  0.00     0.046 A 
HETATM    8  C6  UNL     1      -0.153  -5.409   2.142  1.00  0.00     0.014 A 
HETATM    9  C8  UNL     1      -0.057  -5.053   0.806  1.00  0.00     0.121 A 
HETATM   10  N8  UNL     1      -0.815  -5.694  -0.114  1.00  0.00    -0.285 N 
HETATM   11  N9  UNL     1      -1.646  -6.649   0.240  1.00  0.00    -0.296 N 
ATOM     12  H8  UNL     1      -0.742  -5.432  -1.097  1.00  0.00     0.188 HD
ATOM     13  H9  UNL     1      -2.205  -7.113  -0.477  1.00  0.00     0.187 HD
BRANCH   8  14
HETATM   14  C7  UNL     1       0.765  -4.708   3.079  1.00  0.00     0.272 C 
BRANCH  14  15
HETATM   15  N6  UNL     1       2.042  -5.407   3.232  1.00  0.00    -0.075 N 
ATOM     16  H63 UNL     1       2.033  -6.303   2.745  1.00  0.00     0.274 HD
ATOM     17  H62 UNL     1       2.782  -4.943   2.704  1.00  0.00     0.274 HD
ATOM     18  H61 UNL     1       2.305  -5.522   4.211  1.00  0.00     0.274 HD
ENDBRANCH  14  15
ENDBRANCH   8  14
BRANCH   9  19
HETATM   19  N7  UNL     1       0.753  -4.104   0.486  1.00  0.00    -0.384 N 
ATOM     20  H72 UNL     1       0.483  -3.121   0.535  1.00  0.00     0.157 HD
ATOM     21  H71 UNL     1       1.694  -4.355   0.185  1.00  0.00     0.157 HD
ENDBRANCH   9  19
ENDBRANCH   3   6
BRANCH   4  22
HETATM   22  N3  UNL     1      -3.992  -9.294   3.361  1.00  0.00    -0.275 N 
HETATM   23  C3  UNL     1      -4.818  -9.728   4.096  1.00  0.00     0.215 C 
HETATM   24  N4  UNL     1      -5.334  -9.034   5.236  1.00  0.00    -0.065 NA
HETATM   25  N5  UNL     1      -5.389 -11.072   3.899  1.00  0.00    -0.065 NA
ATOM     26  H3  UNL     1      -3.847 -10.014   2.653  1.00  0.00     0.189 HD
ENDBRANCH   4  22
TORSDOF 5
ENDMDL
