MODEL 1
REMARK VINA RESULT: -5.446529663      0.000      0.000
REMARK  7 active torsions:
REMARK  status: ('A' for Active; 'I' for Inactive)
REMARK    1  A    between atoms: C2_2  and  N1_3 
REMARK    2  A    between atoms: C2_2  and  C8_20 
REMARK    3  A    between atoms: N1_3  and  C3_5 
REMARK    4  A    between atoms: C4_8  and  N3_9 
REMARK    5  A    between atoms: C7_14  and  N5_15 
REMARK    6  A    between atoms: C8_20  and  N7_21 
REMARK    7  A    between atoms: C8_20  and  N8_25 
ROOT
HETATM    1  C3  UNL     1      -2.314  -7.173   1.912  1.00  0.00     0.707 A 
HETATM    2  N2  UNL     1      -2.158  -7.728   3.127  1.00  0.00    -0.021 N 
ATOM      3  H2  UNL     1      -1.806  -7.148   3.889  1.00  0.00     0.203 HD
HETATM    4  C4  UNL     1      -2.450  -9.016   3.378  1.00  0.00     0.708 A 
HETATM    5  N4  UNL     1      -2.914  -9.727   2.328  1.00  0.00    -0.022 N 
ATOM      6  H4  UNL     1      -3.148 -10.710   2.471  1.00  0.00     0.203 HD
HETATM    7  C7  UNL     1      -3.078  -9.202   1.110  1.00  0.00     0.705 A 
HETATM    8  N6  UNL     1      -2.778  -7.912   0.892  1.00  0.00    -0.022 N 
ATOM      9  H6  UNL     1      -2.899  -7.501  -0.034  1.00  0.00     0.203 HD
ENDROOT
BRANCH   1  10
HETATM   10  N1  UNL     1      -2.026  -5.928   1.692  1.00  0.00    -0.217 N 
ATOM     11  H1  UNL     1      -2.616  -5.429   1.026  1.00  0.00     0.178 HD
BRANCH  10  12
HETATM   12  C2  UNL     1      -0.968  -5.193   2.291  1.00  0.00     0.153 C 
HETATM   13  C1  UNL     1      -1.379  -3.874   2.886  1.00  0.00     0.037 C 
BRANCH  12  14
HETATM   14  C8  UNL     1       0.137  -4.903   1.291  1.00  0.00     0.400 C 
BRANCH  14  15
HETATM   15  N7  UNL     1       1.220  -5.841   1.426  1.00  0.00    -0.048 N 
ATOM     16  H73 UNL     1       2.027  -5.566   0.865  1.00  0.00     0.276 HD
ATOM     17  H72 UNL     1       1.648  -5.789   2.350  1.00  0.00     0.276 HD
ATOM     18  H71 UNL     1       0.917  -6.790   1.205  1.00  0.00     0.276 HD
ENDBRANCH  14  15
BRANCH  14  19
HETATM   19  N8  UNL     1      -0.337  -4.937  -0.074  1.00  0.00    -0.048 N 
ATOM     20  H83 UNL     1      -0.745  -5.845  -0.300  1.00  0.00     0.276 HD
ATOM     21  H82 UNL     1      -1.165  -4.353  -0.191  1.00  0.00     0.276 HD
ATOM     22  H81 UNL     1       0.390  -4.684  -0.743  1.00  0.00     0.276 HD
ENDBRANCH  14  19
ENDBRANCH  12  14
ENDBRANCH  10  12
ENDBRANCH   1  10
BRANCH   4  23
HETATM   23  N3  UNL     1      -2.291  -9.614   4.652  1.00  0.00    -0.225 N 
HETATM   24  C5  UNL     1      -2.991 -10.796   5.059  1.00  0.00     0.168 C 
HETATM   25  C6  UNL     1      -1.377  -9.008   5.603  1.00  0.00     0.168 C 
ENDBRANCH   4  23
BRANCH   7  26
HETATM   26  N5  UNL     1      -3.527  -9.930   0.135  1.00  0.00    -0.234 N 
ATOM     27  H52 UNL     1      -4.479 -10.297   0.176  1.00  0.00     0.174 HD
ATOM     28  H51 UNL     1      -2.936 -10.138  -0.670  1.00  0.00     0.174 HD
ENDBRANCH   7  26
TORSDOF 7
ENDMDL
MODEL 2
REMARK VINA RESULT: -5.181967863      2.068      2.787
REMARK  7 active torsions:
REMARK  status: ('A' for Active; 'I' for Inactive)
REMARK    1  A    between atoms: C2_2  and  N1_3 
REMARK    2  A    between atoms: C2_2  and  C8_20 
REMARK    3  A    between atoms: N1_3  and  C3_5 
REMARK    4  A    between atoms: C4_8  and  N3_9 
REMARK    5  A    between atoms: C7_14  and  N5_15 
REMARK    6  A    between atoms: C8_20  and  N7_21 
REMARK    7  A    between atoms: C8_20  and  N8_25 
ROOT
HETATM    1  C3  UNL     1      -0.662  -7.613   2.196  1.00  0.00     0.707 A 
HETATM    2  N2  UNL     1      -1.634  -8.377   2.725  1.00  0.00    -0.021 N 
ATOM      3  H2  UNL     1      -1.587  -8.613   3.716  1.00  0.00     0.203 HD
HETATM    4  C4  UNL     1      -2.666  -8.842   1.999  1.00  0.00     0.708 A 
HETATM    5  N4  UNL     1      -2.669  -8.493   0.695  1.00  0.00    -0.022 N 
ATOM      6  H4  UNL     1      -3.433  -8.823   0.103  1.00  0.00     0.203 HD
HETATM    7  C7  UNL     1      -1.716  -7.734   0.143  1.00  0.00     0.705 A 
HETATM    8  N6  UNL     1      -0.699  -7.286   0.895  1.00  0.00    -0.022 N 
ATOM      9  H6  UNL     1       0.033  -6.706   0.484  1.00  0.00     0.203 HD
ENDROOT
BRANCH   1  10
HETATM   10  N1  UNL     1       0.324  -7.175   2.915  1.00  0.00    -0.217 N 
ATOM     11  H1  UNL     1       0.424  -7.571   3.850  1.00  0.00     0.178 HD
BRANCH  10  12
HETATM   12  C2  UNL     1       1.278  -6.197   2.525  1.00  0.00     0.153 C 
HETATM   13  C1  UNL     1       2.705  -6.673   2.538  1.00  0.00     0.037 C 
BRANCH  12  14
HETATM   14  C8  UNL     1       1.211  -4.974   3.423  1.00  0.00     0.400 C 
BRANCH  14  15
HETATM   15  N7  UNL     1       2.528  -4.533   3.801  1.00  0.00    -0.048 N 
ATOM     16  H73 UNL     1       2.935  -5.137   4.515  1.00  0.00     0.276 HD
ATOM     17  H72 UNL     1       3.206  -4.694   3.055  1.00  0.00     0.276 HD
ATOM     18  H71 UNL     1       2.519  -3.557   4.096  1.00  0.00     0.276 HD
ENDBRANCH  14  15
BRANCH  14  19
HETATM   19  N8  UNL     1       0.516  -3.872   2.797  1.00  0.00    -0.048 N 
ATOM     20  H83 UNL     1       1.153  -3.102   2.597  1.00  0.00     0.276 HD
ATOM     21  H82 UNL     1       0.238  -4.106   1.844  1.00  0.00     0.276 HD
ATOM     22  H81 UNL     1      -0.283  -3.556   3.347  1.00  0.00     0.276 HD
ENDBRANCH  14  19
ENDBRANCH  12  14
ENDBRANCH  10  12
ENDBRANCH   1  10
BRANCH   4  23
HETATM   23  N3  UNL     1      -3.696  -9.648   2.542  1.00  0.00    -0.225 N 
HETATM   24  C5  UNL     1      -4.362 -10.677   1.801  1.00  0.00     0.168 C 
HETATM   25  C6  UNL     1      -4.107  -9.430   3.916  1.00  0.00     0.168 C 
ENDBRANCH   4  23
BRANCH   7  26
HETATM   26  N5  UNL     1      -1.768  -7.428  -1.117  1.00  0.00    -0.234 N 
ATOM     27  H52 UNL     1      -2.418  -6.708  -1.435  1.00  0.00     0.174 HD
ATOM     28  H51 UNL     1      -1.163  -7.900  -1.789  1.00  0.00     0.174 HD
ENDBRANCH   7  26
TORSDOF 7
ENDMDL
MODEL 3
REMARK VINA RESULT: -5.172485284      1.545      2.028
REMARK  7 active torsions:
REMARK  status: ('A' for Active; 'I' for Inactive)
REMARK    1  A    between atoms: C2_2  and  N1_3 
REMARK    2  A    between atoms: C2_2  and  C8_20 
REMARK    3  A    between atoms: N1_3  and  C3_5 
REMARK    4  A    between atoms: C4_8  and  N3_9 
REMARK    5  A    between atoms: C7_14  and  N5_15 
REMARK    6  A    between atoms: C8_20  and  N7_21 
REMARK    7  A    between atoms: C8_20  and  N8_25 
ROOT
HETATM    1  C3  UNL     1      -1.498  -7.904   2.708  1.00  0.00     0.707 A 
HETATM    2  N2  UNL     1      -2.253  -8.326   3.738  1.00  0.00    -0.021 N 
ATOM      3  H2  UNL     1      -2.034  -7.991   4.676  1.00  0.00     0.203 HD
HETATM    4  C4  UNL     1      -3.286  -9.172   3.579  1.00  0.00     0.708 A 
HETATM    5  N4  UNL     1      -3.524  -9.576   2.313  1.00  0.00    -0.022 N 
ATOM      6  H4  UNL     1      -4.298 -10.219   2.144  1.00  0.00     0.203 HD
HETATM    7  C7  UNL     1      -2.789  -9.173   1.271  1.00  0.00     0.705 A 
HETATM    8  N6  UNL     1      -1.764  -8.328   1.463  1.00  0.00    -0.022 N 
ATOM      9  H6  UNL     1      -1.197  -8.014   0.675  1.00  0.00     0.203 HD
ENDROOT
BRANCH   1  10
HETATM   10  N1  UNL     1      -0.506  -7.088   2.884  1.00  0.00    -0.217 N 
ATOM     11  H1  UNL     1      -0.343  -6.758   3.836  1.00  0.00     0.178 HD
BRANCH  10  12
HETATM   12  C2  UNL     1       0.377  -6.610   1.879  1.00  0.00     0.153 C 
HETATM   13  C1  UNL     1       1.836  -6.847   2.161  1.00  0.00     0.037 C 
BRANCH  12  14
HETATM   14  C8  UNL     1       0.204  -5.118   1.658  1.00  0.00     0.400 C 
BRANCH  14  15
HETATM   15  N7  UNL     1       0.800  -4.362   2.728  1.00  0.00    -0.048 N 
ATOM     16  H73 UNL     1       1.762  -4.654   2.904  1.00  0.00     0.276 HD
ATOM     17  H72 UNL     1       0.979  -3.396   2.451  1.00  0.00     0.276 HD
ATOM     18  H71 UNL     1       0.233  -4.410   3.575  1.00  0.00     0.276 HD
ENDBRANCH  14  15
BRANCH  14  19
HETATM   19  N8  UNL     1       0.777  -4.679   0.406  1.00  0.00    -0.048 N 
ATOM     20  H83 UNL     1       1.705  -5.077   0.266  1.00  0.00     0.276 HD
ATOM     21  H82 UNL     1       0.296  -5.102  -0.387  1.00  0.00     0.276 HD
ATOM     22  H81 UNL     1       0.796  -3.662   0.325  1.00  0.00     0.276 HD
ENDBRANCH  14  19
ENDBRANCH  12  14
ENDBRANCH  10  12
ENDBRANCH   1  10
BRANCH   4  23
HETATM   23  N3  UNL     1      -4.090  -9.626   4.654  1.00  0.00    -0.225 N 
HETATM   24  C5  UNL     1      -3.753  -9.417   6.030  1.00  0.00     0.168 C 
HETATM   25  C6  UNL     1      -5.318 -10.339   4.359  1.00  0.00     0.168 C 
ENDBRANCH   4  23
BRANCH   7  26
HETATM   26  N5  UNL     1      -3.061  -9.592   0.074  1.00  0.00    -0.234 N 
ATOM     27  H52 UNL     1      -3.566  -8.984  -0.572  1.00  0.00     0.174 HD
ATOM     28  H51 UNL     1      -2.773 -10.524  -0.224  1.00  0.00     0.174 HD
ENDBRANCH   7  26
TORSDOF 7
ENDMDL
MODEL 4
REMARK VINA RESULT: -5.155817138      1.675      1.703
REMARK  7 active torsions:
REMARK  status: ('A' for Active; 'I' for Inactive)
REMARK    1  A    between atoms: C2_2  and  N1_3 
REMARK    2  A    between atoms: C2_2  and  C8_20 
REMARK    3  A    between atoms: N1_3  and  C3_5 
REMARK    4  A    between atoms: C4_8  and  N3_9 
REMARK    5  A    between atoms: C7_14  and  N5_15 
REMARK    6  A    between atoms: C8_20  and  N7_21 
REMARK    7  A    between atoms: C8_20  and  N8_25 
ROOT
HETATM    1  C3  UNL     1      -1.560  -7.580   1.267  1.00  0.00     0.707 A 
HETATM    2  N2  UNL     1      -0.788  -8.396   2.008  1.00  0.00    -0.021 N 
ATOM      3  H2  UNL     1       0.001  -7.995   2.516  1.00  0.00     0.203 HD
HETATM    4  C4  UNL     1      -1.016  -9.717   2.106  1.00  0.00     0.708 A 
HETATM    5  N4  UNL     1      -2.076 -10.182   1.410  1.00  0.00    -0.022 N 
ATOM      6  H4  UNL     1      -2.288 -11.180   1.454  1.00  0.00     0.203 HD
HETATM    7  C7  UNL     1      -2.859  -9.395   0.666  1.00  0.00     0.705 A 
HETATM    8  N6  UNL     1      -2.605  -8.080   0.589  1.00  0.00    -0.022 N 
ATOM      9  H6  UNL     1      -3.196  -7.470   0.024  1.00  0.00     0.203 HD
ENDROOT
BRANCH   1  10
HETATM   10  N1  UNL     1      -1.321  -6.309   1.186  1.00  0.00    -0.217 N 
ATOM     11  H1  UNL     1      -1.669  -5.826   0.357  1.00  0.00     0.178 HD
BRANCH  10  12
HETATM   12  C2  UNL     1      -0.622  -5.523   2.142  1.00  0.00     0.153 C 
HETATM   13  C1  UNL     1      -1.372  -4.312   2.627  1.00  0.00     0.037 C 
BRANCH  12  14
HETATM   14  C8  UNL     1       0.703  -5.032   1.587  1.00  0.00     0.400 C 
BRANCH  14  15
HETATM   15  N7  UNL     1       1.707  -6.061   1.649  1.00  0.00    -0.048 N 
ATOM     16  H73 UNL     1       1.864  -6.488   0.736  1.00  0.00     0.276 HD
ATOM     17  H72 UNL     1       2.637  -5.670   1.800  1.00  0.00     0.276 HD
ATOM     18  H71 UNL     1       1.475  -6.760   2.355  1.00  0.00     0.276 HD
ENDBRANCH  14  15
BRANCH  14  19
HETATM   19  N8  UNL     1       0.591  -4.577   0.220  1.00  0.00    -0.048 N 
ATOM     20  H83 UNL     1       1.403  -4.022  -0.051  1.00  0.00     0.276 HD
ATOM     21  H82 UNL     1       0.696  -5.351  -0.435  1.00  0.00     0.276 HD
ATOM     22  H81 UNL     1      -0.277  -4.067   0.051  1.00  0.00     0.276 HD
ENDBRANCH  14  19
ENDBRANCH  12  14
ENDBRANCH  10  12
ENDBRANCH   1  10
BRANCH   4  23
HETATM   23  N3  UNL     1      -0.212 -10.588   2.882  1.00  0.00    -0.225 N 
HETATM   24  C5  UNL     1       0.060 -11.945   2.512  1.00  0.00     0.168 C 
HETATM   25  C6  UNL     1       0.370 -10.093   4.115  1.00  0.00     0.168 C 
ENDBRANCH   4  23
BRANCH   7  26
HETATM   26  N5  UNL     1      -3.866  -9.894   0.018  1.00  0.00    -0.234 N 
ATOM     27  H52 UNL     1      -3.727 -10.710  -0.580  1.00  0.00     0.174 HD
ATOM     28  H51 UNL     1      -4.793  -9.477   0.102  1.00  0.00     0.174 HD
ENDBRANCH   7  26
TORSDOF 7
ENDMDL
MODEL 5
REMARK VINA RESULT: -5.146229672      1.608      1.950
REMARK  7 active torsions:
REMARK  status: ('A' for Active; 'I' for Inactive)
REMARK    1  A    between atoms: C2_2  and  N1_3 
REMARK    2  A    between atoms: C2_2  and  C8_20 
REMARK    3  A    between atoms: N1_3  and  C3_5 
REMARK    4  A    between atoms: C4_8  and  N3_9 
REMARK    5  A    between atoms: C7_14  and  N5_15 
REMARK    6  A    between atoms: C8_20  and  N7_21 
REMARK    7  A    between atoms: C8_20  and  N8_25 
ROOT
HETATM    1  C3  UNL     1      -2.052  -7.764   2.259  1.00  0.00     0.707 A 
HETATM    2  N2  UNL     1      -1.241  -8.663   2.845  1.00  0.00    -0.021 N 
ATOM      3  H2  UNL     1      -0.607  -8.345   3.578  1.00  0.00     0.203 HD
HETATM    4  C4  UNL     1      -1.235  -9.963   2.503  1.00  0.00     0.708 A 
HETATM    5  N4  UNL     1      -2.099 -10.318   1.528  1.00  0.00    -0.022 N 
ATOM      6  H4  UNL     1      -2.129 -11.295   1.235  1.00  0.00     0.203 HD
HETATM    7  C7  UNL     1      -2.916  -9.446   0.929  1.00  0.00     0.705 A 
HETATM    8  N6  UNL     1      -2.899  -8.154   1.292  1.00  0.00    -0.022 N 
ATOM      9  H6  UNL     1      -3.518  -7.480   0.842  1.00  0.00     0.203 HD
ENDROOT
BRANCH   1  10
HETATM   10  N1  UNL     1      -2.042  -6.514   2.604  1.00  0.00    -0.217 N 
ATOM     11  H1  UNL     1      -2.923  -6.120   2.934  1.00  0.00     0.178 HD
BRANCH  10  12
HETATM   12  C2  UNL     1      -0.921  -5.642   2.566  1.00  0.00     0.153 C 
HETATM   13  C1  UNL     1      -1.263  -4.179   2.619  1.00  0.00     0.037 C 
BRANCH  12  14
HETATM   14  C8  UNL     1      -0.097  -5.859   1.309  1.00  0.00     0.400 C 
BRANCH  14  15
HETATM   15  N7  UNL     1      -0.518  -4.977   0.252  1.00  0.00    -0.048 N 
ATOM     16  H73 UNL     1       0.140  -4.986  -0.528  1.00  0.00     0.276 HD
ATOM     17  H72 UNL     1      -1.340  -5.338  -0.232  1.00  0.00     0.276 HD
ATOM     18  H71 UNL     1      -0.672  -4.031   0.601  1.00  0.00     0.276 HD
ENDBRANCH  14  15
BRANCH  14  19
HETATM   19  N8  UNL     1       1.317  -5.664   1.539  1.00  0.00    -0.048 N 
ATOM     20  H83 UNL     1       1.538  -4.675   1.649  1.00  0.00     0.276 HD
ATOM     21  H82 UNL     1       1.588  -5.996   2.465  1.00  0.00     0.276 HD
ATOM     22  H81 UNL     1       1.890  -6.092   0.812  1.00  0.00     0.276 HD
ENDBRANCH  14  19
ENDBRANCH  12  14
ENDBRANCH  10  12
ENDBRANCH   1  10
BRANCH   4  23
HETATM   23  N3  UNL     1      -0.386 -10.921   3.111  1.00  0.00    -0.225 N 
HETATM   24  C5  UNL     1       0.106 -10.798   4.451  1.00  0.00     0.168 C 
HETATM   25  C6  UNL     1       0.013 -12.089   2.348  1.00  0.00     0.168 C 
ENDBRANCH   4  23
BRANCH   7  26
HETATM   26  N5  UNL     1      -3.728  -9.840  -0.003  1.00  0.00    -0.234 N 
ATOM     27  H52 UNL     1      -3.856 -10.838  -0.173  1.00  0.00     0.174 HD
ATOM     28  H51 UNL     1      -4.239  -9.159  -0.565  1.00  0.00     0.174 HD
ENDBRANCH   7  26
TORSDOF 7
ENDMDL
