MODEL 1
REMARK VINA RESULT: -5.721371532      0.000      0.000
REMARK  7 active torsions:
REMARK  status: ('A' for Active; 'I' for Inactive)
REMARK    1  A    between atoms: C4_9  and  N4_10 
REMARK    2  A    between atoms: C5_15  and  N6_16 
REMARK    3  A    between atoms: N6_16  and  C6_18 
REMARK    4  A    between atoms: C6_18  and  C7_19 
REMARK    5  A    between atoms: C7_19  and  N7_20 
REMARK    6  A    between atoms: C7_19  and  C8_24 
REMARK    7  A    between atoms: C8_24  and  N8_25 
ROOT
HETATM    1  C1  UNL     1      -2.090  -9.179   4.376  1.00  0.00     0.157 C 
HETATM    2  N1  UNL     1      -2.570  -9.411   3.029  1.00  0.00    -0.341 N 
HETATM    3  C2  UNL     1      -3.483 -10.339   2.627  1.00  0.00     0.184 A 
HETATM    4  N2  UNL     1      -3.635 -10.208   1.308  1.00  0.00    -0.336 N 
ATOM      5  H2  UNL     1      -4.255 -10.766   0.721  1.00  0.00     0.168 HD
HETATM    6  C3  UNL     1      -2.831  -9.213   0.882  1.00  0.00     0.152 A 
HETATM    7  N3  UNL     1      -2.618  -8.696  -0.344  1.00  0.00    -0.174 N 
ATOM      8  H3  UNL     1      -3.113  -9.064  -1.157  1.00  0.00     0.186 HD
HETATM    9  C4  UNL     1      -1.741  -7.687  -0.473  1.00  0.00     0.679 A 
HETATM   10  N5  UNL     1      -1.069  -7.176   0.582  1.00  0.00    -0.175 N 
ATOM     11  H5  UNL     1      -0.413  -6.409   0.430  1.00  0.00     0.186 HD
HETATM   12  C5  UNL     1      -1.243  -7.655   1.831  1.00  0.00     0.148 A 
HETATM   13  C9  UNL     1      -2.142  -8.693   1.974  1.00  0.00     0.125 A 
ENDROOT
BRANCH  12  14
HETATM   14  N6  UNL     1      -0.638  -7.216   2.868  1.00  0.00    -0.372 N 
ATOM     15  H6  UNL     1      -1.090  -7.374   3.768  1.00  0.00     0.161 HD
BRANCH  14  16
HETATM   16  C6  UNL     1       0.611  -6.526   2.884  1.00  0.00     0.155 C 
BRANCH  16  17
HETATM   17  C7  UNL     1       0.566  -5.150   3.470  1.00  0.00     0.226 C 
BRANCH  17  18
HETATM   18  N7  UNL     1       1.962  -4.699   3.596  1.00  0.00    -0.072 N 
ATOM     19  H73 UNL     1       2.526  -5.300   4.197  1.00  0.00     0.274 HD
ATOM     20  H72 UNL     1       2.504  -4.827   2.742  1.00  0.00     0.274 HD
ATOM     21  H71 UNL     1       1.929  -3.730   3.911  1.00  0.00     0.274 HD
ENDBRANCH  17  18
BRANCH  17  22
HETATM   22  C8  UNL     1      -0.119  -4.142   2.586  1.00  0.00     0.264 C 
BRANCH  22  23
HETATM   23  N8  UNL     1      -1.463  -3.849   2.963  1.00  0.00    -0.077 N 
ATOM     24  H83 UNL     1      -1.955  -3.388   2.198  1.00  0.00     0.274 HD
ATOM     25  H82 UNL     1      -2.009  -4.708   3.029  1.00  0.00     0.274 HD
ATOM     26  H81 UNL     1      -1.549  -3.304   3.821  1.00  0.00     0.274 HD
ENDBRANCH  22  23
ENDBRANCH  17  22
ENDBRANCH  16  17
ENDBRANCH  14  16
ENDBRANCH  12  14
BRANCH   9  27
HETATM   27  N4  UNL     1      -1.552  -7.204  -1.666  1.00  0.00    -0.234 N 
ATOM     28  H42 UNL     1      -0.995  -7.721  -2.347  1.00  0.00     0.174 HD
ATOM     29  H41 UNL     1      -1.978  -6.303  -1.883  1.00  0.00     0.174 HD
ENDBRANCH   9  27
TORSDOF 7
ENDMDL
MODEL 2
REMARK VINA RESULT: -5.694999140      1.428      2.125
REMARK  7 active torsions:
REMARK  status: ('A' for Active; 'I' for Inactive)
REMARK    1  A    between atoms: C4_9  and  N4_10 
REMARK    2  A    between atoms: C5_15  and  N6_16 
REMARK    3  A    between atoms: N6_16  and  C6_18 
REMARK    4  A    between atoms: C6_18  and  C7_19 
REMARK    5  A    between atoms: C7_19  and  N7_20 
REMARK    6  A    between atoms: C7_19  and  C8_24 
REMARK    7  A    between atoms: C8_24  and  N8_25 
ROOT
HETATM    1  C1  UNL     1       0.730  -8.699   2.888  1.00  0.00     0.157 C 
HETATM    2  N1  UNL     1      -0.470  -9.211   2.256  1.00  0.00    -0.341 N 
HETATM    3  C2  UNL     1      -0.994 -10.463   2.374  1.00  0.00     0.184 A 
HETATM    4  N2  UNL     1      -2.101 -10.507   1.630  1.00  0.00    -0.336 N 
ATOM      5  H2  UNL     1      -2.712 -11.315   1.518  1.00  0.00     0.168 HD
HETATM    6  C3  UNL     1      -2.274  -9.301   1.051  1.00  0.00     0.152 A 
HETATM    7  N3  UNL     1      -3.226  -8.836   0.219  1.00  0.00    -0.174 N 
ATOM      8  H3  UNL     1      -3.995  -9.437  -0.080  1.00  0.00     0.186 HD
HETATM    9  C4  UNL     1      -3.142  -7.565  -0.208  1.00  0.00     0.679 A 
HETATM   10  N5  UNL     1      -2.139  -6.742   0.169  1.00  0.00    -0.175 N 
ATOM     11  H5  UNL     1      -2.121  -5.785  -0.183  1.00  0.00     0.186 HD
HETATM   12  C5  UNL     1      -1.159  -7.155   0.999  1.00  0.00     0.148 A 
HETATM   13  C9  UNL     1      -1.236  -8.460   1.444  1.00  0.00     0.125 A 
ENDROOT
BRANCH  12  14
HETATM   14  N6  UNL     1      -0.185  -6.427   1.392  1.00  0.00    -0.372 N 
ATOM     15  H6  UNL     1       0.602  -6.905   1.831  1.00  0.00     0.161 HD
BRANCH  14  16
HETATM   16  C6  UNL     1      -0.094  -5.008   1.273  1.00  0.00     0.155 C 
BRANCH  16  17
HETATM   17  C7  UNL     1      -0.065  -4.264   2.570  1.00  0.00     0.226 C 
BRANCH  17  18
HETATM   18  N7  UNL     1      -1.452  -4.218   3.061  1.00  0.00    -0.072 N 
ATOM     19  H73 UNL     1      -1.717  -3.306   3.434  1.00  0.00     0.274 HD
ATOM     20  H72 UNL     1      -2.145  -4.256   2.313  1.00  0.00     0.274 HD
ATOM     21  H71 UNL     1      -1.548  -4.974   3.738  1.00  0.00     0.274 HD
ENDBRANCH  17  18
BRANCH  17  22
HETATM   22  C8  UNL     1       0.734  -4.957   3.643  1.00  0.00     0.264 C 
BRANCH  22  23
HETATM   23  N8  UNL     1       2.118  -4.618   3.654  1.00  0.00    -0.077 N 
ATOM     24  H83 UNL     1       2.680  -5.405   3.329  1.00  0.00     0.274 HD
ATOM     25  H82 UNL     1       2.325  -3.941   2.920  1.00  0.00     0.274 HD
ATOM     26  H81 UNL     1       2.462  -4.284   4.555  1.00  0.00     0.274 HD
ENDBRANCH  22  23
ENDBRANCH  17  22
ENDBRANCH  16  17
ENDBRANCH  14  16
ENDBRANCH  12  14
BRANCH   9  27
HETATM   27  N4  UNL     1      -4.073  -7.138  -1.010  1.00  0.00    -0.234 N 
ATOM     28  H42 UNL     1      -4.884  -7.722  -1.212  1.00  0.00     0.174 HD
ATOM     29  H41 UNL     1      -3.954  -6.211  -1.419  1.00  0.00     0.174 HD
ENDBRANCH   9  27
TORSDOF 7
ENDMDL
MODEL 3
REMARK VINA RESULT: -5.644397835      1.486      5.110
REMARK  7 active torsions:
REMARK  status: ('A' for Active; 'I' for Inactive)
REMARK    1  A    between atoms: C4_9  and  N4_10 
REMARK    2  A    between atoms: C5_15  and  N6_16 
REMARK    3  A    between atoms: N6_16  and  C6_18 
REMARK    4  A    between atoms: C6_18  and  C7_19 
REMARK    5  A    between atoms: C7_19  and  N7_20 
REMARK    6  A    between atoms: C7_19  and  C8_24 
REMARK    7  A    between atoms: C8_24  and  N8_25 
ROOT
HETATM    1  C1  UNL     1       1.235  -9.509   2.625  1.00  0.00     0.157 C 
HETATM    2  N1  UNL     1       1.537  -8.092   2.625  1.00  0.00    -0.341 N 
HETATM    3  C2  UNL     1       2.767  -7.511   2.549  1.00  0.00     0.184 A 
HETATM    4  N2  UNL     1       2.589  -6.189   2.580  1.00  0.00    -0.336 N 
ATOM      5  H2  UNL     1       3.327  -5.487   2.539  1.00  0.00     0.168 HD
HETATM    6  C3  UNL     1       1.267  -5.938   2.672  1.00  0.00     0.152 A 
HETATM    7  N3  UNL     1       0.577  -4.782   2.734  1.00  0.00    -0.174 N 
ATOM      8  H3  UNL     1       1.062  -3.885   2.714  1.00  0.00     0.186 HD
HETATM    9  C4  UNL     1      -0.762  -4.837   2.825  1.00  0.00     0.679 A 
HETATM   10  N5  UNL     1      -1.436  -6.007   2.854  1.00  0.00    -0.175 N 
ATOM     11  H5  UNL     1      -2.454  -5.994   2.923  1.00  0.00     0.186 HD
HETATM   12  C5  UNL     1      -0.797  -7.193   2.795  1.00  0.00     0.148 A 
HETATM   13  C9  UNL     1       0.580  -7.148   2.703  1.00  0.00     0.125 A 
ENDROOT
BRANCH  12  14
HETATM   14  N6  UNL     1      -1.376  -8.333   2.819  1.00  0.00    -0.372 N 
ATOM     15  H6  UNL     1      -0.946  -9.058   3.393  1.00  0.00     0.161 HD
BRANCH  14  16
HETATM   16  C6  UNL     1      -2.567  -8.686   2.118  1.00  0.00     0.155 C 
BRANCH  16  17
HETATM   17  C7  UNL     1      -2.391  -8.934   0.653  1.00  0.00     0.226 C 
BRANCH  17  18
HETATM   18  N7  UNL     1      -3.391  -9.945   0.273  1.00  0.00    -0.072 N 
ATOM     19  H73 UNL     1      -3.058 -10.591  -0.443  1.00  0.00     0.274 HD
ATOM     20  H72 UNL     1      -3.558 -10.639   1.002  1.00  0.00     0.274 HD
ATOM     21  H71 UNL     1      -4.231  -9.437  -0.000  1.00  0.00     0.274 HD
ENDBRANCH  17  18
BRANCH  17  22
HETATM   22  C8  UNL     1      -2.675  -7.726  -0.200  1.00  0.00     0.264 C 
BRANCH  22  23
HETATM   23  N8  UNL     1      -1.582  -7.315  -1.017  1.00  0.00    -0.077 N 
ATOM     24  H83 UNL     1      -0.809  -7.976  -0.937  1.00  0.00     0.274 HD
ATOM     25  H82 UNL     1      -1.810  -7.433  -2.004  1.00  0.00     0.274 HD
ATOM     26  H81 UNL     1      -1.257  -6.364  -0.838  1.00  0.00     0.274 HD
ENDBRANCH  22  23
ENDBRANCH  17  22
ENDBRANCH  16  17
ENDBRANCH  14  16
ENDBRANCH  12  14
BRANCH   9  27
HETATM   27  N4  UNL     1      -1.407  -3.708   2.883  1.00  0.00    -0.234 N 
ATOM     28  H42 UNL     1      -1.113  -2.983   3.537  1.00  0.00     0.174 HD
ATOM     29  H41 UNL     1      -2.204  -3.588   2.258  1.00  0.00     0.174 HD
ENDBRANCH   9  27
TORSDOF 7
ENDMDL
MODEL 4
REMARK VINA RESULT: -5.593052073      1.572      1.929
REMARK  7 active torsions:
REMARK  status: ('A' for Active; 'I' for Inactive)
REMARK    1  A    between atoms: C4_9  and  N4_10 
REMARK    2  A    between atoms: C5_15  and  N6_16 
REMARK    3  A    between atoms: N6_16  and  C6_18 
REMARK    4  A    between atoms: C6_18  and  C7_19 
REMARK    5  A    between atoms: C7_19  and  N7_20 
REMARK    6  A    between atoms: C7_19  and  C8_24 
REMARK    7  A    between atoms: C8_24  and  N8_25 
ROOT
HETATM    1  C1  UNL     1      -0.760  -8.424   4.106  1.00  0.00     0.157 C 
HETATM    2  N1  UNL     1      -1.428  -9.033   2.973  1.00  0.00    -0.341 N 
HETATM    3  C2  UNL     1      -1.509 -10.360   2.679  1.00  0.00     0.184 A 
HETATM    4  N2  UNL     1      -2.213 -10.480   1.552  1.00  0.00    -0.336 N 
ATOM      5  H2  UNL     1      -2.441 -11.356   1.081  1.00  0.00     0.168 HD
HETATM    6  C3  UNL     1      -2.573  -9.248   1.140  1.00  0.00     0.152 A 
HETATM    7  N3  UNL     1      -3.282  -8.832   0.073  1.00  0.00    -0.174 N 
ATOM      8  H3  UNL     1      -3.654  -9.504  -0.599  1.00  0.00     0.186 HD
HETATM    9  C4  UNL     1      -3.489  -7.514  -0.088  1.00  0.00     0.679 A 
HETATM   10  N5  UNL     1      -3.011  -6.597   0.782  1.00  0.00    -0.175 N 
ATOM     11  H5  UNL     1      -3.196  -5.608   0.615  1.00  0.00     0.186 HD
HETATM   12  C5  UNL     1      -2.295  -6.958   1.867  1.00  0.00     0.148 A 
HETATM   13  C9  UNL     1      -2.076  -8.310   2.041  1.00  0.00     0.125 A 
ENDROOT
BRANCH  12  14
HETATM   14  N6  UNL     1      -1.816  -6.140   2.725  1.00  0.00    -0.372 N 
ATOM     15  H6  UNL     1      -2.200  -6.184   3.669  1.00  0.00     0.161 HD
BRANCH  14  16
HETATM   16  C6  UNL     1      -0.795  -5.172   2.488  1.00  0.00     0.155 C 
BRANCH  16  17
HETATM   17  C7  UNL     1       0.438  -5.702   1.827  1.00  0.00     0.226 C 
BRANCH  17  18
HETATM   18  N7  UNL     1       0.774  -4.763   0.745  1.00  0.00    -0.072 N 
ATOM     19  H73 UNL     1       1.465  -4.064   1.017  1.00  0.00     0.274 HD
ATOM     20  H72 UNL     1       1.315  -5.191  -0.007  1.00  0.00     0.274 HD
ATOM     21  H71 UNL     1      -0.106  -4.357   0.426  1.00  0.00     0.274 HD
ENDBRANCH  17  18
BRANCH  17  22
HETATM   22  C8  UNL     1       1.639  -5.736   2.736  1.00  0.00     0.264 C 
BRANCH  22  23
HETATM   23  N8  UNL     1       1.797  -4.572   3.543  1.00  0.00    -0.077 N 
ATOM     24  H83 UNL     1       0.922  -4.051   3.591  1.00  0.00     0.274 HD
ATOM     25  H82 UNL     1       1.900  -4.830   4.524  1.00  0.00     0.274 HD
ATOM     26  H81 UNL     1       2.560  -3.960   3.253  1.00  0.00     0.274 HD
ENDBRANCH  22  23
ENDBRANCH  17  22
ENDBRANCH  16  17
ENDBRANCH  14  16
ENDBRANCH  12  14
BRANCH   9  27
HETATM   27  N4  UNL     1      -4.177  -7.136  -1.126  1.00  0.00    -0.234 N 
ATOM     28  H42 UNL     1      -4.690  -7.821  -1.679  1.00  0.00     0.174 HD
ATOM     29  H41 UNL     1      -4.177  -6.141  -1.354  1.00  0.00     0.174 HD
ENDBRANCH   9  27
TORSDOF 7
ENDMDL
MODEL 5
REMARK VINA RESULT: -5.541405207      1.749      5.290
REMARK  7 active torsions:
REMARK  status: ('A' for Active; 'I' for Inactive)
REMARK    1  A    between atoms: C4_9  and  N4_10 
REMARK    2  A    between atoms: C5_15  and  N6_16 
REMARK    3  A    between atoms: N6_16  and  C6_18 
REMARK    4  A    between atoms: C6_18  and  C7_19 
REMARK    5  A    between atoms: C7_19  and  N7_20 
REMARK    6  A    between atoms: C7_19  and  C8_24 
REMARK    7  A    between atoms: C8_24  and  N8_25 
ROOT
HETATM    1  C1  UNL     1       1.653  -9.536   3.099  1.00  0.00     0.157 C 
HETATM    2  N1  UNL     1       1.843  -8.133   2.795  1.00  0.00    -0.341 N 
HETATM    3  C2  UNL     1       2.985  -7.530   2.360  1.00  0.00     0.184 A 
HETATM    4  N2  UNL     1       2.720  -6.232   2.203  1.00  0.00    -0.336 N 
ATOM      5  H2  UNL     1       3.381  -5.522   1.887  1.00  0.00     0.168 HD
HETATM    6  C3  UNL     1       1.430  -6.017   2.532  1.00  0.00     0.152 A 
HETATM    7  N3  UNL     1       0.684  -4.895   2.543  1.00  0.00    -0.174 N 
ATOM      8  H3  UNL     1       1.087  -3.999   2.267  1.00  0.00     0.186 HD
HETATM    9  C4  UNL     1      -0.601  -4.981   2.925  1.00  0.00     0.679 A 
HETATM   10  N5  UNL     1      -1.166  -6.151   3.297  1.00  0.00    -0.175 N 
ATOM     11  H5  UNL     1      -2.147  -6.163   3.578  1.00  0.00     0.186 HD
HETATM   12  C5  UNL     1      -0.466  -7.304   3.304  1.00  0.00     0.148 A 
HETATM   13  C9  UNL     1       0.856  -7.226   2.913  1.00  0.00     0.125 A 
ENDROOT
BRANCH  12  14
HETATM   14  N6  UNL     1      -0.943  -8.441   3.644  1.00  0.00    -0.372 N 
ATOM     15  H6  UNL     1      -0.469  -8.932   4.402  1.00  0.00     0.161 HD
BRANCH  14  16
HETATM   16  C6  UNL     1      -2.075  -9.086   3.064  1.00  0.00     0.155 C 
BRANCH  16  17
HETATM   17  C7  UNL     1      -1.829  -9.718   1.730  1.00  0.00     0.226 C 
BRANCH  17  18
HETATM   18  N7  UNL     1      -2.351 -11.092   1.812  1.00  0.00    -0.072 N 
ATOM     19  H73 UNL     1      -3.344 -11.133   2.038  1.00  0.00     0.274 HD
ATOM     20  H72 UNL     1      -2.406 -11.556   0.905  1.00  0.00     0.274 HD
ATOM     21  H71 UNL     1      -1.764 -11.588   2.482  1.00  0.00     0.274 HD
ENDBRANCH  17  18
BRANCH  17  22
HETATM   22  C8  UNL     1      -2.577  -9.055   0.604  1.00  0.00     0.264 C 
BRANCH  22  23
HETATM   23  N8  UNL     1      -3.620  -9.850   0.044  1.00  0.00    -0.077 N 
ATOM     24  H83 UNL     1      -3.277 -10.785  -0.173  1.00  0.00     0.274 HD
ATOM     25  H82 UNL     1      -4.314 -10.079   0.756  1.00  0.00     0.274 HD
ATOM     26  H81 UNL     1      -4.070  -9.437  -0.773  1.00  0.00     0.274 HD
ENDBRANCH  22  23
ENDBRANCH  17  22
ENDBRANCH  16  17
ENDBRANCH  14  16
ENDBRANCH  12  14
BRANCH   9  27
HETATM   27  N4  UNL     1      -1.302  -3.885   2.929  1.00  0.00    -0.234 N 
ATOM     28  H42 UNL     1      -1.907  -3.665   3.719  1.00  0.00     0.174 HD
ATOM     29  H41 UNL     1      -1.219  -3.271   2.118  1.00  0.00     0.174 HD
ENDBRANCH   9  27
TORSDOF 7
ENDMDL
