MODEL 1
REMARK VINA RESULT: -5.970304984      0.000      0.000
REMARK  3 active torsions:
REMARK  status: ('A' for Active; 'I' for Inactive)
REMARK    1  A    between atoms: N2_7  and  C4_8 
REMARK    2  A    between atoms: C4_8  and  N3_9 
REMARK    3  A    between atoms: C7_18  and  C8_19 
ROOT
HETATM    1  C1  UNL     1      39.084  44.551   9.329  1.00  0.00     0.069 C 
HETATM    2  C2  UNL     1      38.228  44.935  10.485  1.00  0.00     0.028 A 
HETATM    3  N1  UNL     1      37.693  43.981  11.241  1.00  0.00    -0.311 N 
ATOM      4  H1  UNL     1      37.876  43.003  11.019  1.00  0.00     0.170 HD
HETATM    5  C3  UNL     1      36.913  44.288  12.296  1.00  0.00     0.332 A 
HETATM    6  O1  UNL     1      36.405  43.394  13.014  1.00  0.00    -0.246 OA
HETATM    7  N2  UNL     1      36.625  45.552  12.655  1.00  0.00    -0.214 N 
HETATM    8  C6  UNL     1      37.162  46.533  11.896  1.00  0.00     0.270 A 
HETATM    9  O2  UNL     1      36.957  47.754  12.144  1.00  0.00    -0.267 OA
HETATM   10  C7  UNL     1      37.968  46.253  10.806  1.00  0.00     0.092 A 
ENDROOT
BRANCH   7  11
HETATM   11  C4  UNL     1      35.816  45.925  13.750  1.00  0.00     0.310 C 
HETATM   12  C5  UNL     1      35.245  47.267  13.859  1.00  0.00     0.213 C 
HETATM   13  N4  UNL     1      33.944  46.656  14.150  1.00  0.00    -0.139 NA
HETATM   14  N5  UNL     1      34.426  45.506  13.496  1.00  0.00    -0.086 NA
BRANCH  11  15
HETATM   15  N3  UNL     1      36.253  45.358  14.997  1.00  0.00    -0.034 N 
ATOM     16  H33 UNL     1      37.111  44.823  14.870  1.00  0.00     0.279 HD
ATOM     17  H32 UNL     1      36.598  46.084  15.624  1.00  0.00     0.279 HD
ATOM     18  H31 UNL     1      35.537  44.794  15.454  1.00  0.00     0.279 HD
ENDBRANCH  11  15
ENDBRANCH   7  11
BRANCH  10  19
HETATM   19  C8  UNL     1      38.563  47.282   9.966  1.00  0.00     0.277 C 
HETATM   20  O3  UNL     1      39.659  47.773  10.326  1.00  0.00    -0.301 OA
ENDBRANCH  10  19
TORSDOF 3
ENDMDL
MODEL 2
REMARK VINA RESULT: -5.859607104      1.653      4.150
REMARK  3 active torsions:
REMARK  status: ('A' for Active; 'I' for Inactive)
REMARK    1  A    between atoms: N2_7  and  C4_8 
REMARK    2  A    between atoms: C4_8  and  N3_9 
REMARK    3  A    between atoms: C7_18  and  C8_19 
ROOT
HETATM    1  C1  UNL     1      36.359  48.397  16.072  1.00  0.00     0.069 C 
HETATM    2  C2  UNL     1      36.550  47.458  14.934  1.00  0.00     0.028 A 
HETATM    3  N1  UNL     1      36.173  46.190  15.070  1.00  0.00    -0.311 N 
ATOM      4  H1  UNL     1      35.759  45.881  15.949  1.00  0.00     0.170 HD
HETATM    5  C3  UNL     1      36.328  45.309  14.063  1.00  0.00     0.332 A 
HETATM    6  O1  UNL     1      35.974  44.111  14.184  1.00  0.00    -0.246 OA
HETATM    7  N2  UNL     1      36.864  45.637  12.873  1.00  0.00    -0.214 N 
HETATM    8  C6  UNL     1      37.252  46.922  12.720  1.00  0.00     0.270 A 
HETATM    9  O2  UNL     1      37.767  47.338  11.645  1.00  0.00    -0.267 OA
HETATM   10  C7  UNL     1      37.106  47.854  13.733  1.00  0.00     0.092 A 
ENDROOT
BRANCH   7  11
HETATM   11  C4  UNL     1      37.048  44.752  11.789  1.00  0.00     0.310 C 
HETATM   12  C5  UNL     1      37.955  45.069  10.687  1.00  0.00     0.213 C 
HETATM   13  N4  UNL     1      38.538  43.730  10.823  1.00  0.00    -0.139 NA
HETATM   14  N5  UNL     1      38.059  43.742  12.148  1.00  0.00    -0.086 NA
BRANCH  11  15
HETATM   15  N3  UNL     1      35.839  44.081  11.394  1.00  0.00    -0.034 N 
ATOM     16  H33 UNL     1      35.411  44.546  10.595  1.00  0.00     0.279 HD
ATOM     17  H32 UNL     1      36.048  43.177  10.971  1.00  0.00     0.279 HD
ATOM     18  H31 UNL     1      35.170  43.979  12.157  1.00  0.00     0.279 HD
ENDBRANCH  11  15
ENDBRANCH   7  11
BRANCH  10  19
HETATM   19  C8  UNL     1      37.512  49.246  13.605  1.00  0.00     0.277 C 
HETATM   20  O3  UNL     1      38.724  49.522  13.765  1.00  0.00    -0.301 OA
ENDBRANCH  10  19
TORSDOF 3
ENDMDL
MODEL 3
REMARK VINA RESULT: -5.797775692      2.263      2.718
REMARK  3 active torsions:
REMARK  status: ('A' for Active; 'I' for Inactive)
REMARK    1  A    between atoms: N2_7  and  C4_8 
REMARK    2  A    between atoms: C4_8  and  N3_9 
REMARK    3  A    between atoms: C7_18  and  C8_19 
ROOT
HETATM    1  C1  UNL     1      37.758  45.721   7.029  1.00  0.00     0.069 C 
HETATM    2  C2  UNL     1      37.510  45.605   8.492  1.00  0.00     0.028 A 
HETATM    3  N1  UNL     1      38.183  44.698   9.193  1.00  0.00    -0.311 N 
ATOM      4  H1  UNL     1      38.857  44.096   8.721  1.00  0.00     0.170 HD
HETATM    5  C3  UNL     1      37.987  44.562  10.519  1.00  0.00     0.332 A 
HETATM    6  O1  UNL     1      38.618  43.709  11.188  1.00  0.00    -0.246 OA
HETATM    7  N2  UNL     1      37.118  45.317  11.216  1.00  0.00    -0.214 N 
HETATM    8  C6  UNL     1      36.427  46.244  10.517  1.00  0.00     0.270 A 
HETATM    9  O2  UNL     1      35.586  47.005  11.070  1.00  0.00    -0.267 OA
HETATM   10  C7  UNL     1      36.604  46.410   9.154  1.00  0.00     0.092 A 
ENDROOT
BRANCH   7  11
HETATM   11  C4  UNL     1      36.877  45.214  12.603  1.00  0.00     0.310 C 
HETATM   12  C5  UNL     1      35.520  45.147  13.143  1.00  0.00     0.213 C 
HETATM   13  N4  UNL     1      35.934  43.997  13.954  1.00  0.00    -0.139 NA
HETATM   14  N5  UNL     1      36.962  43.801  13.011  1.00  0.00    -0.086 NA
BRANCH  11  15
HETATM   15  N3  UNL     1      37.798  45.983  13.396  1.00  0.00    -0.034 N 
ATOM     16  H33 UNL     1      37.327  46.396  14.200  1.00  0.00     0.279 HD
ATOM     17  H32 UNL     1      38.456  45.373  13.882  1.00  0.00     0.279 HD
ATOM     18  H31 UNL     1      38.293  46.695  12.859  1.00  0.00     0.279 HD
ENDBRANCH  11  15
ENDBRANCH   7  11
BRANCH  10  19
HETATM   19  C8  UNL     1      35.879  47.397   8.367  1.00  0.00     0.277 C 
HETATM   20  O3  UNL     1      34.721  47.108   7.984  1.00  0.00    -0.301 OA
ENDBRANCH  10  19
TORSDOF 3
ENDMDL
MODEL 4
REMARK VINA RESULT: -5.494428290      1.967      3.064
REMARK  3 active torsions:
REMARK  status: ('A' for Active; 'I' for Inactive)
REMARK    1  A    between atoms: N2_7  and  C4_8 
REMARK    2  A    between atoms: C4_8  and  N3_9 
REMARK    3  A    between atoms: C7_18  and  C8_19 
ROOT
HETATM    1  C1  UNL     1      40.160  48.329   9.189  1.00  0.00     0.069 C 
HETATM    2  C2  UNL     1      39.417  47.401  10.084  1.00  0.00     0.028 A 
HETATM    3  N1  UNL     1      38.959  47.852  11.248  1.00  0.00    -0.311 N 
ATOM      4  H1  UNL     1      39.123  48.824  11.511  1.00  0.00     0.170 HD
HETATM    5  C3  UNL     1      38.281  47.043  12.086  1.00  0.00     0.332 A 
HETATM    6  O1  UNL     1      37.846  47.461  13.186  1.00  0.00    -0.246 OA
HETATM    7  N2  UNL     1      38.023  45.751  11.815  1.00  0.00    -0.214 N 
HETATM    8  C6  UNL     1      38.482  45.279  10.635  1.00  0.00     0.270 A 
HETATM    9  O2  UNL     1      38.296  44.081  10.280  1.00  0.00    -0.267 OA
HETATM   10  C7  UNL     1      39.181  46.081   9.751  1.00  0.00     0.092 A 
ENDROOT
BRANCH   7  11
HETATM   11  C4  UNL     1      37.319  44.865  12.658  1.00  0.00     0.310 C 
HETATM   12  C5  UNL     1      36.441  45.352  13.721  1.00  0.00     0.213 C 
HETATM   13  N4  UNL     1      35.404  44.432  13.243  1.00  0.00    -0.139 NA
HETATM   14  N5  UNL     1      36.065  44.456  12.000  1.00  0.00    -0.086 NA
BRANCH  11  15
HETATM   15  N3  UNL     1      38.071  43.688  12.997  1.00  0.00    -0.034 N 
ATOM     16  H33 UNL     1      38.692  43.421  12.233  1.00  0.00     0.279 HD
ATOM     17  H32 UNL     1      38.767  43.895  13.713  1.00  0.00     0.279 HD
ATOM     18  H31 UNL     1      37.484  42.903  13.278  1.00  0.00     0.279 HD
ENDBRANCH  11  15
ENDBRANCH   7  11
BRANCH  10  19
HETATM   19  C8  UNL     1      39.691  45.609   8.472  1.00  0.00     0.277 C 
HETATM   20  O3  UNL     1      38.902  45.581   7.498  1.00  0.00    -0.301 OA
ENDBRANCH  10  19
TORSDOF 3
ENDMDL
MODEL 5
REMARK VINA RESULT: -5.340486232      1.541      1.842
REMARK  3 active torsions:
REMARK  status: ('A' for Active; 'I' for Inactive)
REMARK    1  A    between atoms: N2_7  and  C4_8 
REMARK    2  A    between atoms: C4_8  and  N3_9 
REMARK    3  A    between atoms: C7_18  and  C8_19 
ROOT
HETATM    1  C1  UNL     1      39.093  44.537   8.703  1.00  0.00     0.069 C 
HETATM    2  C2  UNL     1      38.193  44.795   9.860  1.00  0.00     0.028 A 
HETATM    3  N1  UNL     1      38.212  43.960  10.894  1.00  0.00    -0.311 N 
ATOM      4  H1  UNL     1      38.839  43.156  10.880  1.00  0.00     0.170 HD
HETATM    5  C3  UNL     1      37.413  44.159  11.960  1.00  0.00     0.332 A 
HETATM    6  O1  UNL     1      37.424  43.376  12.940  1.00  0.00    -0.246 OA
HETATM    7  N2  UNL     1      36.558  45.193  12.057  1.00  0.00    -0.214 N 
HETATM    8  C6  UNL     1      36.528  46.051  11.013  1.00  0.00     0.270 A 
HETATM    9  O2  UNL     1      35.763  47.056  10.999  1.00  0.00    -0.267 OA
HETATM   10  C7  UNL     1      37.335  45.877   9.903  1.00  0.00     0.092 A 
ENDROOT
BRANCH   7  11
HETATM   11  C4  UNL     1      35.702  45.446  13.150  1.00  0.00     0.310 C 
HETATM   12  C5  UNL     1      35.967  44.890  14.476  1.00  0.00     0.213 C 
HETATM   13  N4  UNL     1      35.751  46.225  15.045  1.00  0.00    -0.139 NA
HETATM   14  N5  UNL     1      36.066  46.733  13.769  1.00  0.00    -0.086 NA
BRANCH  11  15
HETATM   15  N3  UNL     1      34.312  45.483  12.785  1.00  0.00    -0.034 N 
ATOM     16  H33 UNL     1      34.108  46.303  12.215  1.00  0.00     0.279 HD
ATOM     17  H32 UNL     1      34.095  44.751  12.108  1.00  0.00     0.279 HD
ATOM     18  H31 UNL     1      33.684  45.433  13.587  1.00  0.00     0.279 HD
ENDBRANCH  11  15
ENDBRANCH   7  11
BRANCH  10  19
HETATM   19  C8  UNL     1      37.331  46.779   8.761  1.00  0.00     0.277 C 
HETATM   20  O3  UNL     1      36.476  46.590   7.865  1.00  0.00    -0.301 OA
ENDBRANCH  10  19
TORSDOF 3
ENDMDL
