MODEL 1
REMARK VINA RESULT: -5.950441251      0.000      0.000
REMARK  6 active torsions:
REMARK  status: ('A' for Active; 'I' for Inactive)
REMARK    1  A    between atoms: N1_1  and  C1_4 
REMARK    2  A    between atoms: C2_7  and  N3_8 
REMARK    3  A    between atoms: N3_8  and  S1_10 
REMARK    4  A    between atoms: S1_10  and  N4_11 
REMARK    5  A    between atoms: C3_20  and  C4_21 
REMARK    6  A    between atoms: N7_22  and  O3_24 
ROOT
HETATM    1  C1  UNL     1      39.209  46.354   9.747  1.00  0.00     0.144 A 
HETATM    2  N2  UNL     1      38.815  46.456  11.042  1.00  0.00    -0.173 N 
ATOM      3  H2  UNL     1      38.976  47.330  11.542  1.00  0.00     0.186 HD
HETATM    4  C2  UNL     1      38.219  45.439  11.683  1.00  0.00     0.709 A 
HETATM    5  N5  UNL     1      37.991  44.256  11.037  1.00  0.00    -0.131 N 
ATOM      6  H5  UNL     1      37.537  43.483  11.524  1.00  0.00     0.205 HD
HETATM    7  N6  UNL     1      38.361  44.122   9.779  1.00  0.00    -0.281 N 
ATOM      8  H6  UNL     1      38.193  43.241   9.293  1.00  0.00     0.187 HD
HETATM    9  C3  UNL     1      38.965  45.150   9.126  1.00  0.00     0.110 A 
ENDROOT
BRANCH   4  10
HETATM   10  N3  UNL     1      37.839  45.514  12.902  1.00  0.00    -0.098 N 
ATOM     11  H3  UNL     1      38.426  45.986  13.590  1.00  0.00     0.199 HD
BRANCH  10  12
HETATM   12  S1  UNL     1      36.345  44.824  13.383  1.00  0.00     0.330 S 
HETATM   13  O1  UNL     1      36.435  43.323  13.291  1.00  0.00    -0.182 OA
HETATM   14  O2  UNL     1      35.205  45.253  12.487  1.00  0.00    -0.182 OA
BRANCH  12  15
HETATM   15  N4  UNL     1      35.993  45.286  15.014  1.00  0.00    -0.311 N 
ATOM     16  H42 UNL     1      36.292  46.161  15.443  1.00  0.00     0.170 HD
ATOM     17  H41 UNL     1      35.447  44.551  15.465  1.00  0.00     0.170 HD
ENDBRANCH  12  15
ENDBRANCH  10  12
ENDBRANCH   4  10
BRANCH   1  18
HETATM   18  N1  UNL     1      39.782  47.307   9.101  1.00  0.00    -0.383 N 
ATOM     19  H12 UNL     1      39.604  48.278   9.358  1.00  0.00     0.157 HD
ATOM     20  H11 UNL     1      40.424  47.154   8.323  1.00  0.00     0.157 HD
ENDBRANCH   1  18
BRANCH   9  21
HETATM   21  C4  UNL     1      39.356  44.964   7.748  1.00  0.00     0.148 C 
HETATM   22  N7  UNL     1      38.499  44.681   6.831  1.00  0.00    -0.278 N 
ATOM     23  H7  UNL     1      38.840  44.564   5.877  1.00  0.00     0.193 HD
BRANCH  22  24
HETATM   24  O3  UNL     1      37.174  44.531   7.054  1.00  0.00    -0.290 OA
ATOM     25  H3  UNL     1      36.581  44.090   6.457  1.00  0.00     0.244 HD
ENDBRANCH  22  24
ENDBRANCH   9  21
TORSDOF 6
ENDMDL
MODEL 2
REMARK VINA RESULT: -5.879241606      2.826      4.267
REMARK  6 active torsions:
REMARK  status: ('A' for Active; 'I' for Inactive)
REMARK    1  A    between atoms: N1_1  and  C1_4 
REMARK    2  A    between atoms: C2_7  and  N3_8 
REMARK    3  A    between atoms: N3_8  and  S1_10 
REMARK    4  A    between atoms: S1_10  and  N4_11 
REMARK    5  A    between atoms: C3_20  and  C4_21 
REMARK    6  A    between atoms: N7_22  and  O3_24 
ROOT
HETATM    1  C1  UNL     1      35.925  44.898  12.158  1.00  0.00     0.144 A 
HETATM    2  N2  UNL     1      35.369  45.177  13.365  1.00  0.00    -0.173 N 
ATOM      3  H2  UNL     1      34.431  44.832  13.570  1.00  0.00     0.186 HD
HETATM    4  C2  UNL     1      36.018  45.894  14.294  1.00  0.00     0.709 A 
HETATM    5  N5  UNL     1      37.275  46.369  14.046  1.00  0.00    -0.131 N 
ATOM      6  H5  UNL     1      37.769  46.913  14.753  1.00  0.00     0.205 HD
HETATM    7  N6  UNL     1      37.846  46.118  12.884  1.00  0.00    -0.281 N 
ATOM      8  H6  UNL     1      38.783  46.470  12.693  1.00  0.00     0.187 HD
HETATM    9  C3  UNL     1      37.191  45.392  11.939  1.00  0.00     0.110 A 
ENDROOT
BRANCH   4  10
HETATM   10  N3  UNL     1      35.513  46.167  15.438  1.00  0.00    -0.098 N 
ATOM     11  H3  UNL     1      35.099  45.424  16.002  1.00  0.00     0.199 HD
BRANCH  10  12
HETATM   12  S1  UNL     1      35.531  47.778  16.025  1.00  0.00     0.330 S 
HETATM   13  O1  UNL     1      35.214  48.725  14.897  1.00  0.00    -0.182 OA
HETATM   14  O2  UNL     1      36.887  48.172  16.565  1.00  0.00    -0.182 OA
BRANCH  12  15
HETATM   15  N4  UNL     1      34.347  47.950  17.277  1.00  0.00    -0.311 N 
ATOM     16  H42 UNL     1      33.425  47.516  17.262  1.00  0.00     0.170 HD
ATOM     17  H41 UNL     1      34.720  48.546  18.017  1.00  0.00     0.170 HD
ENDBRANCH  12  15
ENDBRANCH  10  12
ENDBRANCH   4  10
BRANCH   1  18
HETATM   18  N1  UNL     1      35.334  44.215  11.243  1.00  0.00    -0.383 N 
ATOM     19  H12 UNL     1      34.830  43.362  11.487  1.00  0.00     0.157 HD
ATOM     20  H11 UNL     1      35.333  44.475  10.256  1.00  0.00     0.157 HD
ENDBRANCH   1  18
BRANCH   9  21
HETATM   21  C4  UNL     1      37.850  45.138  10.678  1.00  0.00     0.148 C 
HETATM   22  N7  UNL     1      38.387  44.000  10.410  1.00  0.00    -0.278 N 
ATOM     23  H7  UNL     1      38.836  43.885   9.501  1.00  0.00     0.193 HD
BRANCH  22  24
HETATM   24  O3  UNL     1      38.395  42.947  11.259  1.00  0.00    -0.290 OA
ATOM     25  H3  UNL     1      38.490  42.043  10.984  1.00  0.00     0.244 HD
ENDBRANCH  22  24
ENDBRANCH   9  21
TORSDOF 6
ENDMDL
MODEL 3
REMARK VINA RESULT: -5.823957328      3.778      5.126
REMARK  6 active torsions:
REMARK  status: ('A' for Active; 'I' for Inactive)
REMARK    1  A    between atoms: N1_1  and  C1_4 
REMARK    2  A    between atoms: C2_7  and  N3_8 
REMARK    3  A    between atoms: N3_8  and  S1_10 
REMARK    4  A    between atoms: S1_10  and  N4_11 
REMARK    5  A    between atoms: C3_20  and  C4_21 
REMARK    6  A    between atoms: N7_22  and  O3_24 
ROOT
HETATM    1  C1  UNL     1      35.921  46.409  12.686  1.00  0.00     0.144 A 
HETATM    2  N2  UNL     1      35.604  47.233  13.717  1.00  0.00    -0.173 N 
ATOM      3  H2  UNL     1      35.335  48.197  13.517  1.00  0.00     0.186 HD
HETATM    4  C2  UNL     1      35.636  46.817  14.991  1.00  0.00     0.709 A 
HETATM    5  N5  UNL     1      35.994  45.531  15.288  1.00  0.00    -0.131 N 
ATOM      6  H5  UNL     1      36.018  45.215  16.257  1.00  0.00     0.205 HD
HETATM    7  N6  UNL     1      36.308  44.704  14.311  1.00  0.00    -0.281 N 
ATOM      8  H6  UNL     1      36.576  43.744  14.527  1.00  0.00     0.187 HD
HETATM    9  C3  UNL     1      36.277  45.122  13.018  1.00  0.00     0.110 A 
ENDROOT
BRANCH   4  10
HETATM   10  N3  UNL     1      35.340  47.577  15.978  1.00  0.00    -0.098 N 
ATOM     11  H3  UNL     1      34.454  47.453  16.467  1.00  0.00     0.199 HD
BRANCH  10  12
HETATM   12  S1  UNL     1      36.431  48.802  16.478  1.00  0.00     0.330 S 
HETATM   13  O1  UNL     1      37.204  49.301  15.286  1.00  0.00    -0.182 OA
HETATM   14  O2  UNL     1      37.443  48.289  17.478  1.00  0.00    -0.182 OA
BRANCH  12  15
HETATM   15  N4  UNL     1      35.545  50.110  17.185  1.00  0.00    -0.311 N 
ATOM     16  H42 UNL     1      34.840  50.002  17.915  1.00  0.00     0.170 HD
ATOM     17  H41 UNL     1      35.838  50.990  16.759  1.00  0.00     0.170 HD
ENDBRANCH  12  15
ENDBRANCH  10  12
ENDBRANCH   4  10
BRANCH   1  18
HETATM   18  N1  UNL     1      35.902  46.773  11.452  1.00  0.00    -0.383 N 
ATOM     19  H12 UNL     1      35.751  47.754  11.211  1.00  0.00     0.157 HD
ATOM     20  H11 UNL     1      36.030  46.129  10.672  1.00  0.00     0.157 HD
ENDBRANCH   1  18
BRANCH   9  21
HETATM   21  C4  UNL     1      36.629  44.185  11.976  1.00  0.00     0.148 C 
HETATM   22  N7  UNL     1      37.748  43.550  11.983  1.00  0.00    -0.278 N 
ATOM     23  H7  UNL     1      37.935  42.902  11.218  1.00  0.00     0.193 HD
BRANCH  22  24
HETATM   24  O3  UNL     1      38.691  43.688  12.943  1.00  0.00    -0.290 OA
ATOM     25  H3  UNL     1      39.415  43.086  13.067  1.00  0.00     0.244 HD
ENDBRANCH  22  24
ENDBRANCH   9  21
TORSDOF 6
ENDMDL
MODEL 4
REMARK VINA RESULT: -5.707883931      3.806      5.118
REMARK  6 active torsions:
REMARK  status: ('A' for Active; 'I' for Inactive)
REMARK    1  A    between atoms: N1_1  and  C1_4 
REMARK    2  A    between atoms: C2_7  and  N3_8 
REMARK    3  A    between atoms: N3_8  and  S1_10 
REMARK    4  A    between atoms: S1_10  and  N4_11 
REMARK    5  A    between atoms: C3_20  and  C4_21 
REMARK    6  A    between atoms: N7_22  and  O3_24 
ROOT
HETATM    1  C1  UNL     1      35.826  46.331  12.676  1.00  0.00     0.144 A 
HETATM    2  N2  UNL     1      35.517  47.165  13.701  1.00  0.00    -0.173 N 
ATOM      3  H2  UNL     1      35.214  48.117  13.492  1.00  0.00     0.186 HD
HETATM    4  C2  UNL     1      35.598  46.774  14.982  1.00  0.00     0.709 A 
HETATM    5  N5  UNL     1      36.001  45.505  15.291  1.00  0.00    -0.131 N 
ATOM      6  H5  UNL     1      36.062  45.208  16.264  1.00  0.00     0.205 HD
HETATM    7  N6  UNL     1      36.309  44.668  14.320  1.00  0.00    -0.281 N 
ATOM      8  H6  UNL     1      36.611  43.720  14.545  1.00  0.00     0.187 HD
HETATM    9  C3  UNL     1      36.228  45.060  13.021  1.00  0.00     0.110 A 
ENDROOT
BRANCH   4  10
HETATM   10  N3  UNL     1      35.310  47.544  15.962  1.00  0.00    -0.098 N 
ATOM     11  H3  UNL     1      34.489  47.351  16.537  1.00  0.00     0.199 HD
BRANCH  10  12
HETATM   12  S1  UNL     1      36.301  48.899  16.313  1.00  0.00     0.330 S 
HETATM   13  O1  UNL     1      35.431  50.095  16.596  1.00  0.00    -0.182 OA
HETATM   14  O2  UNL     1      37.195  49.267  15.150  1.00  0.00    -0.182 OA
BRANCH  12  15
HETATM   15  N4  UNL     1      37.282  48.554  17.698  1.00  0.00    -0.311 N 
ATOM     16  H42 UNL     1      37.276  49.100  18.559  1.00  0.00     0.170 HD
ATOM     17  H41 UNL     1      37.855  47.730  17.513  1.00  0.00     0.170 HD
ENDBRANCH  12  15
ENDBRANCH  10  12
ENDBRANCH   4  10
BRANCH   1  18
HETATM   18  N1  UNL     1      35.760  46.671  11.437  1.00  0.00    -0.383 N 
ATOM     19  H12 UNL     1      35.938  47.637  11.163  1.00  0.00     0.157 HD
ATOM     20  H11 UNL     1      35.534  46.020  10.685  1.00  0.00     0.157 HD
ENDBRANCH   1  18
BRANCH   9  21
HETATM   21  C4  UNL     1      36.575  44.114  11.986  1.00  0.00     0.148 C 
HETATM   22  N7  UNL     1      37.713  43.513  11.969  1.00  0.00    -0.278 N 
ATOM     23  H7  UNL     1      37.895  42.856  11.211  1.00  0.00     0.193 HD
BRANCH  22  24
HETATM   24  O3  UNL     1      38.681  43.698  12.895  1.00  0.00    -0.290 OA
ATOM     25  H3  UNL     1      39.603  43.798  12.689  1.00  0.00     0.244 HD
ENDBRANCH  22  24
ENDBRANCH   9  21
TORSDOF 6
ENDMDL
MODEL 5
REMARK VINA RESULT: -5.647601392      4.462      6.960
REMARK  6 active torsions:
REMARK  status: ('A' for Active; 'I' for Inactive)
REMARK    1  A    between atoms: N1_1  and  C1_4 
REMARK    2  A    between atoms: C2_7  and  N3_8 
REMARK    3  A    between atoms: N3_8  and  S1_10 
REMARK    4  A    between atoms: S1_10  and  N4_11 
REMARK    5  A    between atoms: C3_20  and  C4_21 
REMARK    6  A    between atoms: N7_22  and  O3_24 
ROOT
HETATM    1  C1  UNL     1      34.926  48.176  15.451  1.00  0.00     0.144 A 
HETATM    2  N2  UNL     1      34.657  47.000  14.829  1.00  0.00    -0.173 N 
ATOM      3  H2  UNL     1      33.703  46.807  14.522  1.00  0.00     0.186 HD
HETATM    4  C2  UNL     1      35.610  46.083  14.606  1.00  0.00     0.709 A 
HETATM    5  N5  UNL     1      36.897  46.314  15.006  1.00  0.00    -0.131 N 
ATOM      6  H5  UNL     1      37.621  45.617  14.836  1.00  0.00     0.205 HD
HETATM    7  N6  UNL     1      37.194  47.446  15.613  1.00  0.00    -0.281 N 
ATOM      8  H6  UNL     1      38.151  47.624  15.914  1.00  0.00     0.187 HD
HETATM    9  C3  UNL     1      36.230  48.378  15.841  1.00  0.00     0.110 A 
ENDROOT
BRANCH   4  10
HETATM   10  N3  UNL     1      35.378  44.969  14.021  1.00  0.00    -0.098 N 
ATOM     11  H3  UNL     1      34.610  44.377  14.338  1.00  0.00     0.199 HD
BRANCH  10  12
HETATM   12  S1  UNL     1      36.357  44.467  12.705  1.00  0.00     0.330 S 
HETATM   13  O1  UNL     1      37.042  43.173  13.056  1.00  0.00    -0.182 OA
HETATM   14  O2  UNL     1      37.443  45.471  12.388  1.00  0.00    -0.182 OA
BRANCH  12  15
HETATM   15  N4  UNL     1      35.367  44.239  11.303  1.00  0.00    -0.311 N 
ATOM     16  H42 UNL     1      35.703  44.306  10.342  1.00  0.00     0.170 HD
ATOM     17  H41 UNL     1      34.410  44.030  11.592  1.00  0.00     0.170 HD
ENDBRANCH  12  15
ENDBRANCH  10  12
ENDBRANCH   4  10
BRANCH   1  18
HETATM   18  N1  UNL     1      34.038  49.078  15.681  1.00  0.00    -0.383 N 
ATOM     19  H12 UNL     1      33.782  49.742  14.949  1.00  0.00     0.157 HD
ATOM     20  H11 UNL     1      33.558  49.181  16.575  1.00  0.00     0.157 HD
ENDBRANCH   1  18
BRANCH   9  21
HETATM   21  C4  UNL     1      36.595  49.606  16.510  1.00  0.00     0.148 C 
HETATM   22  N7  UNL     1      37.339  49.612  17.559  1.00  0.00    -0.278 N 
ATOM     23  H7  UNL     1      37.561  50.512  17.984  1.00  0.00     0.193 HD
BRANCH  22  24
HETATM   24  O3  UNL     1      37.846  48.498  18.135  1.00  0.00    -0.290 OA
ATOM     25  H3  UNL     1      38.567  48.499  18.753  1.00  0.00     0.244 HD
ENDBRANCH  22  24
ENDBRANCH   9  21
TORSDOF 6
ENDMDL
