MODEL 1
REMARK VINA RESULT: -5.312277602      0.000      0.000
REMARK  7 active torsions:
REMARK  status: ('A' for Active; 'I' for Inactive)
REMARK    1  A    between atoms: N1_2  and  C2_4 
REMARK    2  A    between atoms: C3_7  and  N3_8 
REMARK    3  A    between atoms: N3_8  and  C4_10 
REMARK    4  A    between atoms: C4_10  and  C5_11 
REMARK    5  A    between atoms: C5_11  and  N4_12 
REMARK    6  A    between atoms: C8_20  and  N6_21 
REMARK    7  A    between atoms: N6_21  and  N7_23 
ROOT
HETATM    1  C2  UNL     1      38.189  46.674  12.603  1.00  0.00     0.134 A 
HETATM    2  N2  UNL     1      38.586  47.898  12.269  1.00  0.00    -0.176 N 
ATOM      3  H2  UNL     1      38.501  48.641  12.964  1.00  0.00     0.186 HD
HETATM    4  C3  UNL     1      39.092  48.210  11.062  1.00  0.00     0.681 A 
HETATM    5  N5  UNL     1      39.211  47.249  10.135  1.00  0.00    -0.174 N 
ATOM      6  H5  UNL     1      39.593  47.477   9.218  1.00  0.00     0.186 HD
HETATM    7  C6  UNL     1      38.832  45.987  10.399  1.00  0.00     0.155 A 
HETATM    8  C7  UNL     1      38.314  45.674  11.636  1.00  0.00     0.101 A 
HETATM    9  C8  UNL     1      38.016  44.327  11.623  1.00  0.00     0.152 A 
HETATM   10  N8  UNL     1      38.349  43.868  10.418  1.00  0.00    -0.280 N 
ATOM     11  H8  UNL     1      38.242  42.900  10.117  1.00  0.00     0.189 HD
HETATM   12  N9  UNL     1      38.837  44.834   9.668  1.00  0.00    -0.278 N 
HETATM   13  C9  UNL     1      39.318  44.763   8.292  1.00  0.00     0.179 C 
ENDROOT
BRANCH   4  14
HETATM   14  N3  UNL     1      39.441  49.409  10.842  1.00  0.00    -0.224 N 
ATOM     15  H3  UNL     1      39.722  49.631   9.887  1.00  0.00     0.177 HD
BRANCH  14  16
HETATM   16  C4  UNL     1      39.483  50.482  11.780  1.00  0.00     0.165 C 
BRANCH  16  17
HETATM   17  C5  UNL     1      40.860  50.727  12.348  1.00  0.00     0.249 C 
BRANCH  17  18
HETATM   18  N4  UNL     1      40.835  50.423  13.765  1.00  0.00    -0.078 N 
ATOM     19  H43 UNL     1      40.033  49.852  14.029  1.00  0.00     0.274 HD
ATOM     20  H42 UNL     1      41.569  49.768  14.038  1.00  0.00     0.274 HD
ATOM     21  H41 UNL     1      40.880  51.299  14.286  1.00  0.00     0.274 HD
ENDBRANCH  17  18
ENDBRANCH  16  17
ENDBRANCH  14  16
ENDBRANCH   4  14
BRANCH   1  22
HETATM   22  N1  UNL     1      37.706  46.329  13.725  1.00  0.00    -0.379 N 
HETATM   23  C1  UNL     1      36.660  47.079  14.382  1.00  0.00     0.147 C 
ATOM     24  H1  UNL     1      38.069  45.491  14.179  1.00  0.00     0.160 HD
ENDBRANCH   1  22
BRANCH   9  25
HETATM   25  N6  UNL     1      37.453  43.626  12.746  1.00  0.00    -0.290 N 
ATOM     26  H6  UNL     1      37.976  43.241  13.532  1.00  0.00     0.188 HD
BRANCH  25  27
HETATM   27  N7  UNL     1      36.050  43.562  12.573  1.00  0.00    -0.344 N 
ATOM     28  H72 UNL     1      35.575  43.449  11.678  1.00  0.00     0.176 HD
ATOM     29  H71 UNL     1      35.610  43.646  13.489  1.00  0.00     0.176 HD
ENDBRANCH  25  27
ENDBRANCH   9  25
TORSDOF 7
ENDMDL
MODEL 2
REMARK VINA RESULT: -5.235979905      1.926      5.724
REMARK  7 active torsions:
REMARK  status: ('A' for Active; 'I' for Inactive)
REMARK    1  A    between atoms: N1_2  and  C2_4 
REMARK    2  A    between atoms: C3_7  and  N3_8 
REMARK    3  A    between atoms: N3_8  and  C4_10 
REMARK    4  A    between atoms: C4_10  and  C5_11 
REMARK    5  A    between atoms: C5_11  and  N4_12 
REMARK    6  A    between atoms: C8_20  and  N6_21 
REMARK    7  A    between atoms: N6_21  and  N7_23 
ROOT
HETATM    1  C2  UNL     1      39.209  45.152   8.920  1.00  0.00     0.134 A 
HETATM    2  N2  UNL     1      38.483  44.365   9.708  1.00  0.00    -0.176 N 
ATOM      3  H2  UNL     1      38.281  43.417   9.390  1.00  0.00     0.186 HD
HETATM    4  C3  UNL     1      38.000  44.754  10.901  1.00  0.00     0.681 A 
HETATM    5  N5  UNL     1      38.254  45.996  11.336  1.00  0.00    -0.174 N 
ATOM      6  H5  UNL     1      37.890  46.298  12.240  1.00  0.00     0.186 HD
HETATM    7  C6  UNL     1      38.981  46.850  10.596  1.00  0.00     0.155 A 
HETATM    8  C7  UNL     1      39.473  46.446   9.375  1.00  0.00     0.101 A 
HETATM    9  C8  UNL     1      40.171  47.512   8.846  1.00  0.00     0.152 A 
HETATM   10  N8  UNL     1      40.091  48.505   9.729  1.00  0.00    -0.280 N 
ATOM     11  H8  UNL     1      40.516  49.424   9.608  1.00  0.00     0.189 HD
HETATM   12  N9  UNL     1      39.388  48.140  10.781  1.00  0.00    -0.278 N 
HETATM   13  C9  UNL     1      39.059  48.918  11.971  1.00  0.00     0.179 C 
ENDROOT
BRANCH   4  14
HETATM   14  N3  UNL     1      37.316  43.927  11.577  1.00  0.00    -0.224 N 
ATOM     15  H3  UNL     1      36.802  43.223  11.047  1.00  0.00     0.177 HD
BRANCH  14  16
HETATM   16  C4  UNL     1      37.185  43.871  12.996  1.00  0.00     0.165 C 
BRANCH  16  17
HETATM   17  C5  UNL     1      35.966  44.595  13.514  1.00  0.00     0.249 C 
BRANCH  17  18
HETATM   18  N4  UNL     1      36.228  45.027  14.873  1.00  0.00    -0.078 N 
ATOM     19  H43 UNL     1      36.255  44.249  15.532  1.00  0.00     0.274 HD
ATOM     20  H42 UNL     1      37.186  45.353  15.002  1.00  0.00     0.274 HD
ATOM     21  H41 UNL     1      35.536  45.732  15.128  1.00  0.00     0.274 HD
ENDBRANCH  17  18
ENDBRANCH  16  17
ENDBRANCH  14  16
ENDBRANCH   4  14
BRANCH   1  22
HETATM   22  N1  UNL     1      39.688  44.835   7.788  1.00  0.00    -0.379 N 
HETATM   23  C1  UNL     1      38.852  44.579   6.638  1.00  0.00     0.147 C 
ATOM     24  H1  UNL     1      40.699  44.757   7.687  1.00  0.00     0.160 HD
ENDBRANCH   1  22
BRANCH   9  25
HETATM   25  N6  UNL     1      40.836  47.473   7.571  1.00  0.00    -0.290 N 
ATOM     26  H6  UNL     1      41.727  47.017   7.376  1.00  0.00     0.188 HD
BRANCH  25  27
HETATM   27  N7  UNL     1      40.043  48.176   6.634  1.00  0.00    -0.344 N 
ATOM     28  H72 UNL     1      40.283  48.317   5.653  1.00  0.00     0.176 HD
ATOM     29  H71 UNL     1      39.203  48.508   7.108  1.00  0.00     0.176 HD
ENDBRANCH  25  27
ENDBRANCH   9  25
TORSDOF 7
ENDMDL
MODEL 3
REMARK VINA RESULT: -5.208949552      1.564      4.824
REMARK  7 active torsions:
REMARK  status: ('A' for Active; 'I' for Inactive)
REMARK    1  A    between atoms: N1_2  and  C2_4 
REMARK    2  A    between atoms: C3_7  and  N3_8 
REMARK    3  A    between atoms: N3_8  and  C4_10 
REMARK    4  A    between atoms: C4_10  and  C5_11 
REMARK    5  A    between atoms: C5_11  and  N4_12 
REMARK    6  A    between atoms: C8_20  and  N6_21 
REMARK    7  A    between atoms: N6_21  and  N7_23 
ROOT
HETATM    1  C2  UNL     1      37.657  45.103  12.513  1.00  0.00     0.134 A 
HETATM    2  N2  UNL     1      37.858  44.556  11.317  1.00  0.00    -0.176 N 
ATOM      3  H2  UNL     1      37.577  43.586  11.176  1.00  0.00     0.186 HD
HETATM    4  C3  UNL     1      38.412  45.216  10.285  1.00  0.00     0.681 A 
HETATM    5  N5  UNL     1      38.788  46.493  10.451  1.00  0.00    -0.174 N 
ATOM      6  H5  UNL     1      39.209  46.999   9.672  1.00  0.00     0.186 HD
HETATM    7  C6  UNL     1      38.616  47.114  11.630  1.00  0.00     0.155 A 
HETATM    8  C7  UNL     1      38.049  46.433  12.683  1.00  0.00     0.101 A 
HETATM    9  C8  UNL     1      37.998  47.304  13.751  1.00  0.00     0.152 A 
HETATM   10  N8  UNL     1      38.519  48.457  13.334  1.00  0.00    -0.280 N 
ATOM     11  H8  UNL     1      38.612  49.293  13.911  1.00  0.00     0.189 HD
HETATM   12  N9  UNL     1      38.896  48.373  12.075  1.00  0.00    -0.278 N 
HETATM   13  C9  UNL     1      39.510  49.399  11.239  1.00  0.00     0.179 C 
ENDROOT
BRANCH   4  14
HETATM   14  N3  UNL     1      38.562  44.605   9.184  1.00  0.00    -0.224 N 
ATOM     15  H3  UNL     1      37.980  43.779   9.042  1.00  0.00     0.177 HD
BRANCH  14  16
HETATM   16  C4  UNL     1      39.452  44.943   8.122  1.00  0.00     0.165 C 
BRANCH  16  17
HETATM   17  C5  UNL     1      38.781  44.987   6.770  1.00  0.00     0.249 C 
BRANCH  17  18
HETATM   18  N4  UNL     1      37.562  44.204   6.834  1.00  0.00    -0.078 N 
ATOM     19  H43 UNL     1      36.780  44.659   6.364  1.00  0.00     0.274 HD
ATOM     20  H42 UNL     1      37.605  43.366   6.254  1.00  0.00     0.274 HD
ATOM     21  H41 UNL     1      37.362  43.995   7.812  1.00  0.00     0.274 HD
ENDBRANCH  17  18
ENDBRANCH  16  17
ENDBRANCH  14  16
ENDBRANCH   4  14
BRANCH   1  22
HETATM   22  N1  UNL     1      37.140  44.525  13.518  1.00  0.00    -0.379 N 
HETATM   23  C1  UNL     1      35.710  44.399  13.687  1.00  0.00     0.147 C 
ATOM     24  H1  UNL     1      37.755  44.136  14.231  1.00  0.00     0.160 HD
ENDBRANCH   1  22
BRANCH   9  25
HETATM   25  N6  UNL     1      37.465  46.954  15.040  1.00  0.00    -0.290 N 
ATOM     26  H6  UNL     1      37.418  46.013  15.431  1.00  0.00     0.188 HD
BRANCH  25  27
HETATM   27  N7  UNL     1      37.016  48.137  15.673  1.00  0.00    -0.344 N 
ATOM     28  H72 UNL     1      36.661  48.961  15.189  1.00  0.00     0.176 HD
ATOM     29  H71 UNL     1      37.110  48.017  16.681  1.00  0.00     0.176 HD
ENDBRANCH  25  27
ENDBRANCH   9  25
TORSDOF 7
ENDMDL
MODEL 4
REMARK VINA RESULT: -5.184134225      1.732      3.797
REMARK  7 active torsions:
REMARK  status: ('A' for Active; 'I' for Inactive)
REMARK    1  A    between atoms: N1_2  and  C2_4 
REMARK    2  A    between atoms: C3_7  and  N3_8 
REMARK    3  A    between atoms: N3_8  and  C4_10 
REMARK    4  A    between atoms: C4_10  and  C5_11 
REMARK    5  A    between atoms: C5_11  and  N4_12 
REMARK    6  A    between atoms: C8_20  and  N6_21 
REMARK    7  A    between atoms: N6_21  and  N7_23 
ROOT
HETATM    1  C2  UNL     1      39.094  47.259  10.701  1.00  0.00     0.134 A 
HETATM    2  N2  UNL     1      38.909  48.076  11.734  1.00  0.00    -0.176 N 
ATOM      3  H2  UNL     1      39.220  49.044  11.646  1.00  0.00     0.186 HD
HETATM    4  C3  UNL     1      38.334  47.693  12.887  1.00  0.00     0.681 A 
HETATM    5  N5  UNL     1      37.919  46.426  13.022  1.00  0.00    -0.174 N 
ATOM      6  H5  UNL     1      37.482  46.128  13.894  1.00  0.00     0.186 HD
HETATM    7  C6  UNL     1      38.071  45.541  12.022  1.00  0.00     0.155 A 
HETATM    8  C7  UNL     1      38.661  45.939  10.843  1.00  0.00     0.101 A 
HETATM    9  C8  UNL     1      38.685  44.840  10.009  1.00  0.00     0.152 A 
HETATM   10  N8  UNL     1      38.127  43.834  10.679  1.00  0.00    -0.280 N 
ATOM     11  H8  UNL     1      38.005  42.890  10.312  1.00  0.00     0.189 HD
HETATM   12  N9  UNL     1      37.752  44.222  11.881  1.00  0.00    -0.278 N 
HETATM   13  C9  UNL     1      37.106  43.439  12.929  1.00  0.00     0.179 C 
ENDROOT
BRANCH   4  14
HETATM   14  N3  UNL     1      38.204  48.550  13.813  1.00  0.00    -0.224 N 
ATOM     15  H3  UNL     1      39.026  48.720  14.392  1.00  0.00     0.177 HD
BRANCH  14  16
HETATM   16  C4  UNL     1      37.035  49.301  14.137  1.00  0.00     0.165 C 
BRANCH  16  17
HETATM   17  C5  UNL     1      36.203  48.672  15.228  1.00  0.00     0.249 C 
BRANCH  17  18
HETATM   18  N4  UNL     1      37.091  48.189  16.266  1.00  0.00    -0.078 N 
ATOM     19  H43 UNL     1      37.980  47.852  15.895  1.00  0.00     0.274 HD
ATOM     20  H42 UNL     1      37.459  48.942  16.848  1.00  0.00     0.274 HD
ATOM     21  H41 UNL     1      36.600  47.479  16.809  1.00  0.00     0.274 HD
ENDBRANCH  17  18
ENDBRANCH  16  17
ENDBRANCH  14  16
ENDBRANCH   4  14
BRANCH   1  22
HETATM   22  N1  UNL     1      39.630  47.570   9.593  1.00  0.00    -0.379 N 
HETATM   23  C1  UNL     1      40.281  48.842   9.377  1.00  0.00     0.147 C 
ATOM     24  H1  UNL     1      39.601  46.897   8.828  1.00  0.00     0.160 HD
ENDBRANCH   1  22
BRANCH   9  25
HETATM   25  N6  UNL     1      39.229  44.863   8.678  1.00  0.00    -0.290 N 
ATOM     26  H6  UNL     1      40.212  44.989   8.437  1.00  0.00     0.188 HD
BRANCH  25  27
HETATM   27  N7  UNL     1      38.168  44.681   7.760  1.00  0.00    -0.344 N 
ATOM     28  H72 UNL     1      37.205  44.463   8.015  1.00  0.00     0.176 HD
ATOM     29  H71 UNL     1      38.535  44.807   6.817  1.00  0.00     0.176 HD
ENDBRANCH  25  27
ENDBRANCH   9  25
TORSDOF 7
ENDMDL
MODEL 5
REMARK VINA RESULT: -5.134787944      3.860      4.888
REMARK  7 active torsions:
REMARK  status: ('A' for Active; 'I' for Inactive)
REMARK    1  A    between atoms: N1_2  and  C2_4 
REMARK    2  A    between atoms: C3_7  and  N3_8 
REMARK    3  A    between atoms: N3_8  and  C4_10 
REMARK    4  A    between atoms: C4_10  and  C5_11 
REMARK    5  A    between atoms: C5_11  and  N4_12 
REMARK    6  A    between atoms: C8_20  and  N6_21 
REMARK    7  A    between atoms: N6_21  and  N7_23 
ROOT
HETATM    1  C2  UNL     1      34.174  46.883  13.103  1.00  0.00     0.134 A 
HETATM    2  N2  UNL     1      34.593  47.365  14.269  1.00  0.00    -0.176 N 
ATOM      3  H2  UNL     1      34.033  48.087  14.723  1.00  0.00     0.186 HD
HETATM    4  C3  UNL     1      35.716  46.950  14.882  1.00  0.00     0.681 A 
HETATM    5  N5  UNL     1      36.465  46.002  14.302  1.00  0.00    -0.174 N 
ATOM      6  H5  UNL     1      37.319  45.683  14.761  1.00  0.00     0.186 HD
HETATM    7  C6  UNL     1      36.107  45.466  13.123  1.00  0.00     0.155 A 
HETATM    8  C7  UNL     1      34.957  45.895  12.500  1.00  0.00     0.101 A 
HETATM    9  C8  UNL     1      34.841  45.183  11.325  1.00  0.00     0.152 A 
HETATM   10  N8  UNL     1      35.889  44.364  11.264  1.00  0.00    -0.280 N 
ATOM     11  H8  UNL     1      36.071  43.711  10.502  1.00  0.00     0.189 HD
HETATM   12  N9  UNL     1      36.661  44.511  12.321  1.00  0.00    -0.278 N 
HETATM   13  C9  UNL     1      37.901  43.815  12.646  1.00  0.00     0.179 C 
ENDROOT
BRANCH   4  14
HETATM   14  N3  UNL     1      36.029  47.474  15.994  1.00  0.00    -0.224 N 
ATOM     15  H3  UNL     1      36.768  47.010  16.521  1.00  0.00     0.177 HD
BRANCH  14  16
HETATM   16  C4  UNL     1      35.462  48.639  16.589  1.00  0.00     0.165 C 
BRANCH  16  17
HETATM   17  C5  UNL     1      36.055  48.971  17.937  1.00  0.00     0.249 C 
BRANCH  17  18
HETATM   18  N4  UNL     1      37.468  48.647  17.912  1.00  0.00    -0.078 N 
ATOM     19  H43 UNL     1      37.640  47.663  17.708  1.00  0.00     0.274 HD
ATOM     20  H42 UNL     1      37.946  49.044  17.102  1.00  0.00     0.274 HD
ATOM     21  H41 UNL     1      37.884  48.942  18.796  1.00  0.00     0.274 HD
ENDBRANCH  17  18
ENDBRANCH  16  17
ENDBRANCH  14  16
ENDBRANCH   4  14
BRANCH   1  22
HETATM   22  N1  UNL     1      33.125  47.239  12.484  1.00  0.00    -0.379 N 
HETATM   23  C1  UNL     1      31.803  47.075  13.043  1.00  0.00     0.147 C 
ATOM     24  H1  UNL     1      33.218  47.656  11.558  1.00  0.00     0.160 HD
ENDBRANCH   1  22
BRANCH   9  25
HETATM   25  N6  UNL     1      33.757  45.352  10.395  1.00  0.00    -0.290 N 
ATOM     26  H6  UNL     1      32.957  45.973  10.517  1.00  0.00     0.188 HD
BRANCH  25  27
HETATM   27  N7  UNL     1      33.990  44.512   9.281  1.00  0.00    -0.344 N 
ATOM     28  H72 UNL     1      34.894  44.377   8.828  1.00  0.00     0.176 HD
ATOM     29  H71 UNL     1      33.107  44.073   9.020  1.00  0.00     0.176 HD
ENDBRANCH  25  27
ENDBRANCH   9  25
TORSDOF 7
ENDMDL
