MODEL 1
REMARK VINA RESULT: -8.727059722      0.000      0.000
REMARK  3 active torsions:
REMARK  status: ('A' for Active; 'I' for Inactive)
REMARK    1  A    between atoms: N1_1  and  C1_4 
REMARK    2  A    between atoms: C7_11  and  N3_12 
REMARK    3  A    between atoms: N3_12  and  C8_14 
ROOT
HETATM    1  C1  UNL     1      40.443  52.078  81.404  1.00  0.00     0.099 A 
HETATM    2  C2  UNL     1      40.148  53.353  81.857  1.00  0.00     0.049 A 
HETATM    3  C3  UNL     1      39.219  54.125  81.194  1.00  0.00     0.019 A 
HETATM    4  C4  UNL     1      38.601  53.592  80.081  1.00  0.00     0.017 A 
HETATM    5  C5  UNL     1      37.668  54.336  79.397  1.00  0.00     0.061 A 
HETATM    6  N2  UNL     1      37.365  55.647  79.864  1.00  0.00    -0.101 NA
HETATM    7  C6  UNL     1      37.042  53.816  78.281  1.00  0.00     0.059 A 
HETATM    8  C7  UNL     1      37.368  52.528  77.859  1.00  0.00     0.062 A 
HETATM    9  C10 UNL     1      38.298  51.772  78.531  1.00  0.00     0.100 A 
HETATM   10  N5  UNL     1      38.609  50.472  78.082  1.00  0.00    -0.098 NA
HETATM   11  C11 UNL     1      38.916  52.298  79.640  1.00  0.00     0.072 A 
HETATM   12  N6  UNL     1      39.822  51.585  80.312  1.00  0.00    -0.341 N 
ATOM     13  H6  UNL     1      40.050  50.644  79.992  1.00  0.00     0.167 HD
ENDROOT
BRANCH   8  14
HETATM   14  N3  UNL     1      36.744  51.965  76.718  1.00  0.00    -0.334 N 
ATOM     15  H3  UNL     1      36.779  50.956  76.576  1.00  0.00     0.168 HD
BRANCH  14  16
HETATM   16  C8  UNL     1      36.114  52.724  75.833  1.00  0.00     0.157 A 
HETATM   17  N4  UNL     1      36.568  53.059  74.635  1.00  0.00    -0.321 N 
HETATM   18  C9  UNL     1      35.854  53.820  73.839  1.00  0.00     0.151 A 
ATOM     19  H4  UNL     1      37.481  52.723  74.329  1.00  0.00     0.169 HD
HETATM   20  S1  UNL     1      36.315  54.312  72.307  1.00  0.00    -0.052 SA
HETATM   21  S2  UNL     1      34.336  54.340  74.427  1.00  0.00    -0.020 SA
HETATM   22  S3  UNL     1      34.575  53.337  76.252  1.00  0.00    -0.014 SA
ENDBRANCH  14  16
ENDBRANCH   8  14
BRANCH   1  23
HETATM   23  N1  UNL     1      41.317  51.373  82.039  1.00  0.00    -0.385 N 
ATOM     24  H12 UNL     1      41.024  50.672  82.720  1.00  0.00     0.157 HD
ATOM     25  H11 UNL     1      42.307  51.523  81.850  1.00  0.00     0.157 HD
ENDBRANCH   1  23
TORSDOF 3
ENDMDL
MODEL 2
REMARK VINA RESULT: -8.413377706      1.849      2.614
REMARK  3 active torsions:
REMARK  status: ('A' for Active; 'I' for Inactive)
REMARK    1  A    between atoms: N1_1  and  C1_4 
REMARK    2  A    between atoms: C7_11  and  N3_12 
REMARK    3  A    between atoms: N3_12  and  C8_14 
ROOT
HETATM    1  C1  UNL     1      40.342  52.036  81.332  1.00  0.00     0.099 A 
HETATM    2  C2  UNL     1      39.983  53.270  81.849  1.00  0.00     0.049 A 
HETATM    3  C3  UNL     1      39.050  54.048  81.198  1.00  0.00     0.019 A 
HETATM    4  C4  UNL     1      38.496  53.563  80.030  1.00  0.00     0.017 A 
HETATM    5  C5  UNL     1      37.562  54.314  79.356  1.00  0.00     0.061 A 
HETATM    6  N2  UNL     1      37.192  55.582  79.889  1.00  0.00    -0.101 NA
HETATM    7  C6  UNL     1      36.998  53.841  78.187  1.00  0.00     0.059 A 
HETATM    8  C7  UNL     1      37.388  52.595  77.701  1.00  0.00     0.062 A 
HETATM    9  C10 UNL     1      38.320  51.832  78.364  1.00  0.00     0.100 A 
HETATM   10  N5  UNL     1      38.696  50.574  77.850  1.00  0.00    -0.098 NA
HETATM   11  C11 UNL     1      38.875  52.311  79.526  1.00  0.00     0.072 A 
HETATM   12  N6  UNL     1      39.782  51.590  80.189  1.00  0.00    -0.341 N 
ATOM     13  H6  UNL     1      40.058  50.678  79.822  1.00  0.00     0.167 HD
ENDROOT
BRANCH   8  14
HETATM   14  N3  UNL     1      36.829  52.081  76.505  1.00  0.00    -0.334 N 
ATOM     15  H3  UNL     1      37.261  52.313  75.611  1.00  0.00     0.168 HD
BRANCH  14  16
HETATM   16  C8  UNL     1      35.755  51.304  76.525  1.00  0.00     0.157 A 
HETATM   17  N4  UNL     1      35.754  49.981  76.541  1.00  0.00    -0.321 N 
HETATM   18  C9  UNL     1      34.625  49.313  76.561  1.00  0.00     0.151 A 
ATOM     19  H4  UNL     1      36.641  49.475  76.539  1.00  0.00     0.169 HD
HETATM   20  S1  UNL     1      34.491  47.645  76.583  1.00  0.00    -0.052 SA
HETATM   21  S2  UNL     1      33.186  50.234  76.566  1.00  0.00    -0.020 SA
HETATM   22  S3  UNL     1      34.221  52.057  76.532  1.00  0.00    -0.014 SA
ENDBRANCH  14  16
ENDBRANCH   8  14
BRANCH   1  23
HETATM   23  N1  UNL     1      41.218  51.324  81.958  1.00  0.00    -0.385 N 
ATOM     24  H12 UNL     1      41.213  50.307  81.880  1.00  0.00     0.157 HD
ATOM     25  H11 UNL     1      41.918  51.792  82.533  1.00  0.00     0.157 HD
ENDBRANCH   1  23
TORSDOF 3
ENDMDL
MODEL 3
REMARK VINA RESULT: -7.913746346      3.187      4.159
REMARK  3 active torsions:
REMARK  status: ('A' for Active; 'I' for Inactive)
REMARK    1  A    between atoms: N1_1  and  C1_4 
REMARK    2  A    between atoms: C7_11  and  N3_12 
REMARK    3  A    between atoms: N3_12  and  C8_14 
ROOT
HETATM    1  C1  UNL     1      38.911  53.397  80.109  1.00  0.00     0.099 A 
HETATM    2  C2  UNL     1      38.086  54.509  80.074  1.00  0.00     0.049 A 
HETATM    3  C3  UNL     1      37.068  54.585  79.147  1.00  0.00     0.019 A 
HETATM    4  C4  UNL     1      36.902  53.531  78.271  1.00  0.00     0.017 A 
HETATM    5  C5  UNL     1      35.895  53.575  77.335  1.00  0.00     0.061 A 
HETATM    6  N2  UNL     1      35.047  54.719  77.299  1.00  0.00    -0.101 NA
HETATM    7  C6  UNL     1      35.717  52.528  76.452  1.00  0.00     0.059 A 
HETATM    8  C7  UNL     1      36.570  51.429  76.523  1.00  0.00     0.062 A 
HETATM    9  C10 UNL     1      37.581  51.369  77.452  1.00  0.00     0.100 A 
HETATM   10  N5  UNL     1      38.430  50.244  77.501  1.00  0.00    -0.098 NA
HETATM   11  C11 UNL     1      37.750  52.416  78.326  1.00  0.00     0.072 A 
HETATM   12  N6  UNL     1      38.724  52.383  79.239  1.00  0.00    -0.341 N 
ATOM     13  H6  UNL     1      39.340  51.572  79.280  1.00  0.00     0.167 HD
ENDROOT
BRANCH   8  14
HETATM   14  N3  UNL     1      36.414  50.338  75.631  1.00  0.00    -0.334 N 
ATOM     15  H3  UNL     1      36.844  50.381  74.708  1.00  0.00     0.168 HD
BRANCH  14  16
HETATM   16  C8  UNL     1      35.720  49.262  75.975  1.00  0.00     0.157 A 
HETATM   17  N4  UNL     1      36.204  48.182  76.565  1.00  0.00    -0.321 N 
HETATM   18  C9  UNL     1      35.419  47.173  76.860  1.00  0.00     0.151 A 
ATOM     19  H4  UNL     1      37.197  48.133  76.794  1.00  0.00     0.169 HD
HETATM   20  S1  UNL     1      35.909  45.756  77.605  1.00  0.00    -0.052 SA
HETATM   21  S2  UNL     1      33.769  47.334  76.446  1.00  0.00    -0.020 SA
HETATM   22  S3  UNL     1      34.045  49.247  75.635  1.00  0.00    -0.014 SA
ENDBRANCH  14  16
ENDBRANCH   8  14
BRANCH   1  23
HETATM   23  N1  UNL     1      39.859  53.347  80.984  1.00  0.00    -0.385 N 
ATOM     24  H12 UNL     1      39.938  54.063  81.707  1.00  0.00     0.157 HD
ATOM     25  H11 UNL     1      40.530  52.580  80.945  1.00  0.00     0.157 HD
ENDBRANCH   1  23
TORSDOF 3
ENDMDL
MODEL 4
REMARK VINA RESULT: -7.886877020      2.179      3.724
REMARK  3 active torsions:
REMARK  status: ('A' for Active; 'I' for Inactive)
REMARK    1  A    between atoms: N1_1  and  C1_4 
REMARK    2  A    between atoms: C7_11  and  N3_12 
REMARK    3  A    between atoms: N3_12  and  C8_14 
ROOT
HETATM    1  C1  UNL     1      38.222  53.814  79.569  1.00  0.00     0.099 A 
HETATM    2  C2  UNL     1      38.903  52.611  79.487  1.00  0.00     0.049 A 
HETATM    3  C3  UNL     1      38.504  51.651  78.582  1.00  0.00     0.019 A 
HETATM    4  C4  UNL     1      37.419  51.926  77.774  1.00  0.00     0.017 A 
HETATM    5  C5  UNL     1      36.995  50.989  76.861  1.00  0.00     0.061 A 
HETATM    6  N2  UNL     1      37.696  49.752  76.776  1.00  0.00    -0.101 NA
HETATM    7  C6  UNL     1      35.911  51.250  76.045  1.00  0.00     0.059 A 
HETATM    8  C7  UNL     1      35.254  52.473  76.162  1.00  0.00     0.062 A 
HETATM    9  C10 UNL     1      35.665  53.420  77.069  1.00  0.00     0.100 A 
HETATM   10  N5  UNL     1      34.982  54.649  77.165  1.00  0.00    -0.098 NA
HETATM   11  C11 UNL     1      36.744  53.151  77.876  1.00  0.00     0.072 A 
HETATM   12  N6  UNL     1      37.165  54.053  78.765  1.00  0.00    -0.341 N 
ATOM     13  H6  UNL     1      36.675  54.945  78.839  1.00  0.00     0.167 HD
ENDROOT
BRANCH   8  14
HETATM   14  N3  UNL     1      34.138  52.772  75.340  1.00  0.00    -0.334 N 
ATOM     15  H3  UNL     1      33.216  52.427  75.604  1.00  0.00     0.168 HD
BRANCH  14  16
HETATM   16  C8  UNL     1      34.271  53.492  74.235  1.00  0.00     0.157 A 
HETATM   17  N4  UNL     1      34.072  54.796  74.130  1.00  0.00    -0.321 N 
HETATM   18  C9  UNL     1      34.234  55.406  72.979  1.00  0.00     0.151 A 
ATOM     19  H4  UNL     1      33.791  55.332  74.951  1.00  0.00     0.169 HD
HETATM   20  S1  UNL     1      34.014  57.044  72.717  1.00  0.00    -0.052 SA
HETATM   21  S2  UNL     1      34.708  54.437  71.654  1.00  0.00    -0.020 SA
HETATM   22  S3  UNL     1      34.740  52.685  72.804  1.00  0.00    -0.014 SA
ENDBRANCH  14  16
ENDBRANCH   8  14
BRANCH   1  23
HETATM   23  N1  UNL     1      38.612  54.699  80.423  1.00  0.00    -0.385 N 
ATOM     24  H12 UNL     1      38.994  54.418  81.327  1.00  0.00     0.157 HD
ATOM     25  H11 UNL     1      38.536  55.687  80.184  1.00  0.00     0.157 HD
ENDBRANCH   1  23
TORSDOF 3
ENDMDL
MODEL 5
REMARK VINA RESULT: -7.857970382      1.867      3.316
REMARK  3 active torsions:
REMARK  status: ('A' for Active; 'I' for Inactive)
REMARK    1  A    between atoms: N1_1  and  C1_4 
REMARK    2  A    between atoms: C7_11  and  N3_12 
REMARK    3  A    between atoms: N3_12  and  C8_14 
ROOT
HETATM    1  C1  UNL     1      38.568  53.618  79.880  1.00  0.00     0.099 A 
HETATM    2  C2  UNL     1      39.185  52.390  79.708  1.00  0.00     0.049 A 
HETATM    3  C3  UNL     1      38.729  51.515  78.746  1.00  0.00     0.019 A 
HETATM    4  C4  UNL     1      37.653  51.900  77.971  1.00  0.00     0.017 A 
HETATM    5  C5  UNL     1      37.174  51.050  77.001  1.00  0.00     0.061 A 
HETATM    6  N2  UNL     1      37.809  49.788  76.825  1.00  0.00    -0.101 NA
HETATM    7  C6  UNL     1      36.098  51.422  76.217  1.00  0.00     0.059 A 
HETATM    8  C7  UNL     1      35.507  52.667  76.423  1.00  0.00     0.062 A 
HETATM    9  C10 UNL     1      35.974  53.527  77.388  1.00  0.00     0.100 A 
HETATM   10  N5  UNL     1      35.357  54.781  77.575  1.00  0.00    -0.098 NA
HETATM   11  C11 UNL     1      37.045  53.148  78.162  1.00  0.00     0.072 A 
HETATM   12  N6  UNL     1      37.518  53.965  79.106  1.00  0.00    -0.341 N 
ATOM     13  H6  UNL     1      37.076  54.874  79.245  1.00  0.00     0.167 HD
ENDROOT
BRANCH   8  14
HETATM   14  N3  UNL     1      34.402  53.078  75.636  1.00  0.00    -0.334 N 
ATOM     15  H3  UNL     1      33.457  52.845  75.940  1.00  0.00     0.168 HD
BRANCH  14  16
HETATM   16  C8  UNL     1      34.574  53.760  74.512  1.00  0.00     0.157 A 
HETATM   17  N4  UNL     1      35.693  53.828  73.809  1.00  0.00    -0.321 N 
HETATM   18  C9  UNL     1      35.747  54.537  72.706  1.00  0.00     0.151 A 
ATOM     19  H4  UNL     1      36.521  53.324  74.127  1.00  0.00     0.169 HD
HETATM   20  S1  UNL     1      37.097  54.702  71.731  1.00  0.00    -0.052 SA
HETATM   21  S2  UNL     1      34.317  55.348  72.242  1.00  0.00    -0.020 SA
HETATM   22  S3  UNL     1      33.243  54.637  73.896  1.00  0.00    -0.014 SA
ENDBRANCH  14  16
ENDBRANCH   8  14
BRANCH   1  23
HETATM   23  N1  UNL     1      39.011  54.421  80.787  1.00  0.00    -0.385 N 
ATOM     24  H12 UNL     1      39.942  54.296  81.184  1.00  0.00     0.157 HD
ATOM     25  H11 UNL     1      38.417  55.187  81.104  1.00  0.00     0.157 HD
ENDBRANCH   1  23
TORSDOF 3
ENDMDL
