MODEL 1
REMARK VINA RESULT: -7.087093263      0.000      0.000
REMARK  2 active torsions:
REMARK  status: ('A' for Active; 'I' for Inactive)
REMARK    1  A    between atoms: C2_2  and  N1_5 
REMARK    2  A    between atoms: C9_17  and  N5_18 
ROOT
HETATM    1  N1  UNL     1      35.874  49.805  75.037  1.00  0.00    -0.331 N 
HETATM    2  C5  UNL     1      34.929  49.705  74.003  1.00  0.00     0.184 A 
HETATM    3  N2  UNL     1      34.230  50.822  73.850  1.00  0.00    -0.348 N 
ATOM      4  H2  UNL     1      33.490  50.991  73.168  1.00  0.00     0.167 HD
HETATM    5  C6  UNL     1      34.683  51.678  74.758  1.00  0.00     0.100 A 
HETATM    6  C7  UNL     1      34.307  52.957  75.049  1.00  0.00     0.131 A 
HETATM    7  S1  UNL     1      33.098  53.615  74.137  1.00  0.00    -0.058 SA
HETATM    8  N3  UNL     1      34.866  53.664  76.013  1.00  0.00    -0.331 N 
ATOM      9  H3  UNL     1      34.562  54.618  76.207  1.00  0.00     0.168 HD
HETATM   10  C8  UNL     1      35.849  53.092  76.732  1.00  0.00     0.124 A 
HETATM   11  N4  UNL     1      36.419  53.831  77.697  1.00  0.00    -0.327 N 
ATOM     12  H4  UNL     1      36.090  54.782  77.866  1.00  0.00     0.169 HD
HETATM   13  C9  UNL     1      37.406  53.337  78.434  1.00  0.00     0.125 A 
HETATM   14  C10 UNL     1      37.875  52.077  78.240  1.00  0.00     0.139 A 
HETATM   15  C11 UNL     1      38.955  51.547  79.052  1.00  0.00     0.107 C 
HETATM   16  N6  UNL     1      39.833  51.138  79.727  1.00  0.00    -0.191 NA
HETATM   17  C12 UNL     1      37.309  51.261  77.240  1.00  0.00     0.212 A 
HETATM   18  O1  UNL     1      37.867  50.096  77.175  1.00  0.00    -0.286 OA
HETATM   19  C13 UNL     1      36.298  51.799  76.509  1.00  0.00     0.089 A 
HETATM   20  C14 UNL     1      35.702  51.047  75.491  1.00  0.00     0.084 A 
ENDROOT
BRANCH  13  21
HETATM   21  N5  UNL     1      37.951  54.053  79.370  1.00  0.00    -0.384 N 
ATOM     22  H52 UNL     1      37.454  54.146  80.256  1.00  0.00     0.157 HD
ATOM     23  H51 UNL     1      38.851  54.509  79.215  1.00  0.00     0.157 HD
ENDBRANCH  13  21
BRANCH   1  24
HETATM   24  C2  UNL     1      36.691  48.710  75.401  1.00  0.00     0.027 C 
HETATM   25  C1  UNL     1      38.090  48.624  74.842  1.00  0.00     0.038 C 
HETATM   26  C3  UNL     1      36.159  47.598  74.358  1.00  0.00     0.038 C 
HETATM   27  C4  UNL     1      36.345  47.839  76.590  1.00  0.00     0.038 C 
ENDBRANCH   1  24
TORSDOF 2
ENDMDL
MODEL 2
REMARK VINA RESULT: -6.301660738      2.243      4.096
REMARK  2 active torsions:
REMARK  status: ('A' for Active; 'I' for Inactive)
REMARK    1  A    between atoms: C2_2  and  N1_5 
REMARK    2  A    between atoms: C9_17  and  N5_18 
ROOT
HETATM    1  N1  UNL     1      35.337  51.958  75.328  1.00  0.00    -0.331 N 
HETATM    2  C5  UNL     1      34.876  51.061  74.350  1.00  0.00     0.184 A 
HETATM    3  N2  UNL     1      35.493  49.888  74.412  1.00  0.00    -0.348 N 
ATOM      4  H2  UNL     1      35.332  49.081  73.809  1.00  0.00     0.167 HD
HETATM    5  C6  UNL     1      36.361  49.972  75.412  1.00  0.00     0.100 A 
HETATM    6  C7  UNL     1      37.259  49.066  75.897  1.00  0.00     0.131 A 
HETATM    7  S1  UNL     1      37.308  47.587  75.166  1.00  0.00    -0.058 SA
HETATM    8  N3  UNL     1      38.067  49.330  76.906  1.00  0.00    -0.331 N 
ATOM      9  H3  UNL     1      38.729  48.631  77.244  1.00  0.00     0.168 HD
HETATM   10  C8  UNL     1      37.995  50.547  77.476  1.00  0.00     0.124 A 
HETATM   11  N4  UNL     1      38.813  50.793  78.512  1.00  0.00    -0.327 N 
ATOM     12  H4  UNL     1      39.463  50.072  78.825  1.00  0.00     0.169 HD
HETATM   13  C9  UNL     1      38.783  51.966  79.133  1.00  0.00     0.125 A 
HETATM   14  C10 UNL     1      37.931  52.951  78.749  1.00  0.00     0.139 A 
HETATM   15  C11 UNL     1      37.907  54.229  79.436  1.00  0.00     0.107 C 
HETATM   16  N6  UNL     1      37.908  55.262  80.009  1.00  0.00    -0.191 NA
HETATM   17  C12 UNL     1      37.053  52.742  77.666  1.00  0.00     0.212 A 
HETATM   18  O1  UNL     1      36.303  53.768  77.430  1.00  0.00    -0.286 OA
HETATM   19  C13 UNL     1      37.115  51.531  77.053  1.00  0.00     0.089 A 
HETATM   20  C14 UNL     1      36.261  51.253  75.980  1.00  0.00     0.084 A 
ENDROOT
BRANCH  13  21
HETATM   21  N5  UNL     1      39.579  52.202  80.132  1.00  0.00    -0.384 N 
ATOM     22  H52 UNL     1      40.334  52.875  79.996  1.00  0.00     0.157 HD
ATOM     23  H51 UNL     1      39.447  51.723  81.022  1.00  0.00     0.157 HD
ENDBRANCH  13  21
BRANCH   1  24
HETATM   24  C2  UNL     1      34.846  53.282  75.406  1.00  0.00     0.027 C 
HETATM   25  C1  UNL     1      34.099  53.712  76.645  1.00  0.00     0.038 C 
HETATM   26  C3  UNL     1      33.470  53.127  74.577  1.00  0.00     0.038 C 
HETATM   27  C4  UNL     1      35.353  54.359  74.470  1.00  0.00     0.038 C 
ENDBRANCH   1  24
TORSDOF 2
ENDMDL
MODEL 3
REMARK VINA RESULT: -5.287499956      1.280      1.883
REMARK  2 active torsions:
REMARK  status: ('A' for Active; 'I' for Inactive)
REMARK    1  A    between atoms: C2_2  and  N1_5 
REMARK    2  A    between atoms: C9_17  and  N5_18 
ROOT
HETATM    1  N1  UNL     1      35.603  48.784  74.713  1.00  0.00    -0.331 N 
HETATM    2  C5  UNL     1      34.843  48.118  73.738  1.00  0.00     0.184 A 
HETATM    3  N2  UNL     1      33.824  48.850  73.306  1.00  0.00    -0.348 N 
ATOM      4  H2  UNL     1      33.134  48.583  72.604  1.00  0.00     0.167 HD
HETATM    5  C6  UNL     1      33.879  49.998  73.969  1.00  0.00     0.100 A 
HETATM    6  C7  UNL     1      33.068  51.095  73.927  1.00  0.00     0.131 A 
HETATM    7  S1  UNL     1      31.794  51.053  72.879  1.00  0.00    -0.058 SA
HETATM    8  N3  UNL     1      33.268  52.160  74.681  1.00  0.00    -0.331 N 
ATOM      9  H3  UNL     1      32.642  52.964  74.627  1.00  0.00     0.168 HD
HETATM   10  C8  UNL     1      34.318  52.156  75.521  1.00  0.00     0.124 A 
HETATM   11  N4  UNL     1      34.517  53.254  76.268  1.00  0.00    -0.327 N 
ATOM     12  H4  UNL     1      33.872  54.040  76.192  1.00  0.00     0.169 HD
HETATM   13  C9  UNL     1      35.544  53.325  77.107  1.00  0.00     0.125 A 
HETATM   14  C10 UNL     1      36.426  52.301  77.237  1.00  0.00     0.139 A 
HETATM   15  C11 UNL     1      37.545  52.391  78.157  1.00  0.00     0.107 C 
HETATM   16  N6  UNL     1      38.446  52.487  78.913  1.00  0.00    -0.191 NA
HETATM   17  C12 UNL     1      36.260  51.126  76.476  1.00  0.00     0.212 A 
HETATM   18  O1  UNL     1      37.183  50.251  76.708  1.00  0.00    -0.286 OA
HETATM   19  C13 UNL     1      35.196  51.088  75.632  1.00  0.00     0.089 A 
HETATM   20  C14 UNL     1      34.982  49.957  74.837  1.00  0.00     0.084 A 
ENDROOT
BRANCH  13  21
HETATM   21  N5  UNL     1      35.729  54.387  77.831  1.00  0.00    -0.384 N 
ATOM     22  H52 UNL     1      35.124  55.192  77.667  1.00  0.00     0.157 HD
ATOM     23  H51 UNL     1      36.461  54.408  78.540  1.00  0.00     0.157 HD
ENDBRANCH  13  21
BRANCH   1  24
HETATM   24  C2  UNL     1      36.707  48.163  75.342  1.00  0.00     0.027 C 
HETATM   25  C1  UNL     1      38.099  48.474  74.849  1.00  0.00     0.038 C 
HETATM   26  C3  UNL     1      36.707  46.740  74.577  1.00  0.00     0.038 C 
HETATM   27  C4  UNL     1      36.562  47.498  76.694  1.00  0.00     0.038 C 
ENDBRANCH   1  24
TORSDOF 2
ENDMDL
MODEL 4
REMARK VINA RESULT: -5.180573817      2.641      4.342
REMARK  2 active torsions:
REMARK  status: ('A' for Active; 'I' for Inactive)
REMARK    1  A    between atoms: C2_2  and  N1_5 
REMARK    2  A    between atoms: C9_17  and  N5_18 
ROOT
HETATM    1  N1  UNL     1      34.129  49.985  73.812  1.00  0.00    -0.331 N 
HETATM    2  C5  UNL     1      34.124  48.788  73.078  1.00  0.00     0.184 A 
HETATM    3  N2  UNL     1      35.127  47.987  73.414  1.00  0.00    -0.348 N 
ATOM      4  H2  UNL     1      35.333  47.068  73.022  1.00  0.00     0.167 HD
HETATM    5  C6  UNL     1      35.810  48.617  74.362  1.00  0.00     0.100 A 
HETATM    6  C7  UNL     1      36.936  48.257  75.043  1.00  0.00     0.131 A 
HETATM    7  S1  UNL     1      37.598  46.788  74.685  1.00  0.00    -0.058 SA
HETATM    8  N3  UNL     1      37.496  49.028  75.956  1.00  0.00    -0.331 N 
ATOM      9  H3  UNL     1      38.339  48.731  76.448  1.00  0.00     0.168 HD
HETATM   10  C8  UNL     1      36.924  50.217  76.221  1.00  0.00     0.124 A 
HETATM   11  N4  UNL     1      37.497  50.982  77.164  1.00  0.00    -0.327 N 
ATOM     12  H4  UNL     1      38.340  50.655  77.636  1.00  0.00     0.169 HD
HETATM   13  C9  UNL     1      36.977  52.160  77.488  1.00  0.00     0.125 A 
HETATM   14  C10 UNL     1      35.854  52.630  76.885  1.00  0.00     0.139 A 
HETATM   15  C11 UNL     1      35.295  53.919  77.247  1.00  0.00     0.107 C 
HETATM   16  N6  UNL     1      34.860  54.972  77.558  1.00  0.00    -0.191 NA
HETATM   17  C12 UNL     1      35.217  51.865  75.887  1.00  0.00     0.212 A 
HETATM   18  O1  UNL     1      34.161  52.445  75.417  1.00  0.00    -0.286 OA
HETATM   19  C13 UNL     1      35.780  50.668  75.579  1.00  0.00     0.089 A 
HETATM   20  C14 UNL     1      35.189  49.853  74.608  1.00  0.00     0.084 A 
ENDROOT
BRANCH  13  21
HETATM   21  N5  UNL     1      37.536  52.898  78.398  1.00  0.00    -0.384 N 
ATOM     22  H52 UNL     1      37.269  53.882  78.449  1.00  0.00     0.157 HD
ATOM     23  H51 UNL     1      38.223  52.499  79.037  1.00  0.00     0.157 HD
ENDBRANCH  13  21
BRANCH   1  24
HETATM   24  C2  UNL     1      33.173  51.001  73.575  1.00  0.00     0.027 C 
HETATM   25  C1  UNL     1      31.934  51.053  74.434  1.00  0.00     0.038 C 
HETATM   26  C3  UNL     1      32.351  50.341  72.352  1.00  0.00     0.038 C 
HETATM   27  C4  UNL     1      33.522  52.223  72.753  1.00  0.00     0.038 C 
ENDBRANCH   1  24
TORSDOF 2
ENDMDL
MODEL 5
REMARK VINA RESULT: -5.179768244      5.356      7.702
REMARK  2 active torsions:
REMARK  status: ('A' for Active; 'I' for Inactive)
REMARK    1  A    between atoms: C2_2  and  N1_5 
REMARK    2  A    between atoms: C9_17  and  N5_18 
ROOT
HETATM    1  N1  UNL     1      33.796  55.847  72.768  1.00  0.00    -0.331 N 
HETATM    2  C5  UNL     1      32.914  55.380  73.756  1.00  0.00     0.184 A 
HETATM    3  N2  UNL     1      33.449  54.414  74.493  1.00  0.00    -0.348 N 
ATOM      4  H2  UNL     1      33.006  53.920  75.267  1.00  0.00     0.167 HD
HETATM    5  C6  UNL     1      34.675  54.219  74.024  1.00  0.00     0.100 A 
HETATM    6  C7  UNL     1      35.648  53.339  74.400  1.00  0.00     0.131 A 
HETATM    7  S1  UNL     1      35.306  52.330  75.661  1.00  0.00    -0.058 SA
HETATM    8  N3  UNL     1      36.822  53.273  73.802  1.00  0.00    -0.331 N 
ATOM      9  H3  UNL     1      37.528  52.603  74.106  1.00  0.00     0.168 HD
HETATM   10  C8  UNL     1      37.062  54.114  72.779  1.00  0.00     0.124 A 
HETATM   11  N4  UNL     1      38.268  54.045  72.192  1.00  0.00    -0.327 N 
ATOM     12  H4  UNL     1      38.951  53.362  72.520  1.00  0.00     0.169 HD
HETATM   13  C9  UNL     1      38.579  54.856  71.188  1.00  0.00     0.125 A 
HETATM   14  C10 UNL     1      37.699  55.779  70.723  1.00  0.00     0.139 A 
HETATM   15  C11 UNL     1      38.051  56.661  69.625  1.00  0.00     0.107 C 
HETATM   16  N6  UNL     1      38.359  57.366  68.729  1.00  0.00    -0.191 NA
HETATM   17  C12 UNL     1      36.420  55.891  71.305  1.00  0.00     0.212 A 
HETATM   18  O1  UNL     1      35.705  56.818  70.757  1.00  0.00    -0.286 OA
HETATM   19  C13 UNL     1      36.136  55.041  72.327  1.00  0.00     0.089 A 
HETATM   20  C14 UNL     1      34.889  55.109  72.958  1.00  0.00     0.084 A 
ENDROOT
BRANCH  13  21
HETATM   21  N5  UNL     1      39.744  54.782  70.620  1.00  0.00    -0.384 N 
ATOM     22  H52 UNL     1      40.033  53.885  70.230  1.00  0.00     0.157 HD
ATOM     23  H51 UNL     1      40.348  55.603  70.571  1.00  0.00     0.157 HD
ENDBRANCH  13  21
BRANCH   1  24
HETATM   24  C2  UNL     1      33.407  56.842  71.841  1.00  0.00     0.027 C 
HETATM   25  C1  UNL     1      33.782  58.278  72.110  1.00  0.00     0.038 C 
HETATM   26  C3  UNL     1      31.888  57.103  72.322  1.00  0.00     0.038 C 
HETATM   27  C4  UNL     1      32.959  56.473  70.442  1.00  0.00     0.038 C 
ENDBRANCH   1  24
TORSDOF 2
ENDMDL
