MODEL 1
REMARK VINA RESULT: -5.827285622      0.000      0.000
REMARK  7 active torsions:
REMARK  status: ('A' for Active; 'I' for Inactive)
REMARK    1  A    between atoms: C4_4  and  C5_5 
REMARK    2  A    between atoms: C5_5  and  O1_6 
REMARK    3  A    between atoms: C7_9  and  C8_10 
REMARK    4  A    between atoms: N1_11  and  O2_13 
REMARK    5  A    between atoms: C11_18  and  O4_19 
REMARK    6  A    between atoms: C12_21  and  O5_22 
REMARK    7  A    between atoms: C16_27  and  O6_28 
ROOT
HETATM    1  C5  UNL     1      34.953  50.861  75.581  1.00  0.00     0.103 C 
HETATM    2  C6  UNL     1      35.243  52.281  75.246  1.00  0.00     0.061 C 
HETATM    3  C7  UNL     1      35.860  53.198  76.278  1.00  0.00     0.089 C 
HETATM    4  C9  UNL     1      36.877  52.450  77.089  1.00  0.00     0.098 A 
HETATM    5  O3  UNL     1      36.990  51.281  76.660  1.00  0.00    -0.313 OA
HETATM    6  C10 UNL     1      37.809  50.535  77.252  1.00  0.00     0.089 A 
HETATM    7  C11 UNL     1      38.344  51.292  78.230  1.00  0.00     0.131 A 
HETATM    8  C12 UNL     1      37.733  52.561  78.129  1.00  0.00     0.132 A 
HETATM    9  C13 UNL     1      37.798  49.166  76.593  1.00  0.00     0.075 C 
HETATM   10  C14 UNL     1      37.136  49.390  75.257  1.00  0.00     0.020 C 
HETATM   11  C15 UNL     1      37.393  48.093  74.463  1.00  0.00     0.013 C 
HETATM   12  C16 UNL     1      35.794  49.782  75.039  1.00  0.00     0.160 C 
ENDROOT
BRANCH   1  13
HETATM   13  C4  UNL     1      33.658  50.610  74.757  1.00  0.00     0.015 C 
HETATM   14  C2  UNL     1      32.872  49.613  74.849  1.00  0.00    -0.088 C 
HETATM   15  C1  UNL     1      31.660  49.580  73.937  1.00  0.00     0.042 C 
HETATM   16  C3  UNL     1      33.037  48.477  75.768  1.00  0.00     0.042 C 
ENDBRANCH   1  13
BRANCH   1  17
HETATM   17  O1  UNL     1      34.440  50.669  76.868  1.00  0.00    -0.383 OA
ATOM     18  H1  UNL     1      35.066  50.030  77.187  1.00  0.00     0.211 HD
ENDBRANCH   1  17
BRANCH  12  19
HETATM   19  O6  UNL     1      35.711  50.028  73.599  1.00  0.00    -0.392 OA
ATOM     20  H6  UNL     1      35.693  50.977  73.562  1.00  0.00     0.210 HD
ENDBRANCH  12  19
BRANCH   3  21
HETATM   21  C8  UNL     1      34.921  53.838  77.193  1.00  0.00     0.098 C 
HETATM   22  N1  UNL     1      35.314  54.806  77.983  1.00  0.00    -0.283 N 
ATOM     23  H1  UNL     1      36.292  55.094  77.937  1.00  0.00     0.192 HD
BRANCH  22  24
HETATM   24  O2  UNL     1      34.504  55.447  78.857  1.00  0.00    -0.291 OA
ATOM     25  H2  UNL     1      33.985  56.212  78.639  1.00  0.00     0.244 HD
ENDBRANCH  22  24
ENDBRANCH   3  21
BRANCH   8  26
HETATM   26  O5  UNL     1      37.928  53.688  78.891  1.00  0.00    -0.356 OA
ATOM     27  H5  UNL     1      37.344  54.008  79.568  1.00  0.00     0.218 HD
ENDBRANCH   8  26
BRANCH   7  28
HETATM   28  O4  UNL     1      39.297  50.876  79.133  1.00  0.00    -0.356 OA
ATOM     29  H4  UNL     1      40.043  51.389  79.423  1.00  0.00     0.218 HD
ENDBRANCH   7  28
TORSDOF 7
ENDMDL
MODEL 2
REMARK VINA RESULT: -5.562868829      2.639      5.771
REMARK  7 active torsions:
REMARK  status: ('A' for Active; 'I' for Inactive)
REMARK    1  A    between atoms: C4_4  and  C5_5 
REMARK    2  A    between atoms: C5_5  and  O1_6 
REMARK    3  A    between atoms: C7_9  and  C8_10 
REMARK    4  A    between atoms: N1_11  and  O2_13 
REMARK    5  A    between atoms: C11_18  and  O4_19 
REMARK    6  A    between atoms: C12_21  and  O5_22 
REMARK    7  A    between atoms: C16_27  and  O6_28 
ROOT
HETATM    1  C5  UNL     1      35.529  52.611  75.529  1.00  0.00     0.103 C 
HETATM    2  C6  UNL     1      35.084  53.875  74.883  1.00  0.00     0.061 C 
HETATM    3  C7  UNL     1      35.042  53.991  73.377  1.00  0.00     0.089 C 
HETATM    4  C9  UNL     1      34.575  52.698  72.775  1.00  0.00     0.098 A 
HETATM    5  O3  UNL     1      34.286  51.884  73.679  1.00  0.00    -0.313 OA
HETATM    6  C10 UNL     1      33.883  50.751  73.317  1.00  0.00     0.089 A 
HETATM    7  C11 UNL     1      33.889  50.781  71.970  1.00  0.00     0.131 A 
HETATM    8  C12 UNL     1      34.345  52.065  71.603  1.00  0.00     0.132 A 
HETATM    9  C13 UNL     1      33.592  49.912  74.549  1.00  0.00     0.075 C 
HETATM   10  C14 UNL     1      33.500  50.908  75.678  1.00  0.00     0.020 C 
HETATM   11  C15 UNL     1      32.908  50.116  76.861  1.00  0.00     0.013 C 
HETATM   12  C16 UNL     1      34.550  51.719  76.170  1.00  0.00     0.160 C 
ENDROOT
BRANCH   1  13
HETATM   13  C4  UNL     1      36.250  53.150  76.797  1.00  0.00     0.015 C 
HETATM   14  C2  UNL     1      37.077  52.522  77.534  1.00  0.00    -0.088 C 
HETATM   15  C1  UNL     1      37.658  53.255  78.728  1.00  0.00     0.042 C 
HETATM   16  C3  UNL     1      37.521  51.135  77.330  1.00  0.00     0.042 C 
ENDBRANCH   1  13
BRANCH   1  17
HETATM   17  O1  UNL     1      36.616  51.997  74.897  1.00  0.00    -0.383 OA
ATOM     18  H1  UNL     1      36.180  51.221  74.566  1.00  0.00     0.211 HD
ENDBRANCH   1  17
BRANCH  12  19
HETATM   19  O6  UNL     1      33.904  52.618  77.128  1.00  0.00    -0.392 OA
ATOM     20  H6  UNL     1      33.151  52.106  77.400  1.00  0.00     0.210 HD
ENDBRANCH  12  19
BRANCH   3  21
HETATM   21  C8  UNL     1      36.299  54.368  72.739  1.00  0.00     0.098 C 
HETATM   22  N1  UNL     1      37.282  53.508  72.639  1.00  0.00    -0.283 N 
ATOM     23  H1  UNL     1      37.139  52.573  73.020  1.00  0.00     0.192 HD
BRANCH  22  24
HETATM   24  O2  UNL     1      38.474  53.783  72.063  1.00  0.00    -0.291 OA
ATOM     25  H2  UNL     1      38.784  53.379  71.261  1.00  0.00     0.244 HD
ENDBRANCH  22  24
ENDBRANCH   3  21
BRANCH   8  26
HETATM   26  O5  UNL     1      34.532  52.601  70.351  1.00  0.00    -0.356 OA
ATOM     27  H5  UNL     1      35.174  52.311  69.713  1.00  0.00     0.218 HD
ENDBRANCH   8  26
BRANCH   7  28
HETATM   28  O4  UNL     1      33.516  49.742  71.145  1.00  0.00    -0.356 OA
ATOM     29  H4  UNL     1      32.623  49.505  70.924  1.00  0.00     0.218 HD
ENDBRANCH   7  28
TORSDOF 7
ENDMDL
MODEL 3
REMARK VINA RESULT: -5.558340923      2.873      5.220
REMARK  7 active torsions:
REMARK  status: ('A' for Active; 'I' for Inactive)
REMARK    1  A    between atoms: C4_4  and  C5_5 
REMARK    2  A    between atoms: C5_5  and  O1_6 
REMARK    3  A    between atoms: C7_9  and  C8_10 
REMARK    4  A    between atoms: N1_11  and  O2_13 
REMARK    5  A    between atoms: C11_18  and  O4_19 
REMARK    6  A    between atoms: C12_21  and  O5_22 
REMARK    7  A    between atoms: C16_27  and  O6_28 
ROOT
HETATM    1  C5  UNL     1      35.405  53.512  74.331  1.00  0.00     0.103 C 
HETATM    2  C6  UNL     1      34.530  52.408  73.852  1.00  0.00     0.061 C 
HETATM    3  C7  UNL     1      35.053  50.991  73.788  1.00  0.00     0.089 C 
HETATM    4  C9  UNL     1      35.941  50.717  74.967  1.00  0.00     0.098 A 
HETATM    5  O3  UNL     1      35.967  51.712  75.723  1.00  0.00    -0.313 OA
HETATM    6  C10 UNL     1      36.680  51.624  76.754  1.00  0.00     0.089 A 
HETATM    7  C11 UNL     1      37.224  50.393  76.711  1.00  0.00     0.131 A 
HETATM    8  C12 UNL     1      36.741  49.785  75.532  1.00  0.00     0.132 A 
HETATM    9  C13 UNL     1      36.586  52.924  77.533  1.00  0.00     0.075 C 
HETATM   10  C14 UNL     1      35.364  53.615  76.981  1.00  0.00     0.020 C 
HETATM   11  C15 UNL     1      35.084  54.772  77.961  1.00  0.00     0.013 C 
HETATM   12  C16 UNL     1      35.198  54.101  75.663  1.00  0.00     0.160 C 
ENDROOT
BRANCH   1  13
HETATM   13  C4  UNL     1      34.915  54.696  73.451  1.00  0.00     0.015 C 
HETATM   14  C2  UNL     1      35.243  54.942  72.245  1.00  0.00    -0.088 C 
HETATM   15  C1  UNL     1      34.635  56.163  71.581  1.00  0.00     0.042 C 
HETATM   16  C3  UNL     1      36.170  54.141  71.431  1.00  0.00     0.042 C 
ENDBRANCH   1  13
BRANCH   1  17
HETATM   17  O1  UNL     1      36.727  53.430  73.881  1.00  0.00    -0.383 OA
ATOM     18  H1  UNL     1      36.852  52.491  73.946  1.00  0.00     0.211 HD
ENDBRANCH   1  17
BRANCH  12  19
HETATM   19  O6  UNL     1      33.794  54.512  75.597  1.00  0.00    -0.392 OA
ATOM     20  H6  UNL     1      33.870  55.445  75.432  1.00  0.00     0.210 HD
ENDBRANCH  12  19
BRANCH   3  21
HETATM   21  C8  UNL     1      35.781  50.642  72.572  1.00  0.00     0.098 C 
HETATM   22  N1  UNL     1      37.085  50.754  72.520  1.00  0.00    -0.283 N 
ATOM     23  H1  UNL     1      37.570  51.091  73.352  1.00  0.00     0.192 HD
BRANCH  22  24
HETATM   24  O2  UNL     1      37.828  50.452  71.431  1.00  0.00    -0.291 OA
ATOM     25  H2  UNL     1      38.663  50.857  71.227  1.00  0.00     0.244 HD
ENDBRANCH  22  24
ENDBRANCH   3  21
BRANCH   8  26
HETATM   26  O5  UNL     1      36.995  48.532  75.027  1.00  0.00    -0.356 OA
ATOM     27  H5  UNL     1      36.777  47.709  75.448  1.00  0.00     0.218 HD
ENDBRANCH   8  26
BRANCH   7  28
HETATM   28  O4  UNL     1      38.082  49.863  77.650  1.00  0.00    -0.356 OA
ATOM     29  H4  UNL     1      37.864  49.178  78.273  1.00  0.00     0.218 HD
ENDBRANCH   7  28
TORSDOF 7
ENDMDL
MODEL 4
REMARK VINA RESULT: -5.489752431      2.605      5.177
REMARK  7 active torsions:
REMARK  status: ('A' for Active; 'I' for Inactive)
REMARK    1  A    between atoms: C4_4  and  C5_5 
REMARK    2  A    between atoms: C5_5  and  O1_6 
REMARK    3  A    between atoms: C7_9  and  C8_10 
REMARK    4  A    between atoms: N1_11  and  O2_13 
REMARK    5  A    between atoms: C11_18  and  O4_19 
REMARK    6  A    between atoms: C12_21  and  O5_22 
REMARK    7  A    between atoms: C16_27  and  O6_28 
ROOT
HETATM    1  C5  UNL     1      35.285  52.663  75.313  1.00  0.00     0.103 C 
HETATM    2  C6  UNL     1      34.678  53.315  74.122  1.00  0.00     0.061 C 
HETATM    3  C7  UNL     1      35.339  53.200  72.767  1.00  0.00     0.089 C 
HETATM    4  C9  UNL     1      35.916  51.826  72.592  1.00  0.00     0.098 A 
HETATM    5  O3  UNL     1      35.648  51.119  73.587  1.00  0.00    -0.313 OA
HETATM    6  C10 UNL     1      36.076  49.938  73.578  1.00  0.00     0.089 A 
HETATM    7  C11 UNL     1      36.734  49.803  72.410  1.00  0.00     0.131 A 
HETATM    8  C12 UNL     1      36.633  51.047  71.751  1.00  0.00     0.132 A 
HETATM    9  C13 UNL     1      35.655  49.249  74.865  1.00  0.00     0.075 C 
HETATM   10  C14 UNL     1      34.554  50.116  75.422  1.00  0.00     0.020 C 
HETATM   11  C15 UNL     1      33.917  49.276  76.547  1.00  0.00     0.013 C 
HETATM   12  C16 UNL     1      34.684  51.447  75.883  1.00  0.00     0.160 C 
ENDROOT
BRANCH   1  13
HETATM   13  C4  UNL     1      34.922  53.675  76.436  1.00  0.00     0.015 C 
HETATM   14  C2  UNL     1      35.595  53.928  77.488  1.00  0.00    -0.088 C 
HETATM   15  C1  UNL     1      35.042  54.961  78.451  1.00  0.00     0.042 C 
HETATM   16  C3  UNL     1      36.872  53.298  77.857  1.00  0.00     0.042 C 
ENDBRANCH   1  13
BRANCH   1  17
HETATM   17  O1  UNL     1      36.680  52.757  75.369  1.00  0.00    -0.383 OA
ATOM     18  H1  UNL     1      36.856  52.948  74.455  1.00  0.00     0.211 HD
ENDBRANCH   1  17
BRANCH  12  19
HETATM   19  O6  UNL     1      33.311  51.882  76.144  1.00  0.00    -0.392 OA
ATOM     20  H6  UNL     1      33.437  52.789  76.398  1.00  0.00     0.210 HD
ENDBRANCH  12  19
BRANCH   3  21
HETATM   21  C8  UNL     1      36.386  54.179  72.492  1.00  0.00     0.098 C 
HETATM   22  N1  UNL     1      37.637  53.915  72.777  1.00  0.00    -0.283 N 
ATOM     23  H1  UNL     1      37.852  53.010  73.195  1.00  0.00     0.192 HD
BRANCH  22  24
HETATM   24  O2  UNL     1      38.662  54.769  72.552  1.00  0.00    -0.291 OA
ATOM     25  H2  UNL     1      39.269  54.693  71.826  1.00  0.00     0.244 HD
ENDBRANCH  22  24
ENDBRANCH   3  21
BRANCH   8  26
HETATM   26  O5  UNL     1      37.132  51.432  70.530  1.00  0.00    -0.356 OA
ATOM     27  H5  UNL     1      37.597  50.873  69.918  1.00  0.00     0.218 HD
ENDBRANCH   8  26
BRANCH   7  28
HETATM   28  O4  UNL     1      37.369  48.660  71.976  1.00  0.00    -0.356 OA
ATOM     29  H4  UNL     1      37.923  48.594  71.207  1.00  0.00     0.218 HD
ENDBRANCH   7  28
TORSDOF 7
ENDMDL
MODEL 5
REMARK VINA RESULT: -5.364181406      2.048      3.920
REMARK  7 active torsions:
REMARK  status: ('A' for Active; 'I' for Inactive)
REMARK    1  A    between atoms: C4_4  and  C5_5 
REMARK    2  A    between atoms: C5_5  and  O1_6 
REMARK    3  A    between atoms: C7_9  and  C8_10 
REMARK    4  A    between atoms: N1_11  and  O2_13 
REMARK    5  A    between atoms: C11_18  and  O4_19 
REMARK    6  A    between atoms: C12_21  and  O5_22 
REMARK    7  A    between atoms: C16_27  and  O6_28 
ROOT
HETATM    1  C5  UNL     1      35.904  49.991  76.020  1.00  0.00     0.103 C 
HETATM    2  C6  UNL     1      35.911  50.452  74.605  1.00  0.00     0.061 C 
HETATM    3  C7  UNL     1      35.091  51.651  74.188  1.00  0.00     0.089 C 
HETATM    4  C9  UNL     1      35.126  52.698  75.263  1.00  0.00     0.098 A 
HETATM    5  O3  UNL     1      35.872  52.328  76.196  1.00  0.00    -0.313 OA
HETATM    6  C10 UNL     1      35.991  53.110  77.172  1.00  0.00     0.089 A 
HETATM    7  C11 UNL     1      35.222  54.175  76.876  1.00  0.00     0.131 A 
HETATM    8  C12 UNL     1      34.645  53.911  75.615  1.00  0.00     0.132 A 
HETATM    9  C13 UNL     1      36.926  52.486  78.194  1.00  0.00     0.075 C 
HETATM   10  C14 UNL     1      37.648  51.398  77.440  1.00  0.00     0.020 C 
HETATM   11  C15 UNL     1      38.803  50.969  78.367  1.00  0.00     0.013 C 
HETATM   12  C16 UNL     1      37.068  50.232  76.887  1.00  0.00     0.160 C 
ENDROOT
BRANCH   1  13
HETATM   13  C4  UNL     1      36.034  48.452  75.843  1.00  0.00     0.015 C 
HETATM   14  C2  UNL     1      35.101  47.630  75.569  1.00  0.00    -0.088 C 
HETATM   15  C1  UNL     1      35.463  46.163  75.443  1.00  0.00     0.042 C 
HETATM   16  C3  UNL     1      33.686  47.980  75.366  1.00  0.00     0.042 C 
ENDBRANCH   1  13
BRANCH   1  17
HETATM   17  O1  UNL     1      34.647  50.041  76.632  1.00  0.00    -0.383 OA
ATOM     18  H1  UNL     1      34.126  49.652  75.939  1.00  0.00     0.211 HD
ENDBRANCH   1  17
BRANCH  12  19
HETATM   19  O6  UNL     1      38.150  49.611  76.120  1.00  0.00    -0.392 OA
ATOM     20  H6  UNL     1      38.921  49.941  76.566  1.00  0.00     0.210 HD
ENDBRANCH  12  19
BRANCH   3  21
HETATM   21  C8  UNL     1      33.697  51.376  73.858  1.00  0.00     0.098 C 
HETATM   22  N1  UNL     1      32.763  51.472  74.771  1.00  0.00    -0.283 N 
ATOM     23  H1  UNL     1      33.042  51.743  75.714  1.00  0.00     0.192 HD
BRANCH  22  24
HETATM   24  O2  UNL     1      31.451  51.233  74.543  1.00  0.00    -0.291 OA
ATOM     25  H2  UNL     1      30.776  51.900  74.570  1.00  0.00     0.244 HD
ENDBRANCH  22  24
ENDBRANCH   3  21
BRANCH   8  26
HETATM   26  O5  UNL     1      33.784  54.680  74.869  1.00  0.00    -0.356 OA
ATOM     27  H5  UNL     1      33.743  55.630  74.872  1.00  0.00     0.218 HD
ENDBRANCH   8  26
BRANCH   7  28
HETATM   28  O4  UNL     1      35.053  55.287  77.672  1.00  0.00    -0.356 OA
ATOM     29  H4  UNL     1      35.690  55.983  77.790  1.00  0.00     0.218 HD
ENDBRANCH   7  28
TORSDOF 7
ENDMDL
