MODEL 1
REMARK VINA RESULT: -7.282517981      0.000      0.000
REMARK  4 active torsions:
REMARK  status: ('A' for Active; 'I' for Inactive)
REMARK    1  A    between atoms: C6_6  and  C7_7 
REMARK    2  A    between atoms: C10_12  and  O1_13 
REMARK    3  A    between atoms: C12_21  and  N5_22 
REMARK    4  A    between atoms: N5_22  and  C13_24 
ROOT
HETATM    1  C1  UNL     1      36.279  55.537  79.229  1.00  0.00     0.043 C 
HETATM    2  C2  UNL     1      36.261  54.439  78.471  1.00  0.00     0.042 A 
HETATM    3  C3  UNL     1      37.308  53.461  78.721  1.00  0.00     0.062 A 
HETATM    4  C4  UNL     1      37.351  52.349  78.017  1.00  0.00     0.087 A 
HETATM    5  C5  UNL     1      38.405  51.381  78.272  1.00  0.00     0.057 A 
HETATM    6  C6  UNL     1      39.267  51.394  79.226  1.00  0.00     0.005 C 
HETATM    7  N1  UNL     1      38.362  50.212  77.413  1.00  0.00    -0.348 N 
ATOM      8  H1  UNL     1      39.066  49.483  77.521  1.00  0.00     0.166 HD
HETATM    9  C9  UNL     1      37.363  50.072  76.436  1.00  0.00     0.132 A 
HETATM   10  C10 UNL     1      37.166  49.020  75.525  1.00  0.00     0.186 A 
HETATM   11  N2  UNL     1      36.103  49.357  74.827  1.00  0.00    -0.277 N 
ATOM     12  H2  UNL     1      35.709  48.786  74.080  1.00  0.00     0.189 HD
HETATM   13  N3  UNL     1      35.596  50.538  75.212  1.00  0.00    -0.281 N 
ATOM     14  H3  UNL     1      34.777  51.004  74.821  1.00  0.00     0.188 HD
HETATM   15  C11 UNL     1      36.370  50.987  76.206  1.00  0.00     0.175 A 
HETATM   16  N4  UNL     1      36.348  52.163  77.012  1.00  0.00    -0.126 N 
HETATM   17  C12 UNL     1      35.322  53.100  76.745  1.00  0.00     0.694 A 
HETATM   18  N8  UNL     1      35.317  54.197  77.484  1.00  0.00    -0.192 N 
ATOM     19  H8  UNL     1      34.589  54.894  77.322  1.00  0.00     0.184 HD
ENDROOT
BRANCH  17  20
HETATM   20  N5  UNL     1      34.289  53.003  75.777  1.00  0.00    -0.161 N 
ATOM     21  H5  UNL     1      33.516  52.347  75.892  1.00  0.00     0.187 HD
BRANCH  20  22
HETATM   22  C13 UNL     1      34.369  53.866  74.624  1.00  0.00     0.190 C 
HETATM   23  N6  UNL     1      33.584  54.792  74.258  1.00  0.00    -0.360 N 
HETATM   24  C14 UNL     1      33.968  55.457  73.048  1.00  0.00     0.142 C 
ATOM     25  H6  UNL     1      32.746  55.043  74.782  1.00  0.00     0.162 HD
HETATM   26  C15 UNL     1      35.333  54.901  72.725  1.00  0.00     0.142 C 
HETATM   27  N7  UNL     1      35.411  53.803  73.662  1.00  0.00    -0.360 N 
ATOM     28  H7  UNL     1      36.125  53.075  73.635  1.00  0.00     0.162 HD
ENDBRANCH  20  22
ENDBRANCH  17  20
BRANCH   6  29
HETATM   29  C7  UNL     1      39.648  52.174  80.384  1.00  0.00     0.025 C 
HETATM   30  C8  UNL     1      40.822  51.543  81.129  1.00  0.00     0.009 C 
ENDBRANCH   6  29
BRANCH  10  31
HETATM   31  O1  UNL     1      37.978  47.877  75.435  1.00  0.00    -0.343 OA
ATOM     32  H1  UNL     1      37.658  46.998  75.269  1.00  0.00     0.219 HD
ENDBRANCH  10  31
TORSDOF 4
ENDMDL
MODEL 2
REMARK VINA RESULT: -6.690720515      1.280      1.440
REMARK  4 active torsions:
REMARK  status: ('A' for Active; 'I' for Inactive)
REMARK    1  A    between atoms: C6_6  and  C7_7 
REMARK    2  A    between atoms: C10_12  and  O1_13 
REMARK    3  A    between atoms: C12_21  and  N5_22 
REMARK    4  A    between atoms: N5_22  and  C13_24 
ROOT
HETATM    1  C1  UNL     1      35.125  55.043  77.914  1.00  0.00     0.043 C 
HETATM    2  C2  UNL     1      35.266  53.877  77.281  1.00  0.00     0.042 A 
HETATM    3  C3  UNL     1      36.420  53.073  77.650  1.00  0.00     0.062 A 
HETATM    4  C4  UNL     1      36.620  51.907  77.072  1.00  0.00     0.087 A 
HETATM    5  C5  UNL     1      37.779  51.114  77.445  1.00  0.00     0.057 A 
HETATM    6  C6  UNL     1      38.607  51.339  78.403  1.00  0.00     0.005 C 
HETATM    7  N1  UNL     1      37.906  49.864  76.718  1.00  0.00    -0.348 N 
ATOM      8  H1  UNL     1      38.693  49.246  76.914  1.00  0.00     0.166 HD
HETATM    9  C9  UNL     1      36.959  49.494  75.750  1.00  0.00     0.132 A 
HETATM   10  C10 UNL     1      36.920  48.335  74.956  1.00  0.00     0.186 A 
HETATM   11  N2  UNL     1      35.842  48.457  74.212  1.00  0.00    -0.277 N 
ATOM     12  H2  UNL     1      35.543  47.764  73.527  1.00  0.00     0.189 HD
HETATM   13  N3  UNL     1      35.181  49.597  74.459  1.00  0.00    -0.281 N 
ATOM     14  H3  UNL     1      34.321  49.911  74.008  1.00  0.00     0.188 HD
HETATM   15  C11 UNL     1      35.866  50.245  75.408  1.00  0.00     0.175 A 
HETATM   16  N4  UNL     1      35.675  51.489  76.080  1.00  0.00    -0.126 N 
HETATM   17  C12 UNL     1      34.548  52.253  75.700  1.00  0.00     0.694 A 
HETATM   18  N8  UNL     1      34.385  53.414  76.314  1.00  0.00    -0.192 N 
ATOM     19  H8  UNL     1      33.581  53.990  76.067  1.00  0.00     0.184 HD
ENDROOT
BRANCH  17  20
HETATM   20  N5  UNL     1      33.561  51.923  74.734  1.00  0.00    -0.161 N 
ATOM     21  H5  UNL     1      33.083  51.021  74.753  1.00  0.00     0.187 HD
BRANCH  20  22
HETATM   22  C13 UNL     1      33.256  52.907  73.725  1.00  0.00     0.190 C 
HETATM   23  N6  UNL     1      32.154  53.481  73.470  1.00  0.00    -0.360 N 
HETATM   24  C14 UNL     1      32.206  54.418  72.387  1.00  0.00     0.142 C 
ATOM     25  H6  UNL     1      31.300  53.290  73.994  1.00  0.00     0.162 HD
HETATM   26  C15 UNL     1      33.669  54.515  72.037  1.00  0.00     0.142 C 
HETATM   27  N7  UNL     1      34.210  53.415  72.804  1.00  0.00    -0.360 N 
ATOM     28  H7  UNL     1      35.156  53.050  72.696  1.00  0.00     0.162 HD
ENDBRANCH  20  22
ENDBRANCH  17  20
BRANCH   6  29
HETATM   29  C7  UNL     1      38.857  52.279  79.474  1.00  0.00     0.025 C 
HETATM   30  C8  UNL     1      39.986  51.809  80.388  1.00  0.00     0.009 C 
ENDBRANCH   6  29
BRANCH  10  31
HETATM   31  O1  UNL     1      37.871  47.301  75.002  1.00  0.00    -0.343 OA
ATOM     32  H1  UNL     1      37.968  46.625  74.341  1.00  0.00     0.219 HD
ENDBRANCH  10  31
TORSDOF 4
ENDMDL
MODEL 3
REMARK VINA RESULT: -6.512565602      2.359      3.078
REMARK  4 active torsions:
REMARK  status: ('A' for Active; 'I' for Inactive)
REMARK    1  A    between atoms: C6_6  and  C7_7 
REMARK    2  A    between atoms: C10_12  and  O1_13 
REMARK    3  A    between atoms: C12_21  and  N5_22 
REMARK    4  A    between atoms: N5_22  and  C13_24 
ROOT
HETATM    1  C1  UNL     1      34.973  54.637  77.516  1.00  0.00     0.043 C 
HETATM    2  C2  UNL     1      35.172  53.477  76.888  1.00  0.00     0.042 A 
HETATM    3  C3  UNL     1      36.329  52.702  77.307  1.00  0.00     0.062 A 
HETATM    4  C4  UNL     1      36.586  51.543  76.738  1.00  0.00     0.087 A 
HETATM    5  C5  UNL     1      37.748  50.779  77.162  1.00  0.00     0.057 A 
HETATM    6  C6  UNL     1      38.526  51.023  78.156  1.00  0.00     0.005 C 
HETATM    7  N1  UNL     1      37.939  49.535  76.440  1.00  0.00    -0.348 N 
ATOM      8  H1  UNL     1      38.732  48.937  76.670  1.00  0.00     0.166 HD
HETATM    9  C9  UNL     1      37.046  49.143  75.430  1.00  0.00     0.132 A 
HETATM   10  C10 UNL     1      37.073  47.984  74.634  1.00  0.00     0.186 A 
HETATM   11  N2  UNL     1      36.026  48.080  73.843  1.00  0.00    -0.277 N 
ATOM     12  H2  UNL     1      35.776  47.381  73.144  1.00  0.00     0.189 HD
HETATM   13  N3  UNL     1      35.325  49.203  74.061  1.00  0.00    -0.281 N 
ATOM     14  H3  UNL     1      34.478  49.495  73.573  1.00  0.00     0.188 HD
HETATM   15  C11 UNL     1      35.950  49.866  75.040  1.00  0.00     0.175 A 
HETATM   16  N4  UNL     1      35.697  51.102  75.704  1.00  0.00    -0.126 N 
HETATM   17  C12 UNL     1      34.568  51.838  75.275  1.00  0.00     0.694 A 
HETATM   18  N8  UNL     1      34.349  52.992  75.883  1.00  0.00    -0.192 N 
ATOM     19  H8  UNL     1      33.541  53.548  75.601  1.00  0.00     0.184 HD
ENDROOT
BRANCH  17  20
HETATM   20  N5  UNL     1      33.634  51.484  74.266  1.00  0.00    -0.161 N 
ATOM     21  H5  UNL     1      33.810  51.699  73.284  1.00  0.00     0.187 HD
BRANCH  20  22
HETATM   22  C13 UNL     1      32.428  50.811  74.677  1.00  0.00     0.190 C 
HETATM   23  N6  UNL     1      32.228  50.065  75.683  1.00  0.00    -0.360 N 
HETATM   24  C14 UNL     1      30.894  49.554  75.793  1.00  0.00     0.142 C 
ATOM     25  H6  UNL     1      32.959  49.846  76.361  1.00  0.00     0.162 HD
HETATM   26  C15 UNL     1      30.123  50.266  74.709  1.00  0.00     0.142 C 
HETATM   27  N7  UNL     1      31.199  50.887  73.970  1.00  0.00    -0.360 N 
ATOM     28  H7  UNL     1      31.089  51.325  73.055  1.00  0.00     0.162 HD
ENDBRANCH  20  22
ENDBRANCH  17  20
BRANCH   6  29
HETATM   29  C7  UNL     1      38.703  51.968  79.237  1.00  0.00     0.025 C 
HETATM   30  C8  UNL     1      39.928  51.633  80.085  1.00  0.00     0.009 C 
ENDBRANCH   6  29
BRANCH  10  31
HETATM   31  O1  UNL     1      38.047  46.976  74.721  1.00  0.00    -0.343 OA
ATOM     32  H1  UNL     1      38.013  46.241  75.322  1.00  0.00     0.219 HD
ENDBRANCH  10  31
TORSDOF 4
ENDMDL
MODEL 4
REMARK VINA RESULT: -6.244219595      1.741      2.154
REMARK  4 active torsions:
REMARK  status: ('A' for Active; 'I' for Inactive)
REMARK    1  A    between atoms: C6_6  and  C7_7 
REMARK    2  A    between atoms: C10_12  and  O1_13 
REMARK    3  A    between atoms: C12_21  and  N5_22 
REMARK    4  A    between atoms: N5_22  and  C13_24 
ROOT
HETATM    1  C1  UNL     1      34.959  54.474  77.302  1.00  0.00     0.043 C 
HETATM    2  C2  UNL     1      35.160  53.282  76.737  1.00  0.00     0.042 A 
HETATM    3  C3  UNL     1      36.319  52.534  77.195  1.00  0.00     0.062 A 
HETATM    4  C4  UNL     1      36.578  51.346  76.688  1.00  0.00     0.087 A 
HETATM    5  C5  UNL     1      37.742  50.609  77.151  1.00  0.00     0.057 A 
HETATM    6  C6  UNL     1      38.520  50.908  78.129  1.00  0.00     0.005 C 
HETATM    7  N1  UNL     1      37.935  49.329  76.496  1.00  0.00    -0.348 N 
ATOM      8  H1  UNL     1      38.730  48.745  76.757  1.00  0.00     0.166 HD
HETATM    9  C9  UNL     1      37.042  48.881  75.510  1.00  0.00     0.132 A 
HETATM   10  C10 UNL     1      37.071  47.682  74.777  1.00  0.00     0.186 A 
HETATM   11  N2  UNL     1      36.022  47.733  73.983  1.00  0.00    -0.277 N 
ATOM     12  H2  UNL     1      35.773  46.997  73.323  1.00  0.00     0.189 HD
HETATM   13  N3  UNL     1      35.319  48.863  74.142  1.00  0.00    -0.281 N 
ATOM     14  H3  UNL     1      34.471  49.127  73.640  1.00  0.00     0.188 HD
HETATM   15  C11 UNL     1      35.944  49.580  75.084  1.00  0.00     0.175 A 
HETATM   16  N4  UNL     1      35.689  50.849  75.681  1.00  0.00    -0.126 N 
HETATM   17  C12 UNL     1      34.558  51.558  75.214  1.00  0.00     0.694 A 
HETATM   18  N8  UNL     1      34.336  52.743  75.760  1.00  0.00    -0.192 N 
ATOM     19  H8  UNL     1      33.527  53.281  75.449  1.00  0.00     0.184 HD
ENDROOT
BRANCH  17  20
HETATM   20  N5  UNL     1      33.623  51.149  74.226  1.00  0.00    -0.161 N 
ATOM     21  H5  UNL     1      32.950  50.405  74.412  1.00  0.00     0.187 HD
BRANCH  20  22
HETATM   22  C13 UNL     1      33.659  51.822  72.952  1.00  0.00     0.190 C 
HETATM   23  N6  UNL     1      32.724  52.412  72.329  1.00  0.00    -0.360 N 
HETATM   24  C14 UNL     1      33.110  52.981  71.072  1.00  0.00     0.142 C 
ATOM     25  H6  UNL     1      31.774  52.477  72.695  1.00  0.00     0.162 HD
HETATM   26  C15 UNL     1      34.609  52.813  71.023  1.00  0.00     0.142 C 
HETATM   27  N7  UNL     1      34.824  51.933  72.149  1.00  0.00    -0.360 N 
ATOM     28  H7  UNL     1      35.703  51.453  72.343  1.00  0.00     0.162 HD
ENDBRANCH  20  22
ENDBRANCH  17  20
BRANCH   6  29
HETATM   29  C7  UNL     1      38.696  51.910  79.159  1.00  0.00     0.025 C 
HETATM   30  C8  UNL     1      39.907  51.608  80.040  1.00  0.00     0.009 C 
ENDBRANCH   6  29
BRANCH  10  31
HETATM   31  O1  UNL     1      38.047  46.682  74.917  1.00  0.00    -0.343 OA
ATOM     32  H1  UNL     1      37.898  45.755  74.768  1.00  0.00     0.219 HD
ENDBRANCH  10  31
TORSDOF 4
ENDMDL
MODEL 5
REMARK VINA RESULT: -6.143906124      1.851      5.658
REMARK  4 active torsions:
REMARK  status: ('A' for Active; 'I' for Inactive)
REMARK    1  A    between atoms: C6_6  and  C7_7 
REMARK    2  A    between atoms: C10_12  and  O1_13 
REMARK    3  A    between atoms: C12_21  and  N5_22 
REMARK    4  A    between atoms: N5_22  and  C13_24 
ROOT
HETATM    1  C1  UNL     1      35.108  54.960  77.991  1.00  0.00     0.043 C 
HETATM    2  C2  UNL     1      35.547  53.822  77.450  1.00  0.00     0.042 A 
HETATM    3  C3  UNL     1      34.834  53.342  76.278  1.00  0.00     0.062 A 
HETATM    4  C4  UNL     1      35.215  52.230  75.685  1.00  0.00     0.087 A 
HETATM    5  C5  UNL     1      34.492  51.757  74.517  1.00  0.00     0.057 A 
HETATM    6  C6  UNL     1      33.569  52.372  73.865  1.00  0.00     0.005 C 
HETATM    7  N1  UNL     1      34.988  50.507  73.973  1.00  0.00    -0.348 N 
ATOM      8  H1  UNL     1      34.537  50.100  73.154  1.00  0.00     0.166 HD
HETATM    9  C9  UNL     1      36.082  49.850  74.560  1.00  0.00     0.132 A 
HETATM   10  C10 UNL     1      36.693  48.644  74.174  1.00  0.00     0.186 A 
HETATM   11  N2  UNL     1      37.670  48.457  75.035  1.00  0.00    -0.277 N 
ATOM     12  H2  UNL     1      38.300  47.656  75.014  1.00  0.00     0.189 HD
HETATM   13  N3  UNL     1      37.741  49.440  75.945  1.00  0.00    -0.281 N 
ATOM     14  H3  UNL     1      38.413  49.513  76.709  1.00  0.00     0.188 HD
HETATM   15  C11 UNL     1      36.762  50.305  75.658  1.00  0.00     0.175 A 
HETATM   16  N4  UNL     1      36.330  51.529  76.249  1.00  0.00    -0.126 N 
HETATM   17  C12 UNL     1      37.038  51.971  77.390  1.00  0.00     0.694 A 
HETATM   18  N8  UNL     1      36.622  53.098  77.945  1.00  0.00    -0.192 N 
ATOM     19  H8  UNL     1      37.112  53.448  78.768  1.00  0.00     0.184 HD
ENDROOT
BRANCH  17  20
HETATM   20  N5  UNL     1      38.150  51.349  78.017  1.00  0.00    -0.161 N 
ATOM     21  H5  UNL     1      38.489  50.437  77.709  1.00  0.00     0.187 HD
BRANCH  20  22
HETATM   22  C13 UNL     1      38.785  52.052  79.104  1.00  0.00     0.190 C 
HETATM   23  N6  UNL     1      38.592  53.236  79.516  1.00  0.00    -0.360 N 
HETATM   24  C14 UNL     1      39.403  53.620  80.633  1.00  0.00     0.142 C 
ATOM     25  H6  UNL     1      37.914  53.865  79.085  1.00  0.00     0.162 HD
HETATM   26  C15 UNL     1      40.106  52.350  81.047  1.00  0.00     0.142 C 
HETATM   27  N7  UNL     1      39.788  51.484  79.933  1.00  0.00    -0.360 N 
ATOM     28  H7  UNL     1      40.229  50.580  79.765  1.00  0.00     0.162 HD
ENDBRANCH  20  22
ENDBRANCH  17  20
BRANCH   6  29
HETATM   29  C7  UNL     1      32.841  53.622  73.860  1.00  0.00     0.025 C 
HETATM   30  C8  UNL     1      33.603  54.717  73.117  1.00  0.00     0.009 C 
ENDBRANCH   6  29
BRANCH  10  31
HETATM   31  O1  UNL     1      36.291  47.856  73.083  1.00  0.00    -0.343 OA
ATOM     32  H1  UNL     1      36.708  47.045  72.817  1.00  0.00     0.219 HD
ENDBRANCH  10  31
TORSDOF 4
ENDMDL
