MODEL 1
REMARK VINA RESULT: -4.587801474      0.000      0.000
REMARK  2 active torsions:
REMARK  status: ('A' for Active; 'I' for Inactive)
REMARK    1  A    between atoms: C1_2  and  N1_3 
REMARK    2  A    between atoms: N1_3  and  C2_5 
ROOT
HETATM    1  C2  UNL     1      35.056  20.968  10.299  1.00  0.00     0.106 A 
HETATM    2  C3  UNL     1      35.513  21.770  11.123  1.00  0.00    -0.006 A 
HETATM    3  C4  UNL     1      35.544  21.898  11.877  1.00  0.00    -0.029 A 
HETATM    4  C5  UNL     1      35.156  21.407  12.945  1.00  0.00     0.029 A 
HETATM    5  C6  UNL     1      34.434  20.144  11.819  1.00  0.00     0.033 A 
ENDROOT
BRANCH   1   6
HETATM    6  N1  UNL     1      33.779  21.056   9.616  1.00  0.00    -0.360 N 
ATOM      7  H1  UNL     1      32.942  21.289  10.149  1.00  0.00     0.162 HD
BRANCH   6   8
HETATM    8  C1  UNL     1      33.672  20.827   8.226  1.00  0.00     0.349 C 
HETATM    9  O1  UNL     1      34.133  21.637   7.391  1.00  0.00    -0.284 OA
ENDBRANCH   6   8
ENDBRANCH   1   6
TORSDOF 2
ENDMDL
MODEL 2
REMARK VINA RESULT: -4.556208789      3.285      4.178
REMARK  2 active torsions:
REMARK  status: ('A' for Active; 'I' for Inactive)
REMARK    1  A    between atoms: C1_2  and  N1_3 
REMARK    2  A    between atoms: N1_3  and  C2_5 
ROOT
HETATM    1  C2  UNL     1      34.848  21.621  13.050  1.00  0.00     0.106 A 
HETATM    2  C3  UNL     1      34.402  20.590  12.531  1.00  0.00    -0.006 A 
HETATM    3  C4  UNL     1      34.385  20.218  11.862  1.00  0.00    -0.029 A 
HETATM    4  C5  UNL     1      34.793  20.327  10.699  1.00  0.00     0.029 A 
HETATM    5  C6  UNL     1      35.515  21.885  11.358  1.00  0.00     0.033 A 
ENDROOT
BRANCH   1   6
HETATM    6  N1  UNL     1      34.169  22.899  13.169  1.00  0.00    -0.360 N 
ATOM      7  H1  UNL     1      34.635  23.744  12.841  1.00  0.00     0.162 HD
BRANCH   6   8
HETATM    8  C1  UNL     1      32.877  22.993  13.731  1.00  0.00     0.349 C 
HETATM    9  O1  UNL     1      32.644  23.725  14.719  1.00  0.00    -0.284 OA
ENDBRANCH   6   8
ENDBRANCH   1   6
TORSDOF 2
ENDMDL
MODEL 3
REMARK VINA RESULT: -4.536688704      2.252      2.288
REMARK  2 active torsions:
REMARK  status: ('A' for Active; 'I' for Inactive)
REMARK    1  A    between atoms: C1_2  and  N1_3 
REMARK    2  A    between atoms: N1_3  and  C2_5 
ROOT
HETATM    1  C2  UNL     1      34.015  22.179  10.765  1.00  0.00     0.106 A 
HETATM    2  C3  UNL     1      35.150  21.904  11.174  1.00  0.00    -0.006 A 
HETATM    3  C4  UNL     1      35.518  21.685  11.809  1.00  0.00    -0.029 A 
HETATM    4  C5  UNL     1      35.297  21.415  12.996  1.00  0.00     0.029 A 
HETATM    5  C6  UNL     1      33.565  21.792  12.504  1.00  0.00     0.033 A 
ENDROOT
BRANCH   1   6
HETATM    6  N1  UNL     1      33.402  23.494  10.718  1.00  0.00    -0.360 N 
ATOM      7  H1  UNL     1      33.673  24.197  11.405  1.00  0.00     0.162 HD
BRANCH   6   8
HETATM    8  C1  UNL     1      32.439  23.820   9.737  1.00  0.00     0.349 C 
HETATM    9  O1  UNL     1      32.590  24.797   8.970  1.00  0.00    -0.284 OA
ENDBRANCH   6   8
ENDBRANCH   1   6
TORSDOF 2
ENDMDL
MODEL 4
REMARK VINA RESULT: -4.393747633      1.287      1.652
REMARK  2 active torsions:
REMARK  status: ('A' for Active; 'I' for Inactive)
REMARK    1  A    between atoms: C1_2  and  N1_3 
REMARK    2  A    between atoms: N1_3  and  C2_5 
ROOT
HETATM    1  C2  UNL     1      34.328  20.017  11.984  1.00  0.00     0.106 A 
HETATM    2  C3  UNL     1      35.064  20.875  12.488  1.00  0.00    -0.006 A 
HETATM    3  C4  UNL     1      35.032  21.531  12.882  1.00  0.00    -0.029 A 
HETATM    4  C5  UNL     1      34.206  22.315  13.365  1.00  0.00     0.029 A 
HETATM    5  C6  UNL     1      33.012  21.102  12.667  1.00  0.00     0.033 A 
ENDROOT
BRANCH   1   6
HETATM    6  N1  UNL     1      33.836  19.985  10.619  1.00  0.00    -0.360 N 
ATOM      7  H1  UNL     1      32.866  19.724  10.444  1.00  0.00     0.162 HD
BRANCH   6   8
HETATM    8  C1  UNL     1      34.673  20.310   9.529  1.00  0.00     0.349 C 
HETATM    9  O1  UNL     1      34.569  21.401   8.926  1.00  0.00    -0.284 OA
ENDBRANCH   6   8
ENDBRANCH   1   6
TORSDOF 2
ENDMDL
MODEL 5
REMARK VINA RESULT: -4.188780010      2.282      2.710
REMARK  2 active torsions:
REMARK  status: ('A' for Active; 'I' for Inactive)
REMARK    1  A    between atoms: C1_2  and  N1_3 
REMARK    2  A    between atoms: N1_3  and  C2_5 
ROOT
HETATM    1  C2  UNL     1      33.640  22.489  12.074  1.00  0.00     0.106 A 
HETATM    2  C3  UNL     1      33.260  21.326  12.260  1.00  0.00    -0.006 A 
HETATM    3  C4  UNL     1      33.532  20.614  12.327  1.00  0.00    -0.029 A 
HETATM    4  C5  UNL     1      34.603  19.995  12.303  1.00  0.00     0.029 A 
HETATM    5  C6  UNL     1      35.289  21.679  12.028  1.00  0.00     0.033 A 
ENDROOT
BRANCH   1   6
HETATM    6  N1  UNL     1      33.750  23.175  10.799  1.00  0.00    -0.360 N 
ATOM      7  H1  UNL     1      34.672  23.341  10.398  1.00  0.00     0.162 HD
BRANCH   6   8
HETATM    8  C1  UNL     1      32.603  23.615  10.102  1.00  0.00     0.349 C 
HETATM    9  O1  UNL     1      32.647  24.589   9.318  1.00  0.00    -0.284 OA
ENDBRANCH   6   8
ENDBRANCH   1   6
TORSDOF 2
ENDMDL
