MODEL 1
REMARK VINA RESULT: -4.633103150      0.000      0.000
REMARK  1 active torsions:
REMARK  status: ('A' for Active; 'I' for Inactive)
REMARK    1  A    between atoms: C2_2  and  C3_3 
ROOT
HETATM    1  C3  UNL     1      35.076  21.361  12.842  1.00  0.00     0.130 A 
HETATM    2  C4  UNL     1      34.306  20.192  12.384  1.00  0.00     0.007 A 
HETATM    3  C5  UNL     1      34.444  20.085  11.085  1.00  0.00     0.072 A 
HETATM    4  C6  UNL     1      35.295  21.141  10.558  1.00  0.00     0.241 A 
HETATM    5  O1  UNL     1      35.592  21.271   9.329  1.00  0.00    -0.269 OA
HETATM    6  N1  UNL     1      35.673  21.918  11.666  1.00  0.00    -0.347 N 
ATOM      7  H1  UNL     1      36.274  22.741  11.637  1.00  0.00     0.163 HD
ENDROOT
BRANCH   1   8
HETATM    8  C2  UNL     1      34.168  22.423  13.386  1.00  0.00    -0.008 C 
HETATM    9  C1  UNL     1      32.851  22.288  13.290  1.00  0.00     0.009 C 
ENDBRANCH   1   8
TORSDOF 1
ENDMDL
MODEL 2
REMARK VINA RESULT: -4.282026877      2.296      3.483
REMARK  1 active torsions:
REMARK  status: ('A' for Active; 'I' for Inactive)
REMARK    1  A    between atoms: C2_2  and  C3_3 
ROOT
HETATM    1  C3  UNL     1      34.403  20.254  12.211  1.00  0.00     0.130 A 
HETATM    2  C4  UNL     1      35.194  21.359  12.778  1.00  0.00     0.007 A 
HETATM    3  C5  UNL     1      34.371  22.245  13.284  1.00  0.00     0.072 A 
HETATM    4  C6  UNL     1      32.986  21.832  13.112  1.00  0.00     0.241 A 
HETATM    5  O1  UNL     1      31.986  22.508  13.512  1.00  0.00    -0.269 OA
HETATM    6  N1  UNL     1      33.033  20.597  12.445  1.00  0.00    -0.347 N 
ATOM      7  H1  UNL     1      32.225  20.037  12.173  1.00  0.00     0.163 HD
ENDROOT
BRANCH   1   8
HETATM    8  C2  UNL     1      34.562  20.187  10.722  1.00  0.00    -0.008 C 
HETATM    9  C1  UNL     1      35.217  21.145  10.077  1.00  0.00     0.009 C 
ENDBRANCH   1   8
TORSDOF 1
ENDMDL
MODEL 3
REMARK VINA RESULT: -4.090726543      1.926      2.824
REMARK  1 active torsions:
REMARK  status: ('A' for Active; 'I' for Inactive)
REMARK    1  A    between atoms: C2_2  and  C3_3 
ROOT
HETATM    1  C3  UNL     1      33.764  20.344  12.290  1.00  0.00     0.130 A 
HETATM    2  C4  UNL     1      35.057  21.000  12.549  1.00  0.00     0.007 A 
HETATM    3  C5  UNL     1      35.114  22.103  11.843  1.00  0.00     0.072 A 
HETATM    4  C6  UNL     1      33.899  22.291  11.063  1.00  0.00     0.241 A 
HETATM    5  O1  UNL     1      33.693  23.280  10.291  1.00  0.00    -0.269 OA
HETATM    6  N1  UNL     1      33.080  21.188  11.358  1.00  0.00    -0.347 N 
ATOM      7  H1  UNL     1      32.152  21.018  10.971  1.00  0.00     0.163 HD
ENDROOT
BRANCH   1   8
HETATM    8  C2  UNL     1      33.957  19.031  11.592  1.00  0.00    -0.008 C 
HETATM    9  C1  UNL     1      32.966  18.150  11.544  1.00  0.00     0.009 C 
ENDBRANCH   1   8
TORSDOF 1
ENDMDL
MODEL 4
REMARK VINA RESULT: -4.080479509      2.167      3.225
REMARK  1 active torsions:
REMARK  status: ('A' for Active; 'I' for Inactive)
REMARK    1  A    between atoms: C2_2  and  C3_3 
ROOT
HETATM    1  C3  UNL     1      34.840  21.366  12.819  1.00  0.00     0.130 A 
HETATM    2  C4  UNL     1      34.045  22.453  13.415  1.00  0.00     0.007 A 
HETATM    3  C5  UNL     1      32.774  22.165  13.275  1.00  0.00     0.072 A 
HETATM    4  C6  UNL     1      32.596  20.892  12.592  1.00  0.00     0.241 A 
HETATM    5  O1  UNL     1      31.464  20.377  12.328  1.00  0.00    -0.269 OA
HETATM    6  N1  UNL     1      33.890  20.418  12.321  1.00  0.00    -0.347 N 
ATOM      7  H1  UNL     1      34.115  19.543  11.848  1.00  0.00     0.163 HD
ENDROOT
BRANCH   1   8
HETATM    8  C2  UNL     1      35.605  21.851  11.625  1.00  0.00    -0.008 C 
HETATM    9  C1  UNL     1      35.343  21.358  10.420  1.00  0.00     0.009 C 
ENDBRANCH   1   8
TORSDOF 1
ENDMDL
MODEL 5
REMARK VINA RESULT: -4.044857860      1.876      2.269
REMARK  1 active torsions:
REMARK  status: ('A' for Active; 'I' for Inactive)
REMARK    1  A    between atoms: C2_2  and  C3_3 
ROOT
HETATM    1  C3  UNL     1      35.224  21.872  11.049  1.00  0.00     0.130 A 
HETATM    2  C4  UNL     1      34.946  20.726  10.167  1.00  0.00     0.007 A 
HETATM    3  C5  UNL     1      33.821  20.952   9.533  1.00  0.00     0.072 A 
HETATM    4  C6  UNL     1      33.250  22.235   9.916  1.00  0.00     0.241 A 
HETATM    5  O1  UNL     1      32.161  22.698   9.452  1.00  0.00    -0.269 OA
HETATM    6  N1  UNL     1      34.138  22.784  10.856  1.00  0.00    -0.347 N 
ATOM      7  H1  UNL     1      34.027  23.684  11.323  1.00  0.00     0.163 HD
ENDROOT
BRANCH   1   8
HETATM    8  C2  UNL     1      35.171  21.466  12.491  1.00  0.00    -0.008 C 
HETATM    9  C1  UNL     1      34.401  22.133  13.343  1.00  0.00     0.009 C 
ENDBRANCH   1   8
TORSDOF 1
ENDMDL
