MODEL 1
REMARK VINA RESULT: -3.896785708      0.000      0.000
REMARK  2 active torsions:
REMARK  status: ('A' for Active; 'I' for Inactive)
REMARK    1  A    between atoms: C1_2  and  C2_3 
REMARK       I    between atoms: C2_3  and  N1_5 
REMARK    2  A    between atoms: N1_5  and  C3_7 
ROOT
HETATM    1  C2  UNL     1      33.326  22.716  10.031  1.00  0.00     0.279 C 
HETATM    2  O2  UNL     1      33.593  21.858   9.162  1.00  0.00    -0.265 OA
HETATM    3  N1  UNL     1      33.998  22.683  11.265  1.00  0.00    -0.350 N 
ATOM      4  H1  UNL     1      33.761  23.393  11.958  1.00  0.00     0.163 HD
ENDROOT
BRANCH   3   5
HETATM    5  C3  UNL     1      35.005  21.703  11.613  1.00  0.00     0.085 A 
HETATM    6  C4  UNL     1      35.406  21.474  13.010  1.00  0.00     0.027 A 
HETATM    7  C5  UNL     1      34.441  20.497  12.353  1.00  0.00     0.027 A 
ENDBRANCH   3   5
BRANCH   1   8
HETATM    8  C1  UNL     1      32.333  23.741   9.781  1.00  0.00     0.332 C 
HETATM    9  O1  UNL     1      32.583  24.794   9.141  1.00  0.00    -0.297 OA
ENDBRANCH   1   8
TORSDOF 2
ENDMDL
MODEL 2
REMARK VINA RESULT: -3.820729877      3.505      3.602
REMARK  2 active torsions:
REMARK  status: ('A' for Active; 'I' for Inactive)
REMARK    1  A    between atoms: C1_2  and  C2_3 
REMARK       I    between atoms: C2_3  and  N1_5 
REMARK    2  A    between atoms: N1_5  and  C3_7 
ROOT
HETATM    1  C2  UNL     1      32.329  23.167  13.524  1.00  0.00     0.279 C 
HETATM    2  O2  UNL     1      31.477  22.819  12.679  1.00  0.00    -0.265 OA
HETATM    3  N1  UNL     1      33.678  22.825  13.329  1.00  0.00    -0.350 N 
ATOM      4  H1  UNL     1      34.353  23.120  14.035  1.00  0.00     0.163 HD
ENDROOT
BRANCH   3   5
HETATM    5  C3  UNL     1      34.168  22.079  12.190  1.00  0.00     0.085 A 
HETATM    6  C4  UNL     1      35.605  21.982  11.893  1.00  0.00     0.027 A 
HETATM    7  C5  UNL     1      34.916  20.811  12.577  1.00  0.00     0.027 A 
ENDBRANCH   3   5
BRANCH   1   8
HETATM    8  C1  UNL     1      31.941  23.918  14.702  1.00  0.00     0.332 C 
HETATM    9  O1  UNL     1      32.775  24.400  15.510  1.00  0.00    -0.297 OA
ENDBRANCH   1   8
TORSDOF 2
ENDMDL
MODEL 3
REMARK VINA RESULT: -3.810173547      1.368      1.557
REMARK  2 active torsions:
REMARK  status: ('A' for Active; 'I' for Inactive)
REMARK    1  A    between atoms: C1_2  and  C2_3 
REMARK       I    between atoms: C2_3  and  N1_5 
REMARK    2  A    between atoms: N1_5  and  C3_7 
ROOT
HETATM    1  C2  UNL     1      32.371  23.017  10.850  1.00  0.00     0.279 C 
HETATM    2  O2  UNL     1      31.366  22.510  11.392  1.00  0.00    -0.265 OA
HETATM    3  N1  UNL     1      33.643  22.795  11.406  1.00  0.00    -0.350 N 
ATOM      4  H1  UNL     1      34.447  23.221  10.946  1.00  0.00     0.163 HD
ENDROOT
BRANCH   3   5
HETATM    5  C3  UNL     1      33.881  21.999  12.591  1.00  0.00     0.085 A 
HETATM    6  C4  UNL     1      34.174  20.560  12.507  1.00  0.00     0.027 A 
HETATM    7  C5  UNL     1      35.325  21.532  12.722  1.00  0.00     0.027 A 
ENDBRANCH   3   5
BRANCH   1   8
HETATM    8  C1  UNL     1      32.240  23.831   9.659  1.00  0.00     0.332 C 
HETATM    9  O1  UNL     1      33.031  24.769   9.381  1.00  0.00    -0.297 OA
ENDBRANCH   1   8
TORSDOF 2
ENDMDL
MODEL 4
REMARK VINA RESULT: -3.758042415      1.219      1.456
REMARK  2 active torsions:
REMARK  status: ('A' for Active; 'I' for Inactive)
REMARK    1  A    between atoms: C1_2  and  C2_3 
REMARK       I    between atoms: C2_3  and  N1_5 
REMARK    2  A    between atoms: N1_5  and  C3_7 
ROOT
HETATM    1  C2  UNL     1      32.451  23.047   9.851  1.00  0.00     0.279 C 
HETATM    2  O2  UNL     1      31.799  21.984   9.766  1.00  0.00    -0.265 OA
HETATM    3  N1  UNL     1      33.627  23.078  10.620  1.00  0.00    -0.350 N 
ATOM      4  H1  UNL     1      34.140  23.958  10.675  1.00  0.00     0.163 HD
ENDROOT
BRANCH   3   5
HETATM    5  C3  UNL     1      34.154  21.938  11.340  1.00  0.00     0.085 A 
HETATM    6  C4  UNL     1      35.119  21.015  10.722  1.00  0.00     0.027 A 
HETATM    7  C5  UNL     1      35.631  22.076  11.686  1.00  0.00     0.027 A 
ENDBRANCH   3   5
BRANCH   1   8
HETATM    8  C1  UNL     1      32.009  24.246   9.168  1.00  0.00     0.332 C 
HETATM    9  O1  UNL     1      32.798  25.154   8.800  1.00  0.00    -0.297 OA
ENDBRANCH   1   8
TORSDOF 2
ENDMDL
MODEL 5
REMARK VINA RESULT: -3.694826903      2.388      2.461
REMARK  2 active torsions:
REMARK  status: ('A' for Active; 'I' for Inactive)
REMARK    1  A    between atoms: C1_2  and  C2_3 
REMARK       I    between atoms: C2_3  and  N1_5 
REMARK    2  A    between atoms: N1_5  and  C3_7 
ROOT
HETATM    1  C2  UNL     1      34.585  20.880   9.352  1.00  0.00     0.279 C 
HETATM    2  O2  UNL     1      35.798  21.179   9.357  1.00  0.00    -0.265 OA
HETATM    3  N1  UNL     1      33.959  20.509  10.554  1.00  0.00    -0.350 N 
ATOM      4  H1  UNL     1      32.968  20.268  10.522  1.00  0.00     0.163 HD
ENDROOT
BRANCH   3   5
HETATM    5  C3  UNL     1      34.633  20.447  11.833  1.00  0.00     0.085 A 
HETATM    6  C4  UNL     1      35.285  21.628  12.418  1.00  0.00     0.027 A 
HETATM    7  C5  UNL     1      33.912  21.217  12.931  1.00  0.00     0.027 A 
ENDBRANCH   3   5
BRANCH   1   8
HETATM    8  C1  UNL     1      33.818  20.911   8.122  1.00  0.00     0.332 C 
HETATM    9  O1  UNL     1      34.116  21.651   7.150  1.00  0.00    -0.297 OA
ENDBRANCH   1   8
TORSDOF 2
ENDMDL
