MODEL 1
REMARK VINA RESULT: -4.501985744      0.000      0.000
REMARK  1 active torsions:
REMARK  status: ('A' for Active; 'I' for Inactive)
REMARK    1  A    between atoms: C2_2  and  C3_3 
ROOT
HETATM    1  C3  UNL     1      34.913  20.798  11.739  1.00  0.00     0.101 C 
HETATM    2  C4  UNL     1      35.334  21.542  12.988  1.00  0.00     0.037 C 
HETATM    3  C5  UNL     1      34.119  22.364  13.314  1.00  0.00     0.123 C 
HETATM    4  N1  UNL     1      33.529  22.657  12.006  1.00  0.00    -0.360 N 
ATOM      5  H1  UNL     1      32.776  23.324  11.837  1.00  0.00     0.162 HD
HETATM    6  C6  UNL     1      34.167  21.870  11.007  1.00  0.00     0.225 C 
HETATM    7  O1  UNL     1      34.087  22.073   9.768  1.00  0.00    -0.273 OA
ENDROOT
BRANCH   1   8
HETATM    8  C2  UNL     1      33.961  19.713  12.019  1.00  0.00    -0.023 C 
HETATM    9  C1  UNL     1      33.858  18.705  11.173  1.00  0.00     0.008 C 
ENDBRANCH   1   8
TORSDOF 1
ENDMDL
MODEL 2
REMARK VINA RESULT: -4.195130793      1.861      2.654
REMARK  1 active torsions:
REMARK  status: ('A' for Active; 'I' for Inactive)
REMARK    1  A    between atoms: C2_2  and  C3_3 
ROOT
HETATM    1  C3  UNL     1      34.949  21.249  12.384  1.00  0.00     0.101 C 
HETATM    2  C4  UNL     1      34.363  19.858  12.274  1.00  0.00     0.037 C 
HETATM    3  C5  UNL     1      32.908  20.127  12.012  1.00  0.00     0.123 C 
HETATM    4  N1  UNL     1      32.645  21.377  12.728  1.00  0.00    -0.360 N 
ATOM      5  H1  UNL     1      31.721  21.776  12.894  1.00  0.00     0.162 HD
HETATM    6  C6  UNL     1      33.875  21.950  13.156  1.00  0.00     0.225 C 
HETATM    7  O1  UNL     1      33.986  22.863  14.014  1.00  0.00    -0.273 OA
ENDROOT
BRANCH   1   8
HETATM    8  C2  UNL     1      35.063  21.921  11.081  1.00  0.00    -0.023 C 
HETATM    9  C1  UNL     1      35.385  21.215  10.012  1.00  0.00     0.008 C 
ENDBRANCH   1   8
TORSDOF 1
ENDMDL
MODEL 3
REMARK VINA RESULT: -4.088591310      2.058      2.881
REMARK  1 active torsions:
REMARK  status: ('A' for Active; 'I' for Inactive)
REMARK    1  A    between atoms: C2_2  and  C3_3 
ROOT
HETATM    1  C3  UNL     1      34.233  20.704  12.664  1.00  0.00     0.101 C 
HETATM    2  C4  UNL     1      35.428  21.525  12.228  1.00  0.00     0.037 C 
HETATM    3  C5  UNL     1      35.264  21.591  10.736  1.00  0.00     0.123 C 
HETATM    4  N1  UNL     1      34.621  20.320  10.395  1.00  0.00    -0.360 N 
ATOM      5  H1  UNL     1      34.498  19.958   9.449  1.00  0.00     0.162 HD
HETATM    6  C6  UNL     1      34.192  19.667  11.585  1.00  0.00     0.225 C 
HETATM    7  O1  UNL     1      33.856  18.458  11.662  1.00  0.00    -0.273 OA
ENDROOT
BRANCH   1   8
HETATM    8  C2  UNL     1      32.973  21.458  12.596  1.00  0.00    -0.023 C 
HETATM    9  C1  UNL     1      32.806  22.515  13.369  1.00  0.00     0.008 C 
ENDBRANCH   1   8
TORSDOF 1
ENDMDL
MODEL 4
REMARK VINA RESULT: -4.028648893      1.950      2.265
REMARK  1 active torsions:
REMARK  status: ('A' for Active; 'I' for Inactive)
REMARK    1  A    between atoms: C2_2  and  C3_3 
ROOT
HETATM    1  C3  UNL     1      34.088  20.548  12.547  1.00  0.00     0.101 C 
HETATM    2  C4  UNL     1      35.328  21.335  12.915  1.00  0.00     0.037 C 
HETATM    3  C5  UNL     1      35.631  22.093  11.653  1.00  0.00     0.123 C 
HETATM    4  N1  UNL     1      35.172  21.200  10.586  1.00  0.00    -0.360 N 
ATOM      5  H1  UNL     1      35.361  21.327   9.592  1.00  0.00     0.162 HD
HETATM    6  C6  UNL     1      34.422  20.130  11.148  1.00  0.00     0.225 C 
HETATM    7  O1  UNL     1      34.122  19.066  10.549  1.00  0.00    -0.273 OA
ENDROOT
BRANCH   1   8
HETATM    8  C2  UNL     1      32.883  21.387  12.479  1.00  0.00    -0.023 C 
HETATM    9  C1  UNL     1      31.695  20.814  12.431  1.00  0.00     0.008 C 
ENDBRANCH   1   8
TORSDOF 1
ENDMDL
MODEL 5
REMARK VINA RESULT: -3.991899008      2.075      3.055
REMARK  1 active torsions:
REMARK  status: ('A' for Active; 'I' for Inactive)
REMARK    1  A    between atoms: C2_2  and  C3_3 
ROOT
HETATM    1  C3  UNL     1      34.761  20.480  11.943  1.00  0.00     0.101 C 
HETATM    2  C4  UNL     1      35.267  21.287  10.767  1.00  0.00     0.037 C 
HETATM    3  C5  UNL     1      34.091  21.293   9.833  1.00  0.00     0.123 C 
HETATM    4  N1  UNL     1      33.435  20.007  10.083  1.00  0.00    -0.360 N 
ATOM      5  H1  UNL     1      32.688  19.608   9.514  1.00  0.00     0.162 HD
HETATM    6  C6  UNL     1      33.998  19.400  11.240  1.00  0.00     0.225 C 
HETATM    7  O1  UNL     1      33.853  18.194  11.565  1.00  0.00    -0.273 OA
ENDROOT
BRANCH   1   8
HETATM    8  C2  UNL     1      33.803  21.226  12.773  1.00  0.00    -0.023 C 
HETATM    9  C1  UNL     1      34.193  22.332  13.378  1.00  0.00     0.008 C 
ENDBRANCH   1   8
TORSDOF 1
ENDMDL
