MODEL 1
REMARK VINA RESULT: -6.280815886      0.000      0.000
REMARK  13 active torsions:
REMARK  status: ('A' for Active; 'I' for Inactive)
REMARK    1  A    between atoms: C2_2  and  O1_3 
REMARK    2  A    between atoms: N1_6  and  C4_7 
REMARK    3  A    between atoms: C7_10  and  O2_11 
REMARK    4  A    between atoms: O2_11  and  C8_12 
REMARK    5  A    between atoms: C8_12  and  C9_13 
REMARK    6  A    between atoms: C10_15  and  O4_16 
REMARK    7  A    between atoms: O4_16  and  C11_17 
REMARK    8  A    between atoms: C11_17  and  C12_18 
REMARK    9  A    between atoms: C18_24  and  O5_25 
REMARK   10  A    between atoms: C19_27  and  O6_28 
REMARK   11  A    between atoms: C20_30  and  O7_31 
REMARK   12  A    between atoms: C21_33  and  O8_34 
REMARK   13  A    between atoms: C22_36  and  O9_37 
ROOT
HETATM    1  C9  UNL     1       6.655   5.731   8.332  1.00  0.00     0.180 C 
HETATM    2  O3  UNL     1       5.563   6.437   8.748  1.00  0.00    -0.348 OA
HETATM    3  C10 UNL     1       5.633   7.812   8.643  1.00  0.00     0.291 C 
HETATM    4  C18 UNL     1       7.051   8.346   8.736  1.00  0.00     0.204 C 
HETATM    5  C19 UNL     1       7.767   7.430   9.703  1.00  0.00     0.183 C 
HETATM    6  C20 UNL     1       7.969   6.118   8.973  1.00  0.00     0.180 C 
ENDROOT
BRANCH   1   7
HETATM    7  C8  UNL     1       6.779   5.559   6.835  1.00  0.00     0.205 C 
BRANCH   7   8
HETATM    8  O2  UNL     1       6.005   4.577   6.294  1.00  0.00    -0.352 OA
BRANCH   8   9
HETATM    9  C7  UNL     1       4.649   4.759   6.300  1.00  0.00     0.391 C 
HETATM   10  N1  UNL     1       3.935   3.481   6.443  1.00  0.00     0.127 N 
HETATM   11  C3  UNL     1       4.725   2.486   5.803  1.00  0.00     0.316 C 
HETATM   12  C2  UNL     1       4.752   2.758   4.316  1.00  0.00     0.109 C 
HETATM   13  C1  UNL     1       3.558   2.126   3.630  1.00  0.00     0.050 C 
HETATM   14  C22 UNL     1       4.977   4.185   3.964  1.00  0.00     0.187 C 
HETATM   15  C21 UNL     1       4.273   5.177   4.862  1.00  0.00     0.209 C 
BRANCH  10  16
HETATM   16  C4  UNL     1       3.485   3.211   7.758  1.00  0.00     0.226 A 
HETATM   17  C5  UNL     1       2.780   4.281   8.499  1.00  0.00     0.038 A 
HETATM   18  C6  UNL     1       1.955   3.149   7.956  1.00  0.00     0.038 A 
ENDBRANCH  10  16
BRANCH  12  19
HETATM   19  O1  UNL     1       5.880   2.044   3.837  1.00  0.00    -0.386 OA
ATOM     20  H1  UNL     1       6.615   2.635   3.947  1.00  0.00     0.210 HD
ENDBRANCH  12  19
BRANCH  14  21
HETATM   21  O9  UNL     1       4.581   4.408   2.653  1.00  0.00    -0.390 OA
ATOM     22  H9  UNL     1       4.478   5.341   2.507  1.00  0.00     0.210 HD
ENDBRANCH  14  21
BRANCH  15  23
HETATM   23  O8  UNL     1       2.906   5.137   4.713  1.00  0.00    -0.388 OA
ATOM     24  H8  UNL     1       2.653   4.312   4.315  1.00  0.00     0.210 HD
ENDBRANCH  15  23
ENDBRANCH   8   9
ENDBRANCH   7   8
ENDBRANCH   1   7
BRANCH   6  25
HETATM   25  O7  UNL     1       8.961   6.337   8.011  1.00  0.00    -0.390 OA
ATOM     26  H7  UNL     1       9.700   5.754   8.136  1.00  0.00     0.210 HD
ENDBRANCH   6  25
BRANCH   3  27
HETATM   27  O4  UNL     1       4.802   8.405   9.571  1.00  0.00    -0.358 OA
BRANCH  27  28
HETATM   28  C11 UNL     1       3.832   9.232   9.114  1.00  0.00     0.175 C 
BRANCH  28  29
HETATM   29  C12 UNL     1       2.573   8.474   8.777  1.00  0.00     0.009 C 
HETATM   30  C13 UNL     1       1.388   9.426   8.631  1.00  0.00     0.007 C 
HETATM   31  C14 UNL     1       0.770   9.796   9.947  1.00  0.00     0.000 C 
HETATM   32  C15 UNL     1      -0.002   8.604  10.467  1.00  0.00     0.000 C 
HETATM   33  C16 UNL     1       0.696   7.377   9.939  1.00  0.00     0.000 C 
HETATM   34  C17 UNL     1       2.195   7.514   9.907  1.00  0.00     0.007 C 
ENDBRANCH  28  29
ENDBRANCH  27  28
ENDBRANCH   3  27
BRANCH   5  35
HETATM   35  O6  UNL     1       8.987   8.030  10.028  1.00  0.00    -0.390 OA
ATOM     36  H6  UNL     1       9.197   7.787  10.922  1.00  0.00     0.210 HD
ENDBRANCH   5  35
BRANCH   4  37
HETATM   37  O5  UNL     1       7.074   9.671   9.160  1.00  0.00    -0.388 OA
ATOM     38  H5  UNL     1       7.741   9.817   9.821  1.00  0.00     0.210 HD
ENDBRANCH   4  37
TORSDOF 13
ENDMDL
MODEL 2
REMARK VINA RESULT: -6.243044860      1.378      2.784
REMARK  13 active torsions:
REMARK  status: ('A' for Active; 'I' for Inactive)
REMARK    1  A    between atoms: C2_2  and  O1_3 
REMARK    2  A    between atoms: N1_6  and  C4_7 
REMARK    3  A    between atoms: C7_10  and  O2_11 
REMARK    4  A    between atoms: O2_11  and  C8_12 
REMARK    5  A    between atoms: C8_12  and  C9_13 
REMARK    6  A    between atoms: C10_15  and  O4_16 
REMARK    7  A    between atoms: O4_16  and  C11_17 
REMARK    8  A    between atoms: C11_17  and  C12_18 
REMARK    9  A    between atoms: C18_24  and  O5_25 
REMARK   10  A    between atoms: C19_27  and  O6_28 
REMARK   11  A    between atoms: C20_30  and  O7_31 
REMARK   12  A    between atoms: C21_33  and  O8_34 
REMARK   13  A    between atoms: C22_36  and  O9_37 
ROOT
HETATM    1  C9  UNL     1       7.006   5.958   8.645  1.00  0.00     0.180 C 
HETATM    2  O3  UNL     1       5.810   6.531   8.971  1.00  0.00    -0.348 OA
HETATM    3  C10 UNL     1       5.666   7.875   8.691  1.00  0.00     0.291 C 
HETATM    4  C18 UNL     1       6.981   8.633   8.709  1.00  0.00     0.204 C 
HETATM    5  C19 UNL     1       7.816   7.972   9.783  1.00  0.00     0.183 C 
HETATM    6  C20 UNL     1       8.232   6.626   9.227  1.00  0.00     0.180 C 
ENDROOT
BRANCH   1   7
HETATM    7  C8  UNL     1       7.180   5.618   7.183  1.00  0.00     0.205 C 
BRANCH   7   8
HETATM    8  O2  UNL     1       6.024   5.477   6.475  1.00  0.00    -0.352 OA
BRANCH   8   9
HETATM    9  C7  UNL     1       5.984   4.509   5.508  1.00  0.00     0.391 C 
HETATM   10  N1  UNL     1       4.769   4.618   4.687  1.00  0.00     0.127 N 
HETATM   11  C3  UNL     1       3.738   5.119   5.530  1.00  0.00     0.316 C 
HETATM   12  C2  UNL     1       3.411   4.080   6.578  1.00  0.00     0.109 C 
HETATM   13  C1  UNL     1       2.387   3.092   6.060  1.00  0.00     0.050 C 
HETATM   14  C22 UNL     1       4.605   3.454   7.205  1.00  0.00     0.187 C 
HETATM   15  C21 UNL     1       5.747   3.178   6.254  1.00  0.00     0.209 C 
BRANCH  10  16
HETATM   16  C4  UNL     1       4.966   5.265   3.443  1.00  0.00     0.226 A 
HETATM   17  C5  UNL     1       6.148   4.896   2.632  1.00  0.00     0.038 A 
HETATM   18  C6  UNL     1       4.809   4.383   2.184  1.00  0.00     0.038 A 
ENDBRANCH  10  16
BRANCH  12  19
HETATM   19  O1  UNL     1       2.749   4.799   7.607  1.00  0.00    -0.386 OA
ATOM     20  H1  UNL     1       3.321   4.737   8.363  1.00  0.00     0.210 HD
ENDBRANCH  12  19
BRANCH  14  21
HETATM   21  O9  UNL     1       4.238   2.266   7.821  1.00  0.00    -0.390 OA
ATOM     22  H9  UNL     1       5.008   1.843   8.180  1.00  0.00     0.210 HD
ENDBRANCH  14  21
BRANCH  15  23
HETATM   23  O8  UNL     1       5.444   2.189   5.347  1.00  0.00    -0.388 OA
ATOM     24  H8  UNL     1       6.153   2.102   4.721  1.00  0.00     0.210 HD
ENDBRANCH  15  23
ENDBRANCH   8   9
ENDBRANCH   7   8
ENDBRANCH   1   7
BRANCH   6  25
HETATM   25  O7  UNL     1       9.193   6.873   8.240  1.00  0.00    -0.390 OA
ATOM     26  H7  UNL     1       9.083   7.736   7.858  1.00  0.00     0.210 HD
ENDBRANCH   6  25
BRANCH   3  27
HETATM   27  O4  UNL     1       4.737   8.444   9.538  1.00  0.00    -0.358 OA
BRANCH  27  28
HETATM   28  C11 UNL     1       3.762   9.205   8.988  1.00  0.00     0.175 C 
BRANCH  28  29
HETATM   29  C12 UNL     1       2.516   8.399   8.719  1.00  0.00     0.009 C 
HETATM   30  C13 UNL     1       1.295   9.309   8.603  1.00  0.00     0.007 C 
HETATM   31  C14 UNL     1       0.720   9.688   9.935  1.00  0.00     0.000 C 
HETATM   32  C15 UNL     1       0.010   8.482  10.511  1.00  0.00     0.000 C 
HETATM   33  C16 UNL     1       0.726   7.268   9.981  1.00  0.00     0.000 C 
HETATM   34  C17 UNL     1       2.218   7.453   9.884  1.00  0.00     0.007 C 
ENDBRANCH  28  29
ENDBRANCH  27  28
ENDBRANCH   3  27
BRANCH   5  35
HETATM   35  O6  UNL     1       8.921   8.792  10.024  1.00  0.00    -0.390 OA
ATOM     36  H6  UNL     1       9.622   8.241  10.350  1.00  0.00     0.210 HD
ENDBRANCH   5  35
BRANCH   4  37
HETATM   37  O5  UNL     1       6.790   9.988   8.959  1.00  0.00    -0.388 OA
ATOM     38  H5  UNL     1       7.575  10.396   9.306  1.00  0.00     0.210 HD
ENDBRANCH   4  37
TORSDOF 13
ENDMDL
MODEL 3
REMARK VINA RESULT: -6.240913981      1.334      1.886
REMARK  13 active torsions:
REMARK  status: ('A' for Active; 'I' for Inactive)
REMARK    1  A    between atoms: C2_2  and  O1_3 
REMARK    2  A    between atoms: N1_6  and  C4_7 
REMARK    3  A    between atoms: C7_10  and  O2_11 
REMARK    4  A    between atoms: O2_11  and  C8_12 
REMARK    5  A    between atoms: C8_12  and  C9_13 
REMARK    6  A    between atoms: C10_15  and  O4_16 
REMARK    7  A    between atoms: O4_16  and  C11_17 
REMARK    8  A    between atoms: C11_17  and  C12_18 
REMARK    9  A    between atoms: C18_24  and  O5_25 
REMARK   10  A    between atoms: C19_27  and  O6_28 
REMARK   11  A    between atoms: C20_30  and  O7_31 
REMARK   12  A    between atoms: C21_33  and  O8_34 
REMARK   13  A    between atoms: C22_36  and  O9_37 
ROOT
HETATM    1  C9  UNL     1       6.769   6.227   8.613  1.00  0.00     0.180 C 
HETATM    2  O3  UNL     1       5.658   6.994   8.405  1.00  0.00    -0.348 OA
HETATM    3  C10 UNL     1       5.857   8.240   7.844  1.00  0.00     0.291 C 
HETATM    4  C18 UNL     1       7.221   8.826   8.160  1.00  0.00     0.204 C 
HETATM    5  C19 UNL     1       7.555   8.348   9.556  1.00  0.00     0.183 C 
HETATM    6  C20 UNL     1       7.863   6.870   9.436  1.00  0.00     0.180 C 
ENDROOT
BRANCH   1   7
HETATM    7  C8  UNL     1       7.311   5.532   7.385  1.00  0.00     0.205 C 
BRANCH   7   8
HETATM    8  O2  UNL     1       6.379   5.175   6.457  1.00  0.00    -0.352 OA
BRANCH   8   9
HETATM    9  C7  UNL     1       5.584   4.097   6.734  1.00  0.00     0.391 C 
HETATM   10  N1  UNL     1       5.857   2.977   5.820  1.00  0.00     0.127 N 
HETATM   11  C3  UNL     1       6.239   3.540   4.571  1.00  0.00     0.316 C 
HETATM   12  C2  UNL     1       5.051   4.257   3.970  1.00  0.00     0.109 C 
HETATM   13  C1  UNL     1       4.187   3.299   3.176  1.00  0.00     0.050 C 
HETATM   14  C22 UNL     1       4.301   5.103   4.936  1.00  0.00     0.187 C 
HETATM   15  C21 UNL     1       4.156   4.508   6.319  1.00  0.00     0.209 C 
BRANCH  10  16
HETATM   16  C4  UNL     1       6.694   1.973   6.366  1.00  0.00     0.226 A 
HETATM   17  C5  UNL     1       6.618   1.701   7.819  1.00  0.00     0.038 A 
HETATM   18  C6  UNL     1       5.984   0.706   6.891  1.00  0.00     0.038 A 
ENDBRANCH  10  16
BRANCH  12  19
HETATM   19  O1  UNL     1       5.608   5.142   3.012  1.00  0.00    -0.386 OA
ATOM     20  H1  UNL     1       5.915   5.889   3.510  1.00  0.00     0.210 HD
ENDBRANCH  12  19
BRANCH  14  21
HETATM   21  O9  UNL     1       3.038   5.376   4.432  1.00  0.00    -0.390 OA
ATOM     22  H9  UNL     1       2.385   5.210   5.101  1.00  0.00     0.210 HD
ENDBRANCH  14  21
BRANCH  15  23
HETATM   23  O8  UNL     1       3.337   3.403   6.328  1.00  0.00    -0.388 OA
ATOM     24  H8  UNL     1       3.040   3.219   5.444  1.00  0.00     0.210 HD
ENDBRANCH  15  23
ENDBRANCH   8   9
ENDBRANCH   7   8
ENDBRANCH   1   7
BRANCH   6  25
HETATM   25  O7  UNL     1       9.106   6.765   8.801  1.00  0.00    -0.390 OA
ATOM     26  H7  UNL     1       9.365   5.857   8.697  1.00  0.00     0.210 HD
ENDBRANCH   6  25
BRANCH   3  27
HETATM   27  O4  UNL     1       4.837   9.096   8.208  1.00  0.00    -0.358 OA
BRANCH  27  28
HETATM   28  C11 UNL     1       4.076   8.756   9.275  1.00  0.00     0.175 C 
BRANCH  28  29
HETATM   29  C12 UNL     1       2.803   8.069   8.849  1.00  0.00     0.009 C 
HETATM   30  C13 UNL     1       1.678   9.083   8.654  1.00  0.00     0.007 C 
HETATM   31  C14 UNL     1       1.002   9.461   9.938  1.00  0.00     0.000 C 
HETATM   32  C15 UNL     1       0.142   8.300  10.388  1.00  0.00     0.000 C 
HETATM   33  C16 UNL     1       0.808   7.049   9.877  1.00  0.00     0.000 C 
HETATM   34  C17 UNL     1       2.312   7.110   9.935  1.00  0.00     0.007 C 
ENDBRANCH  28  29
ENDBRANCH  27  28
ENDBRANCH   3  27
BRANCH   5  35
HETATM   35  O6  UNL     1       8.667   9.071   9.995  1.00  0.00    -0.390 OA
ATOM     36  H6  UNL     1       9.433   8.521   9.874  1.00  0.00     0.210 HD
ENDBRANCH   5  35
BRANCH   4  37
HETATM   37  O5  UNL     1       7.218  10.214   8.072  1.00  0.00    -0.388 OA
ATOM     38  H5  UNL     1       6.341  10.556   7.943  1.00  0.00     0.210 HD
ENDBRANCH   4  37
TORSDOF 13
ENDMDL
MODEL 4
REMARK VINA RESULT: -6.214385024      1.511      2.703
REMARK  13 active torsions:
REMARK  status: ('A' for Active; 'I' for Inactive)
REMARK    1  A    between atoms: C2_2  and  O1_3 
REMARK    2  A    between atoms: N1_6  and  C4_7 
REMARK    3  A    between atoms: C7_10  and  O2_11 
REMARK    4  A    between atoms: O2_11  and  C8_12 
REMARK    5  A    between atoms: C8_12  and  C9_13 
REMARK    6  A    between atoms: C10_15  and  O4_16 
REMARK    7  A    between atoms: O4_16  and  C11_17 
REMARK    8  A    between atoms: C11_17  and  C12_18 
REMARK    9  A    between atoms: C18_24  and  O5_25 
REMARK   10  A    between atoms: C19_27  and  O6_28 
REMARK   11  A    between atoms: C20_30  and  O7_31 
REMARK   12  A    between atoms: C21_33  and  O8_34 
REMARK   13  A    between atoms: C22_36  and  O9_37 
ROOT
HETATM    1  C9  UNL     1       6.913   6.289   8.724  1.00  0.00     0.180 C 
HETATM    2  O3  UNL     1       5.782   7.030   8.541  1.00  0.00    -0.348 OA
HETATM    3  C10 UNL     1       5.929   8.244   7.901  1.00  0.00     0.291 C 
HETATM    4  C18 UNL     1       7.302   8.861   8.099  1.00  0.00     0.204 C 
HETATM    5  C19 UNL     1       7.725   8.468   9.497  1.00  0.00     0.183 C 
HETATM    6  C20 UNL     1       8.047   6.988   9.441  1.00  0.00     0.180 C 
ENDROOT
BRANCH   1   7
HETATM    7  C8  UNL     1       7.390   5.529   7.507  1.00  0.00     0.205 C 
BRANCH   7   8
HETATM    8  O2  UNL     1       6.407   5.061   6.689  1.00  0.00    -0.352 OA
BRANCH   8   9
HETATM    9  C7  UNL     1       6.199   3.709   6.652  1.00  0.00     0.391 C 
HETATM   10  N1  UNL     1       5.743   3.271   5.323  1.00  0.00     0.127 N 
HETATM   11  C3  UNL     1       4.974   4.334   4.773  1.00  0.00     0.316 C 
HETATM   12  C2  UNL     1       3.711   4.501   5.586  1.00  0.00     0.109 C 
HETATM   13  C1  UNL     1       2.622   3.573   5.091  1.00  0.00     0.050 C 
HETATM   14  C22 UNL     1       3.927   4.463   7.057  1.00  0.00     0.187 C 
HETATM   15  C21 UNL     1       4.950   3.450   7.520  1.00  0.00     0.209 C 
BRANCH  10  16
HETATM   16  C4  UNL     1       6.763   2.716   4.514  1.00  0.00     0.226 A 
HETATM   17  C5  UNL     1       7.724   1.774   5.131  1.00  0.00     0.038 A 
HETATM   18  C6  UNL     1       6.664   1.200   4.235  1.00  0.00     0.038 A 
ENDBRANCH  10  16
BRANCH  12  19
HETATM   19  O1  UNL     1       3.255   5.810   5.283  1.00  0.00    -0.386 OA
ATOM     20  H1  UNL     1       2.368   5.849   5.618  1.00  0.00     0.210 HD
ENDBRANCH  12  19
BRANCH  14  21
HETATM   21  O9  UNL     1       2.723   4.209   7.697  1.00  0.00    -0.390 OA
ATOM     22  H9  UNL     1       2.865   3.597   8.410  1.00  0.00     0.210 HD
ENDBRANCH  14  21
BRANCH  15  23
HETATM   23  O8  UNL     1       4.521   2.155   7.338  1.00  0.00    -0.388 OA
ATOM     24  H8  UNL     1       3.783   2.146   6.739  1.00  0.00     0.210 HD
ENDBRANCH  15  23
ENDBRANCH   8   9
ENDBRANCH   7   8
ENDBRANCH   1   7
BRANCH   6  25
HETATM   25  O7  UNL     1       9.250   6.860   8.739  1.00  0.00    -0.390 OA
ATOM     26  H7  UNL     1       9.918   6.442   9.270  1.00  0.00     0.210 HD
ENDBRANCH   6  25
BRANCH   3  27
HETATM   27  O4  UNL     1       4.921   9.109   8.277  1.00  0.00    -0.358 OA
BRANCH  27  28
HETATM   28  C11 UNL     1       4.129   8.744   9.312  1.00  0.00     0.175 C 
BRANCH  28  29
HETATM   29  C12 UNL     1       2.911   7.992   8.838  1.00  0.00     0.009 C 
HETATM   30  C13 UNL     1       1.729   8.939   8.648  1.00  0.00     0.007 C 
HETATM   31  C14 UNL     1       1.004   9.235   9.927  1.00  0.00     0.000 C 
HETATM   32  C15 UNL     1       0.210   8.010  10.323  1.00  0.00     0.000 C 
HETATM   33  C16 UNL     1       0.964   6.818   9.791  1.00  0.00     0.000 C 
HETATM   34  C17 UNL     1       2.460   6.973   9.885  1.00  0.00     0.007 C 
ENDBRANCH  28  29
ENDBRANCH  27  28
ENDBRANCH   3  27
BRANCH   5  35
HETATM   35  O6  UNL     1       8.852   9.226   9.825  1.00  0.00    -0.390 OA
ATOM     36  H6  UNL     1       9.564   8.622   9.998  1.00  0.00     0.210 HD
ENDBRANCH   5  35
BRANCH   4  37
HETATM   37  O5  UNL     1       7.274  10.242   7.933  1.00  0.00    -0.388 OA
ATOM     38  H5  UNL     1       8.140  10.594   7.764  1.00  0.00     0.210 HD
ENDBRANCH   4  37
TORSDOF 13
ENDMDL
MODEL 5
REMARK VINA RESULT: -6.048747024      2.467      4.283
REMARK  13 active torsions:
REMARK  status: ('A' for Active; 'I' for Inactive)
REMARK    1  A    between atoms: C2_2  and  O1_3 
REMARK    2  A    between atoms: N1_6  and  C4_7 
REMARK    3  A    between atoms: C7_10  and  O2_11 
REMARK    4  A    between atoms: O2_11  and  C8_12 
REMARK    5  A    between atoms: C8_12  and  C9_13 
REMARK    6  A    between atoms: C10_15  and  O4_16 
REMARK    7  A    between atoms: O4_16  and  C11_17 
REMARK    8  A    between atoms: C11_17  and  C12_18 
REMARK    9  A    between atoms: C18_24  and  O5_25 
REMARK   10  A    between atoms: C19_27  and  O6_28 
REMARK   11  A    between atoms: C20_30  and  O7_31 
REMARK   12  A    between atoms: C21_33  and  O8_34 
REMARK   13  A    between atoms: C22_36  and  O9_37 
ROOT
HETATM    1  C9  UNL     1       6.013   6.119   8.592  1.00  0.00     0.180 C 
HETATM    2  O3  UNL     1       4.776   5.807   9.079  1.00  0.00    -0.348 OA
HETATM    3  C10 UNL     1       3.783   6.750   8.909  1.00  0.00     0.291 C 
HETATM    4  C18 UNL     1       4.314   8.171   8.845  1.00  0.00     0.204 C 
HETATM    5  C19 UNL     1       5.504   8.202   9.779  1.00  0.00     0.183 C 
HETATM    6  C20 UNL     1       6.603   7.420   9.090  1.00  0.00     0.180 C 
ENDROOT
BRANCH   1   7
HETATM    7  C8  UNL     1       6.180   5.950   7.100  1.00  0.00     0.205 C 
BRANCH   7   8
HETATM    8  O2  UNL     1       7.267   5.227   6.711  1.00  0.00    -0.352 OA
BRANCH   8   9
HETATM    9  C7  UNL     1       7.050   3.981   6.190  1.00  0.00     0.391 C 
HETATM   10  N1  UNL     1       7.546   2.927   7.089  1.00  0.00     0.127 N 
HETATM   11  C3  UNL     1       8.680   3.455   7.766  1.00  0.00     0.316 C 
HETATM   12  C2  UNL     1       9.793   3.675   6.767  1.00  0.00     0.109 C 
HETATM   13  C1  UNL     1      10.605   2.411   6.574  1.00  0.00     0.050 C 
HETATM   14  C22 UNL     1       9.353   4.319   5.501  1.00  0.00     0.187 C 
HETATM   15  C21 UNL     1       8.009   3.853   4.987  1.00  0.00     0.209 C 
BRANCH  10  16
HETATM   16  C4  UNL     1       6.541   2.316   7.877  1.00  0.00     0.226 A 
HETATM   17  C5  UNL     1       5.155   2.285   7.359  1.00  0.00     0.038 A 
HETATM   18  C6  UNL     1       5.941   1.006   7.322  1.00  0.00     0.038 A 
ENDBRANCH  10  16
BRANCH  12  19
HETATM   19  O1  UNL     1      10.672   4.592   7.398  1.00  0.00    -0.386 OA
ATOM     20  H1  UNL     1      10.234   5.433   7.349  1.00  0.00     0.210 HD
ENDBRANCH  12  19
BRANCH  14  21
HETATM   21  O9  UNL     1      10.306   4.108   4.516  1.00  0.00    -0.390 OA
ATOM     22  H9  UNL     1       9.927   4.282   3.663  1.00  0.00     0.210 HD
ENDBRANCH  14  21
BRANCH  15  23
HETATM   23  O8  UNL     1       8.039   2.547   4.558  1.00  0.00    -0.388 OA
ATOM     24  H8  UNL     1       8.092   2.524   3.609  1.00  0.00     0.210 HD
ENDBRANCH  15  23
ENDBRANCH   8   9
ENDBRANCH   7   8
ENDBRANCH   1   7
BRANCH   6  25
HETATM   25  O7  UNL     1       7.061   8.210   8.030  1.00  0.00    -0.390 OA
ATOM     26  H7  UNL     1       7.933   8.547   8.201  1.00  0.00     0.210 HD
ENDBRANCH   6  25
BRANCH   3  27
HETATM   27  O4  UNL     1       2.818   6.610   9.885  1.00  0.00    -0.358 OA
BRANCH  27  28
HETATM   28  C11 UNL     1       1.651   6.017   9.539  1.00  0.00     0.175 C 
BRANCH  28  29
HETATM   29  C12 UNL     1       1.540   4.631  10.124  1.00  0.00     0.009 C 
HETATM   30  C13 UNL     1       2.259   3.612   9.243  1.00  0.00     0.007 C 
HETATM   31  C14 UNL     1       1.427   3.150   8.084  1.00  0.00     0.000 C 
HETATM   32  C15 UNL     1       0.346   2.229   8.605  1.00  0.00     0.000 C 
HETATM   33  C16 UNL     1       0.037   2.681  10.009  1.00  0.00     0.000 C 
HETATM   34  C17 UNL     1       0.080   4.177  10.175  1.00  0.00     0.007 C 
ENDBRANCH  28  29
ENDBRANCH  27  28
ENDBRANCH   3  27
BRANCH   5  35
HETATM   35  O6  UNL     1       5.863   9.540   9.962  1.00  0.00    -0.390 OA
ATOM     36  H6  UNL     1       6.261   9.616  10.821  1.00  0.00     0.210 HD
ENDBRANCH   5  35
BRANCH   4  37
HETATM   37  O5  UNL     1       3.344   9.100   9.208  1.00  0.00    -0.388 OA
ATOM     38  H5  UNL     1       3.731   9.894   9.555  1.00  0.00     0.210 HD
ENDBRANCH   4  37
TORSDOF 13
ENDMDL
