MODEL 1
REMARK VINA RESULT: -6.630015526      0.000      0.000
REMARK  12 active torsions:
REMARK  status: ('A' for Active; 'I' for Inactive)
REMARK       I    between atoms: C2_2  and  N1_4 
REMARK    1  A    between atoms: N1_4  and  C3_6 
REMARK    2  A    between atoms: C4_7  and  O2_8 
REMARK    3  A    between atoms: O2_8  and  C5_9 
REMARK    4  A    between atoms: C11_16  and  C12_17 
REMARK    5  A    between atoms: C12_17  and  O4_18 
REMARK    6  A    between atoms: O4_18  and  C13_19 
REMARK    7  A    between atoms: C15_21  and  N2_22 
REMARK    8  A    between atoms: C16_26  and  O5_28 
REMARK    9  A    between atoms: C18_30  and  C19_31 
REMARK   10  A    between atoms: C19_31  and  O6_32 
REMARK   11  A    between atoms: C20_35  and  O8_36 
REMARK   12  A    between atoms: C21_38  and  O9_39 
ROOT
HETATM    1  C3  UNL     1       5.715   4.288   4.700  1.00  0.00     0.170 C 
HETATM    2  C4  UNL     1       5.611   4.454   6.180  1.00  0.00     0.286 C 
HETATM    3  O3  UNL     1       6.706   3.794   6.789  1.00  0.00    -0.349 OA
HETATM    4  C11 UNL     1       7.875   4.342   6.285  1.00  0.00     0.179 C 
HETATM    5  C20 UNL     1       8.144   3.784   4.923  1.00  0.00     0.180 C 
HETATM    6  C21 UNL     1       6.839   3.314   4.340  1.00  0.00     0.177 C 
ENDROOT
BRANCH   4   7
HETATM    7  C12 UNL     1       9.034   4.200   7.242  1.00  0.00     0.205 C 
BRANCH   7   8
HETATM    8  O4  UNL     1       9.577   5.436   7.582  1.00  0.00    -0.359 OA
BRANCH   8   9
HETATM    9  C13 UNL     1       8.577   6.370   7.877  1.00  0.00     0.262 C 
HETATM   10  C14 UNL     1       9.086   7.704   7.441  1.00  0.00     0.096 C 
HETATM   11  C15 UNL     1       8.136   8.800   7.787  1.00  0.00     0.224 C 
HETATM   12  C16 UNL     1       7.232   8.379   8.912  1.00  0.00     0.110 C 
HETATM   13  C17 UNL     1       6.633   9.512   9.682  1.00  0.00     0.051 C 
HETATM   14  C18 UNL     1       7.852   7.394   9.840  1.00  0.00     0.184 C 
HETATM   15  O7  UNL     1       8.286   6.236   9.206  1.00  0.00    -0.351 OA
BRANCH  11  16
HETATM   16  N2  UNL     1       8.916   9.983   8.110  1.00  0.00    -0.072 N 
ATOM     17  H23 UNL     1       9.875   9.763   8.377  1.00  0.00     0.274 HD
ATOM     18  H22 UNL     1       9.131  10.551   7.290  1.00  0.00     0.274 HD
ATOM     19  H21 UNL     1       8.414  10.503   8.830  1.00  0.00     0.274 HD
ENDBRANCH  11  16
BRANCH  12  20
HETATM   20  O5  UNL     1       6.145   7.710   8.298  1.00  0.00    -0.385 OA
ATOM     21  H5  UNL     1       5.425   8.329   8.308  1.00  0.00     0.210 HD
ENDBRANCH  12  20
BRANCH  14  22
HETATM   22  C19 UNL     1       8.957   7.931  10.705  1.00  0.00     0.199 C 
BRANCH  22  23
HETATM   23  O6  UNL     1       9.375   7.054  11.700  1.00  0.00    -0.398 OA
ATOM     24  H6  UNL     1       9.520   7.467  12.543  1.00  0.00     0.209 HD
ENDBRANCH  22  23
ENDBRANCH  14  22
ENDBRANCH   8   9
ENDBRANCH   7   8
ENDBRANCH   4   7
BRANCH   5  25
HETATM   25  O8  UNL     1       8.637   4.795   4.111  1.00  0.00    -0.390 OA
ATOM     26  H8  UNL     1       9.454   4.506   3.720  1.00  0.00     0.210 HD
ENDBRANCH   5  25
BRANCH   2  27
HETATM   27  O2  UNL     1       4.482   3.902   6.755  1.00  0.00    -0.354 OA
BRANCH  27  28
HETATM   28  C5  UNL     1       3.982   4.777   7.699  1.00  0.00     0.124 C 
HETATM   29  C6  UNL     1       2.933   4.127   8.580  1.00  0.00     0.032 C 
HETATM   30  C7  UNL     1       2.234   5.217   9.351  1.00  0.00     0.002 C 
HETATM   31  C8  UNL     1       3.017   6.507   9.354  1.00  0.00     0.000 C 
HETATM   32  C9  UNL     1       3.056   7.071   7.943  1.00  0.00     0.002 C 
HETATM   33  C10 UNL     1       3.380   5.963   6.974  1.00  0.00     0.032 C 
ENDBRANCH  27  28
ENDBRANCH   2  27
BRANCH   6  34
HETATM   34  O9  UNL     1       6.514   2.018   4.687  1.00  0.00    -0.391 OA
ATOM     35  H9  UNL     1       6.266   1.507   3.926  1.00  0.00     0.210 HD
ENDBRANCH   6  34
BRANCH   1  36
HETATM   36  N1  UNL     1       4.510   3.849   4.073  1.00  0.00    -0.349 N 
HETATM   37  C2  UNL     1       3.953   4.603   3.012  1.00  0.00     0.214 C 
HETATM   38  C1  UNL     1       2.702   4.178   2.336  1.00  0.00     0.117 C 
HETATM   39  O1  UNL     1       4.502   5.663   2.609  1.00  0.00    -0.274 OA
ATOM     40  H1  UNL     1       4.053   2.993   4.388  1.00  0.00     0.163 HD
ENDBRANCH   1  36
TORSDOF 12
ENDMDL
MODEL 2
REMARK VINA RESULT: -6.430309084      3.159      7.135
REMARK  12 active torsions:
REMARK  status: ('A' for Active; 'I' for Inactive)
REMARK       I    between atoms: C2_2  and  N1_4 
REMARK    1  A    between atoms: N1_4  and  C3_6 
REMARK    2  A    between atoms: C4_7  and  O2_8 
REMARK    3  A    between atoms: O2_8  and  C5_9 
REMARK    4  A    between atoms: C11_16  and  C12_17 
REMARK    5  A    between atoms: C12_17  and  O4_18 
REMARK    6  A    between atoms: O4_18  and  C13_19 
REMARK    7  A    between atoms: C15_21  and  N2_22 
REMARK    8  A    between atoms: C16_26  and  O5_28 
REMARK    9  A    between atoms: C18_30  and  C19_31 
REMARK   10  A    between atoms: C19_31  and  O6_32 
REMARK   11  A    between atoms: C20_35  and  O8_36 
REMARK   12  A    between atoms: C21_38  and  O9_39 
ROOT
HETATM    1  C3  UNL     1       6.597   5.805   7.962  1.00  0.00     0.170 C 
HETATM    2  C4  UNL     1       5.123   5.792   8.194  1.00  0.00     0.286 C 
HETATM    3  O3  UNL     1       4.559   4.713   7.472  1.00  0.00    -0.349 OA
HETATM    4  C11 UNL     1       5.163   3.543   7.904  1.00  0.00     0.179 C 
HETATM    5  C20 UNL     1       6.513   3.414   7.272  1.00  0.00     0.180 C 
HETATM    6  C21 UNL     1       6.986   4.788   6.886  1.00  0.00     0.177 C 
ENDROOT
BRANCH   4   7
HETATM    7  C12 UNL     1       4.279   2.334   7.706  1.00  0.00     0.205 C 
BRANCH   7   8
HETATM    8  O4  UNL     1       2.945   2.693   7.533  1.00  0.00    -0.359 OA
BRANCH   8   9
HETATM    9  C13 UNL     1       2.221   2.558   8.723  1.00  0.00     0.262 C 
HETATM   10  C14 UNL     1       2.276   1.116   9.104  1.00  0.00     0.096 C 
HETATM   11  C15 UNL     1       1.459   0.830  10.319  1.00  0.00     0.224 C 
HETATM   12  C16 UNL     1       0.407   1.888  10.506  1.00  0.00     0.110 C 
HETATM   13  C17 UNL     1      -0.765   1.456  11.327  1.00  0.00     0.051 C 
HETATM   14  C18 UNL     1      -0.052   2.508   9.233  1.00  0.00     0.184 C 
HETATM   15  O7  UNL     1       0.978   3.078   8.494  1.00  0.00    -0.351 OA
BRANCH  11  16
HETATM   16  N2  UNL     1       0.893  -0.500  10.175  1.00  0.00    -0.072 N 
ATOM     17  H23 UNL     1       0.860  -0.813   9.205  1.00  0.00     0.274 HD
ATOM     18  H22 UNL     1       1.508  -1.232  10.533  1.00  0.00     0.274 HD
ATOM     19  H21 UNL     1      -0.024  -0.502  10.622  1.00  0.00     0.274 HD
ENDBRANCH  11  16
BRANCH  12  20
HETATM   20  O5  UNL     1       1.036   2.923  11.242  1.00  0.00    -0.385 OA
ATOM     21  H5  UNL     1       0.341   3.527  11.477  1.00  0.00     0.210 HD
ENDBRANCH  12  20
BRANCH  14  22
HETATM   22  C19 UNL     1      -0.869   1.616   8.342  1.00  0.00     0.199 C 
BRANCH  22  23
HETATM   23  O6  UNL     1      -0.768   1.921   6.989  1.00  0.00    -0.398 OA
ATOM     24  H6  UNL     1      -1.533   1.682   6.480  1.00  0.00     0.209 HD
ENDBRANCH  22  23
ENDBRANCH  14  22
ENDBRANCH   8   9
ENDBRANCH   7   8
ENDBRANCH   4   7
BRANCH   5  25
HETATM   25  O8  UNL     1       7.401   2.901   8.206  1.00  0.00    -0.390 OA
ATOM     26  H8  UNL     1       8.100   3.530   8.345  1.00  0.00     0.210 HD
ENDBRANCH   5  25
BRANCH   2  27
HETATM   27  O2  UNL     1       4.450   6.919   7.759  1.00  0.00    -0.354 OA
BRANCH  27  28
HETATM   28  C5  UNL     1       3.230   6.992   8.399  1.00  0.00     0.124 C 
HETATM   29  C6  UNL     1       2.743   8.421   8.538  1.00  0.00     0.032 C 
HETATM   30  C7  UNL     1       1.589   8.427   9.507  1.00  0.00     0.002 C 
HETATM   31  C8  UNL     1       1.006   7.050   9.708  1.00  0.00     0.000 C 
HETATM   32  C9  UNL     1       2.027   6.174  10.415  1.00  0.00     0.002 C 
HETATM   33  C10 UNL     1       3.376   6.364   9.770  1.00  0.00     0.032 C 
ENDBRANCH  27  28
ENDBRANCH   2  27
BRANCH   6  34
HETATM   34  O9  UNL     1       6.561   5.189   5.636  1.00  0.00    -0.391 OA
ATOM     35  H9  UNL     1       5.804   4.690   5.351  1.00  0.00     0.210 HD
ENDBRANCH   6  34
BRANCH   1  36
HETATM   36  N1  UNL     1       7.123   7.081   7.596  1.00  0.00    -0.349 N 
HETATM   37  C2  UNL     1       8.105   7.698   8.410  1.00  0.00     0.214 C 
HETATM   38  C1  UNL     1       8.675   9.023   8.063  1.00  0.00     0.117 C 
HETATM   39  O1  UNL     1       8.525   7.139   9.458  1.00  0.00    -0.274 OA
ATOM     40  H1  UNL     1       6.793   7.547   6.752  1.00  0.00     0.163 HD
ENDBRANCH   1  36
TORSDOF 12
ENDMDL
MODEL 3
REMARK VINA RESULT: -6.394217946      2.213      6.645
REMARK  12 active torsions:
REMARK  status: ('A' for Active; 'I' for Inactive)
REMARK       I    between atoms: C2_2  and  N1_4 
REMARK    1  A    between atoms: N1_4  and  C3_6 
REMARK    2  A    between atoms: C4_7  and  O2_8 
REMARK    3  A    between atoms: O2_8  and  C5_9 
REMARK    4  A    between atoms: C11_16  and  C12_17 
REMARK    5  A    between atoms: C12_17  and  O4_18 
REMARK    6  A    between atoms: O4_18  and  C13_19 
REMARK    7  A    between atoms: C15_21  and  N2_22 
REMARK    8  A    between atoms: C16_26  and  O5_28 
REMARK    9  A    between atoms: C18_30  and  C19_31 
REMARK   10  A    between atoms: C19_31  and  O6_32 
REMARK   11  A    between atoms: C20_35  and  O8_36 
REMARK   12  A    between atoms: C21_38  and  O9_39 
ROOT
HETATM    1  C3  UNL     1       6.538   5.742   7.905  1.00  0.00     0.170 C 
HETATM    2  C4  UNL     1       5.057   5.686   8.075  1.00  0.00     0.286 C 
HETATM    3  O3  UNL     1       4.550   4.621   7.290  1.00  0.00    -0.349 OA
HETATM    4  C11 UNL     1       5.165   3.450   7.704  1.00  0.00     0.179 C 
HETATM    5  C20 UNL     1       6.542   3.377   7.125  1.00  0.00     0.180 C 
HETATM    6  C21 UNL     1       6.997   4.776   6.810  1.00  0.00     0.177 C 
ENDROOT
BRANCH   4   7
HETATM    7  C12 UNL     1       4.320   2.230   7.426  1.00  0.00     0.205 C 
BRANCH   7   8
HETATM    8  O4  UNL     1       2.962   2.533   7.417  1.00  0.00    -0.359 OA
BRANCH   8   9
HETATM    9  C13 UNL     1       2.412   2.377   6.139  1.00  0.00     0.262 C 
HETATM   10  C14 UNL     1       3.388   1.578   5.341  1.00  0.00     0.096 C 
HETATM   11  C15 UNL     1       2.950   1.420   3.925  1.00  0.00     0.224 C 
HETATM   12  C16 UNL     1       1.983   2.509   3.548  1.00  0.00     0.110 C 
HETATM   13  C17 UNL     1       1.893   2.775   2.080  1.00  0.00     0.051 C 
HETATM   14  C18 UNL     1       2.195   3.781   4.292  1.00  0.00     0.184 C 
HETATM   15  O7  UNL     1       2.127   3.630   5.672  1.00  0.00    -0.351 OA
BRANCH  11  16
HETATM   16  N2  UNL     1       4.137   1.413   3.087  1.00  0.00    -0.072 N 
ATOM     17  H23 UNL     1       4.622   2.310   3.081  1.00  0.00     0.274 HD
ATOM     18  H22 UNL     1       4.894   0.853   3.479  1.00  0.00     0.274 HD
ATOM     19  H21 UNL     1       3.861   1.107   2.154  1.00  0.00     0.274 HD
ENDBRANCH  11  16
BRANCH  12  20
HETATM   20  O5  UNL     1       0.706   2.035   3.935  1.00  0.00    -0.385 OA
ATOM     21  H5  UNL     1       0.238   2.796   4.260  1.00  0.00     0.210 HD
ENDBRANCH  12  20
BRANCH  14  22
HETATM   22  C19 UNL     1       3.444   4.535   3.935  1.00  0.00     0.199 C 
BRANCH  22  23
HETATM   23  O6  UNL     1       3.747   5.574   4.808  1.00  0.00    -0.398 OA
ATOM     24  H6  UNL     1       4.332   6.228   4.444  1.00  0.00     0.209 HD
ENDBRANCH  22  23
ENDBRANCH  14  22
ENDBRANCH   8   9
ENDBRANCH   7   8
ENDBRANCH   4   7
BRANCH   5  25
HETATM   25  O8  UNL     1       7.404   2.850   8.076  1.00  0.00    -0.390 OA
ATOM     26  H8  UNL     1       8.067   3.498   8.285  1.00  0.00     0.210 HD
ENDBRANCH   5  25
BRANCH   2  27
HETATM   27  O2  UNL     1       4.375   6.812   7.653  1.00  0.00    -0.354 OA
BRANCH  27  28
HETATM   28  C5  UNL     1       3.182   6.902   8.341  1.00  0.00     0.124 C 
HETATM   29  C6  UNL     1       2.696   8.333   8.457  1.00  0.00     0.032 C 
HETATM   30  C7  UNL     1       1.582   8.365   9.473  1.00  0.00     0.002 C 
HETATM   31  C8  UNL     1       1.014   6.993   9.740  1.00  0.00     0.000 C 
HETATM   32  C9  UNL     1       2.067   6.142  10.430  1.00  0.00     0.002 C 
HETATM   33  C10 UNL     1       3.387   6.316   9.723  1.00  0.00     0.032 C 
ENDBRANCH  27  28
ENDBRANCH   2  27
BRANCH   6  34
HETATM   34  O9  UNL     1       6.613   5.213   5.558  1.00  0.00    -0.391 OA
ATOM     35  H9  UNL     1       5.681   5.089   5.418  1.00  0.00     0.210 HD
ENDBRANCH   6  34
BRANCH   1  36
HETATM   36  N1  UNL     1       7.047   7.043   7.609  1.00  0.00    -0.349 N 
HETATM   37  C2  UNL     1       8.012   7.633   8.461  1.00  0.00     0.214 C 
HETATM   38  C1  UNL     1       8.563   8.983   8.186  1.00  0.00     0.117 C 
HETATM   39  O1  UNL     1       8.433   7.028   9.483  1.00  0.00    -0.274 OA
ATOM     40  H1  UNL     1       6.716   7.546   6.786  1.00  0.00     0.163 HD
ENDBRANCH   1  36
TORSDOF 12
ENDMDL
MODEL 4
REMARK VINA RESULT: -6.314443998      3.115      6.821
REMARK  12 active torsions:
REMARK  status: ('A' for Active; 'I' for Inactive)
REMARK       I    between atoms: C2_2  and  N1_4 
REMARK    1  A    between atoms: N1_4  and  C3_6 
REMARK    2  A    between atoms: C4_7  and  O2_8 
REMARK    3  A    between atoms: O2_8  and  C5_9 
REMARK    4  A    between atoms: C11_16  and  C12_17 
REMARK    5  A    between atoms: C12_17  and  O4_18 
REMARK    6  A    between atoms: O4_18  and  C13_19 
REMARK    7  A    between atoms: C15_21  and  N2_22 
REMARK    8  A    between atoms: C16_26  and  O5_28 
REMARK    9  A    between atoms: C18_30  and  C19_31 
REMARK   10  A    between atoms: C19_31  and  O6_32 
REMARK   11  A    between atoms: C20_35  and  O8_36 
REMARK   12  A    between atoms: C21_38  and  O9_39 
ROOT
HETATM    1  C3  UNL     1       6.522   5.725   7.907  1.00  0.00     0.170 C 
HETATM    2  C4  UNL     1       5.042   5.686   8.094  1.00  0.00     0.286 C 
HETATM    3  O3  UNL     1       4.516   4.620   7.323  1.00  0.00    -0.349 OA
HETATM    4  C11 UNL     1       5.123   3.446   7.739  1.00  0.00     0.179 C 
HETATM    5  C20 UNL     1       6.493   3.354   7.146  1.00  0.00     0.180 C 
HETATM    6  C21 UNL     1       6.959   4.746   6.815  1.00  0.00     0.177 C 
ENDROOT
BRANCH   4   7
HETATM    7  C12 UNL     1       4.263   2.232   7.480  1.00  0.00     0.205 C 
BRANCH   7   8
HETATM    8  O4  UNL     1       3.011   2.583   6.983  1.00  0.00    -0.359 OA
BRANCH   8   9
HETATM    9  C13 UNL     1       1.983   1.981   7.717  1.00  0.00     0.262 C 
HETATM   10  C14 UNL     1       1.626   2.924   8.818  1.00  0.00     0.096 C 
HETATM   11  C15 UNL     1       0.594   2.350   9.728  1.00  0.00     0.224 C 
HETATM   12  C16 UNL     1       0.590   0.849   9.639  1.00  0.00     0.110 C 
HETATM   13  C17 UNL     1       0.016   0.160  10.835  1.00  0.00     0.051 C 
HETATM   14  C18 UNL     1       1.916   0.266   9.294  1.00  0.00     0.184 C 
HETATM   15  O7  UNL     1       2.435   0.748   8.098  1.00  0.00    -0.351 OA
BRANCH  11  16
HETATM   16  N2  UNL     1       0.867   2.829  11.073  1.00  0.00    -0.072 N 
ATOM     17  H23 UNL     1       0.042   2.815  11.672  1.00  0.00     0.274 HD
ATOM     18  H22 UNL     1       1.440   2.181  11.614  1.00  0.00     0.274 HD
ATOM     19  H21 UNL     1       1.285   3.757  10.997  1.00  0.00     0.274 HD
ENDBRANCH  11  16
BRANCH  12  20
HETATM   20  O5  UNL     1      -0.271   0.533   8.559  1.00  0.00    -0.385 OA
ATOM     21  H5  UNL     1      -0.815  -0.181   8.867  1.00  0.00     0.210 HD
ENDBRANCH  12  20
BRANCH  14  22
HETATM   22  C19 UNL     1       2.963   0.368  10.367  1.00  0.00     0.199 C 
BRANCH  22  23
HETATM   23  O6  UNL     1       4.171  -0.236  10.039  1.00  0.00    -0.398 OA
ATOM     24  H6  UNL     1       4.907   0.063  10.559  1.00  0.00     0.209 HD
ENDBRANCH  22  23
ENDBRANCH  14  22
ENDBRANCH   8   9
ENDBRANCH   7   8
ENDBRANCH   4   7
BRANCH   5  25
HETATM   25  O8  UNL     1       7.360   2.826   8.092  1.00  0.00    -0.390 OA
ATOM     26  H8  UNL     1       7.346   3.378   8.865  1.00  0.00     0.210 HD
ENDBRANCH   5  25
BRANCH   2  27
HETATM   27  O2  UNL     1       4.367   6.815   7.671  1.00  0.00    -0.354 OA
BRANCH  27  28
HETATM   28  C5  UNL     1       3.173   6.911   8.357  1.00  0.00     0.124 C 
HETATM   29  C6  UNL     1       2.682   8.342   8.451  1.00  0.00     0.032 C 
HETATM   30  C7  UNL     1       1.568   8.386   9.465  1.00  0.00     0.002 C 
HETATM   31  C8  UNL     1       1.004   7.016   9.752  1.00  0.00     0.000 C 
HETATM   32  C9  UNL     1       2.060   6.179  10.457  1.00  0.00     0.002 C 
HETATM   33  C10 UNL     1       3.379   6.347   9.748  1.00  0.00     0.032 C 
ENDBRANCH  27  28
ENDBRANCH   2  27
BRANCH   6  34
HETATM   34  O9  UNL     1       6.565   5.177   5.564  1.00  0.00    -0.391 OA
ATOM     35  H9  UNL     1       5.649   4.983   5.402  1.00  0.00     0.210 HD
ENDBRANCH   6  34
BRANCH   1  36
HETATM   36  N1  UNL     1       7.040   7.018   7.596  1.00  0.00    -0.349 N 
HETATM   37  C2  UNL     1       8.020   7.606   8.434  1.00  0.00     0.214 C 
HETATM   38  C1  UNL     1       8.582   8.948   8.142  1.00  0.00     0.117 C 
HETATM   39  O1  UNL     1       8.445   7.005   9.456  1.00  0.00    -0.274 OA
ATOM     40  H1  UNL     1       6.706   7.518   6.772  1.00  0.00     0.163 HD
ENDBRANCH   1  36
TORSDOF 12
ENDMDL
MODEL 5
REMARK VINA RESULT: -6.312812861      2.538      6.750
REMARK  12 active torsions:
REMARK  status: ('A' for Active; 'I' for Inactive)
REMARK       I    between atoms: C2_2  and  N1_4 
REMARK    1  A    between atoms: N1_4  and  C3_6 
REMARK    2  A    between atoms: C4_7  and  O2_8 
REMARK    3  A    between atoms: O2_8  and  C5_9 
REMARK    4  A    between atoms: C11_16  and  C12_17 
REMARK    5  A    between atoms: C12_17  and  O4_18 
REMARK    6  A    between atoms: O4_18  and  C13_19 
REMARK    7  A    between atoms: C15_21  and  N2_22 
REMARK    8  A    between atoms: C16_26  and  O5_28 
REMARK    9  A    between atoms: C18_30  and  C19_31 
REMARK   10  A    between atoms: C19_31  and  O6_32 
REMARK   11  A    between atoms: C20_35  and  O8_36 
REMARK   12  A    between atoms: C21_38  and  O9_39 
ROOT
HETATM    1  C3  UNL     1       2.895   7.438   8.289  1.00  0.00     0.170 C 
HETATM    2  C4  UNL     1       4.309   7.692   7.888  1.00  0.00     0.286 C 
HETATM    3  O3  UNL     1       5.120   6.648   8.396  1.00  0.00    -0.349 OA
HETATM    4  C11 UNL     1       4.645   5.448   7.891  1.00  0.00     0.179 C 
HETATM    5  C20 UNL     1       3.427   5.032   8.654  1.00  0.00     0.180 C 
HETATM    6  C21 UNL     1       2.810   6.261   9.265  1.00  0.00     0.177 C 
ENDROOT
BRANCH   4   7
HETATM    7  C12 UNL     1       5.717   4.387   7.829  1.00  0.00     0.205 C 
BRANCH   7   8
HETATM    8  O4  UNL     1       5.181   3.125   7.587  1.00  0.00    -0.359 OA
BRANCH   8   9
HETATM    9  C13 UNL     1       5.312   2.764   6.240  1.00  0.00     0.262 C 
HETATM   10  C14 UNL     1       6.530   3.454   5.723  1.00  0.00     0.096 C 
HETATM   11  C15 UNL     1       6.726   3.215   4.264  1.00  0.00     0.224 C 
HETATM   12  C16 UNL     1       5.425   2.832   3.614  1.00  0.00     0.110 C 
HETATM   13  C17 UNL     1       5.371   3.084   2.142  1.00  0.00     0.051 C 
HETATM   14  C18 UNL     1       4.229   3.413   4.282  1.00  0.00     0.184 C 
HETATM   15  O7  UNL     1       4.131   3.077   5.627  1.00  0.00    -0.351 OA
BRANCH  11  16
HETATM   16  N2  UNL     1       7.306   4.416   3.687  1.00  0.00    -0.072 N 
ATOM     17  H23 UNL     1       7.314   5.202   4.337  1.00  0.00     0.274 HD
ATOM     18  H22 UNL     1       8.314   4.342   3.551  1.00  0.00     0.274 HD
ATOM     19  H21 UNL     1       6.804   4.623   2.823  1.00  0.00     0.274 HD
ENDBRANCH  11  16
BRANCH  12  20
HETATM   20  O5  UNL     1       5.320   1.428   3.771  1.00  0.00    -0.385 OA
ATOM     21  H5  UNL     1       6.206   1.122   3.928  1.00  0.00     0.210 HD
ENDBRANCH  12  20
BRANCH  14  22
HETATM   22  C19 UNL     1       4.062   4.898   4.127  1.00  0.00     0.199 C 
BRANCH  22  23
HETATM   23  O6  UNL     1       3.061   5.442   4.923  1.00  0.00    -0.398 OA
ATOM     24  H6  UNL     1       2.862   6.350   4.729  1.00  0.00     0.209 HD
ENDBRANCH  22  23
ENDBRANCH  14  22
ENDBRANCH   8   9
ENDBRANCH   7   8
ENDBRANCH   4   7
BRANCH   5  25
HETATM   25  O8  UNL     1       2.507   4.484   7.771  1.00  0.00    -0.390 OA
ATOM     26  H8  UNL     1       1.630   4.676   8.081  1.00  0.00     0.210 HD
ENDBRANCH   5  25
BRANCH   2  27
HETATM   27  O2  UNL     1       4.859   8.860   8.382  1.00  0.00    -0.354 OA
BRANCH  27  28
HETATM   28  C5  UNL     1       6.133   8.599   8.846  1.00  0.00     0.124 C 
HETATM   29  C6  UNL     1       6.223   8.700  10.355  1.00  0.00     0.032 C 
HETATM   30  C7  UNL     1       7.682   8.713  10.735  1.00  0.00     0.002 C 
HETATM   31  C8  UNL     1       8.566   8.213   9.618  1.00  0.00     0.000 C 
HETATM   32  C9  UNL     1       8.515   9.199   8.462  1.00  0.00     0.002 C 
HETATM   33  C10 UNL     1       7.082   9.592   8.207  1.00  0.00     0.032 C 
ENDBRANCH  27  28
ENDBRANCH   2  27
BRANCH   6  34
HETATM   34  O9  UNL     1       3.336   6.589  10.498  1.00  0.00    -0.391 OA
ATOM     35  H9  UNL     1       2.921   7.364  10.857  1.00  0.00     0.210 HD
ENDBRANCH   6  34
BRANCH   1  36
HETATM   36  N1  UNL     1       2.239   8.563   8.873  1.00  0.00    -0.349 N 
HETATM   37  C2  UNL     1       1.050   8.376   9.621  1.00  0.00     0.214 C 
HETATM   38  C1  UNL     1       0.340   9.521  10.242  1.00  0.00     0.117 C 
HETATM   39  O1  UNL     1       0.557   7.228   9.781  1.00  0.00    -0.274 OA
ATOM     40  H1  UNL     1       2.625   9.499   8.752  1.00  0.00     0.163 HD
ENDBRANCH   1  36
TORSDOF 12
ENDMDL
