MODEL 1
REMARK VINA RESULT: -9.003056604      0.000      0.000
REMARK  4 active torsions:
REMARK  status: ('A' for Active; 'I' for Inactive)
REMARK    1  A    between atoms: N3_6  and  C3_8 
REMARK    2  A    between atoms: C3_8  and  C4_9 
REMARK       I    between atoms: C4_9  and  N4_11 
REMARK    3  A    between atoms: N4_11  and  N5_13 
REMARK       I    between atoms: N5_13  and  C5_15 
REMARK    4  A    between atoms: C6_22  and  C7_23 
REMARK       I    between atoms: C7_23  and  N9_25 
REMARK       I    between atoms: N9_25  and  C8_27 
ROOT
HETATM    1  C1  UNL     1      60.568  41.147  39.797  1.00  0.00     0.182 C 
HETATM    2  N1  UNL     1      61.646  41.017  38.824  1.00  0.00    -0.246 N 
HETATM    3  N2  UNL     1      61.719  41.827  37.783  1.00  0.00    -0.128 N 
ATOM      4  H2  UNL     1      61.002  42.544  37.680  1.00  0.00     0.206 HD
HETATM    5  C2  UNL     1      62.699  41.756  36.843  1.00  0.00     0.694 A 
HETATM    6  N3  UNL     1      62.724  42.578  35.825  1.00  0.00    -0.216 N 
ATOM      7  H3  UNL     1      63.459  42.525  35.120  1.00  0.00     0.178 HD
HETATM    8  N8  UNL     1      63.629  40.797  37.014  1.00  0.00    -0.179 N 
ATOM      9  H8  UNL     1      64.376  40.721  36.323  1.00  0.00     0.184 HD
HETATM   10  C6  UNL     1      63.626  39.934  38.045  1.00  0.00     0.186 A 
HETATM   11  C9  UNL     1      62.592  40.077  38.955  1.00  0.00     0.295 A 
HETATM   12  O3  UNL     1      62.546  39.307  39.923  1.00  0.00    -0.264 OA
ENDROOT
BRANCH   6  13
HETATM   13  C3  UNL     1      61.675  43.559  35.739  1.00  0.00     0.242 C 
BRANCH  13  14
HETATM   14  C4  UNL     1      62.081  44.771  36.471  1.00  0.00     0.254 C 
HETATM   15  O1  UNL     1      63.243  45.221  36.271  1.00  0.00    -0.270 OA
HETATM   16  N4  UNL     1      61.168  45.384  37.365  1.00  0.00    -0.266 N 
ATOM     17  H4  UNL     1      60.241  44.975  37.487  1.00  0.00     0.190 HD
BRANCH  16  18
HETATM   18  N5  UNL     1      61.507  46.539  38.086  1.00  0.00    -0.271 N 
HETATM   19  C5  UNL     1      61.966  47.660  37.363  1.00  0.00     0.200 C 
HETATM   20  N6  UNL     1      63.180  48.073  37.402  1.00  0.00    -0.372 N 
HETATM   21  N7  UNL     1      61.049  48.354  36.557  1.00  0.00    -0.062 NA
ATOM     22  H62 UNL     1      63.845  47.570  37.988  1.00  0.00     0.158 HD
ATOM     23  H61 UNL     1      63.512  48.883  36.880  1.00  0.00     0.158 HD
ATOM     24  H5  UNL     1      61.423  46.568  39.102  1.00  0.00     0.189 HD
ENDBRANCH  16  18
ENDBRANCH  13  14
ENDBRANCH   6  13
BRANCH  10  25
HETATM   25  C7  UNL     1      64.646  38.895  38.208  1.00  0.00     0.280 C 
HETATM   26  O2  UNL     1      65.024  38.296  37.163  1.00  0.00    -0.265 OA
HETATM   27  N9  UNL     1      65.203  38.555  39.450  1.00  0.00    -0.296 N 
HETATM   28  C8  UNL     1      66.187  37.548  39.539  1.00  0.00     0.188 C 
ATOM     29  H9  UNL     1      64.894  39.038  40.294  1.00  0.00     0.171 HD
HETATM   30  N10 UNL     1      66.750  37.165  40.631  1.00  0.00    -0.373 N 
HETATM   31  N11 UNL     1      66.643  36.863  38.355  1.00  0.00    -0.064 NA
ATOM     32 2H10 UNL     1      66.428  37.649  41.468  1.00  0.00     0.158 HD
ATOM     33 1H10 UNL     1      67.462  36.437  40.694  1.00  0.00     0.158 HD
ENDBRANCH  10  25
TORSDOF 4
ENDMDL
MODEL 2
REMARK VINA RESULT: -8.698700184      1.978      7.872
REMARK  4 active torsions:
REMARK  status: ('A' for Active; 'I' for Inactive)
REMARK    1  A    between atoms: N3_6  and  C3_8 
REMARK    2  A    between atoms: C3_8  and  C4_9 
REMARK       I    between atoms: C4_9  and  N4_11 
REMARK    3  A    between atoms: N4_11  and  N5_13 
REMARK       I    between atoms: N5_13  and  C5_15 
REMARK    4  A    between atoms: C6_22  and  C7_23 
REMARK       I    between atoms: C7_23  and  N9_25 
REMARK       I    between atoms: N9_25  and  C8_27 
ROOT
HETATM    1  C1  UNL     1      62.148  39.408  40.801  1.00  0.00     0.182 C 
HETATM    2  N1  UNL     1      62.697  39.755  39.495  1.00  0.00    -0.246 N 
HETATM    3  N2  UNL     1      63.470  38.909  38.839  1.00  0.00    -0.128 N 
ATOM      4  H2  UNL     1      63.672  38.008  39.270  1.00  0.00     0.206 HD
HETATM    5  C2  UNL     1      64.010  39.175  37.620  1.00  0.00     0.694 A 
HETATM    6  N3  UNL     1      64.777  38.306  37.012  1.00  0.00    -0.216 N 
ATOM      7  H3  UNL     1      65.182  38.504  36.098  1.00  0.00     0.178 HD
HETATM    8  N8  UNL     1      63.720  40.375  37.081  1.00  0.00    -0.179 N 
ATOM      9  H8  UNL     1      64.112  40.601  36.167  1.00  0.00     0.184 HD
HETATM   10  C6  UNL     1      62.941  41.291  37.684  1.00  0.00     0.186 A 
HETATM   11  C9  UNL     1      62.433  40.938  38.923  1.00  0.00     0.295 A 
HETATM   12  O3  UNL     1      61.710  41.748  39.517  1.00  0.00    -0.264 OA
ENDROOT
BRANCH   6  13
HETATM   13  C3  UNL     1      65.025  37.057  37.684  1.00  0.00     0.242 C 
BRANCH  13  14
HETATM   14  C4  UNL     1      65.837  37.305  38.887  1.00  0.00     0.254 C 
HETATM   15  O1  UNL     1      65.327  37.036  40.010  1.00  0.00    -0.270 OA
HETATM   16  N4  UNL     1      67.146  37.830  38.749  1.00  0.00    -0.266 N 
ATOM     17  H4  UNL     1      67.506  38.028  37.815  1.00  0.00     0.190 HD
BRANCH  16  18
HETATM   18  N5  UNL     1      67.959  38.084  39.864  1.00  0.00    -0.271 N 
HETATM   19  C5  UNL     1      68.771  37.035  40.344  1.00  0.00     0.200 C 
HETATM   20  N6  UNL     1      68.560  36.433  41.457  1.00  0.00    -0.372 N 
HETATM   21  N7  UNL     1      69.863  36.626  39.559  1.00  0.00    -0.062 NA
ATOM     22  H62 UNL     1      67.768  36.730  42.026  1.00  0.00     0.158 HD
ATOM     23  H61 UNL     1      69.147  35.675  41.803  1.00  0.00     0.158 HD
ATOM     24  H5  UNL     1      67.963  38.999  40.314  1.00  0.00     0.189 HD
ENDBRANCH  16  18
ENDBRANCH  13  14
ENDBRANCH   6  13
BRANCH  10  25
HETATM   25  C7  UNL     1      62.643  42.593  37.081  1.00  0.00     0.280 C 
HETATM   26  O2  UNL     1      61.872  42.597  36.082  1.00  0.00    -0.265 OA
HETATM   27  N9  UNL     1      63.170  43.800  37.565  1.00  0.00    -0.296 N 
HETATM   28  C8  UNL     1      62.840  45.023  36.942  1.00  0.00     0.188 C 
ATOM     29  H9  UNL     1      63.796  43.794  38.370  1.00  0.00     0.171 HD
HETATM   30  N10 UNL     1      63.276  46.176  37.310  1.00  0.00    -0.373 N 
HETATM   31  N11 UNL     1      61.949  45.050  35.810  1.00  0.00    -0.064 NA
ATOM     32 2H10 UNL     1      63.906  46.156  38.112  1.00  0.00     0.158 HD
ATOM     33 1H10 UNL     1      63.036  47.060  36.861  1.00  0.00     0.158 HD
ENDBRANCH  10  25
TORSDOF 4
ENDMDL
MODEL 3
REMARK VINA RESULT: -8.643356497      1.155      1.373
REMARK  4 active torsions:
REMARK  status: ('A' for Active; 'I' for Inactive)
REMARK    1  A    between atoms: N3_6  and  C3_8 
REMARK    2  A    between atoms: C3_8  and  C4_9 
REMARK       I    between atoms: C4_9  and  N4_11 
REMARK    3  A    between atoms: N4_11  and  N5_13 
REMARK       I    between atoms: N5_13  and  C5_15 
REMARK    4  A    between atoms: C6_22  and  C7_23 
REMARK       I    between atoms: C7_23  and  N9_25 
REMARK       I    between atoms: N9_25  and  C8_27 
ROOT
HETATM    1  C1  UNL     1      60.101  41.756  39.510  1.00  0.00     0.182 C 
HETATM    2  N1  UNL     1      61.192  41.556  38.564  1.00  0.00    -0.246 N 
HETATM    3  N2  UNL     1      61.264  42.267  37.454  1.00  0.00    -0.128 N 
ATOM      4  H2  UNL     1      60.536  42.959  37.277  1.00  0.00     0.206 HD
HETATM    5  C2  UNL     1      62.256  42.127  36.534  1.00  0.00     0.694 A 
HETATM    6  N3  UNL     1      62.280  42.851  35.445  1.00  0.00    -0.216 N 
ATOM      7  H3  UNL     1      63.024  42.747  34.755  1.00  0.00     0.178 HD
HETATM    8  N8  UNL     1      63.200  41.204  36.803  1.00  0.00    -0.179 N 
ATOM      9  H8  UNL     1      63.957  41.078  36.131  1.00  0.00     0.184 HD
HETATM   10  C6  UNL     1      63.199  40.441  37.910  1.00  0.00     0.186 A 
HETATM   11  C9  UNL     1      62.152  40.649  38.792  1.00  0.00     0.295 A 
HETATM   12  O3  UNL     1      62.107  39.971  39.827  1.00  0.00    -0.264 OA
ENDROOT
BRANCH   6  13
HETATM   13  C3  UNL     1      61.216  43.802  35.258  1.00  0.00     0.242 C 
BRANCH  13  14
HETATM   14  C4  UNL     1      61.479  44.995  36.080  1.00  0.00     0.254 C 
HETATM   15  O1  UNL     1      62.664  45.427  36.134  1.00  0.00    -0.270 OA
HETATM   16  N4  UNL     1      60.409  45.611  36.776  1.00  0.00    -0.266 N 
ATOM     17  H4  UNL     1      59.471  45.217  36.696  1.00  0.00     0.190 HD
BRANCH  16  18
HETATM   18  N5  UNL     1      60.607  46.749  37.574  1.00  0.00    -0.271 N 
HETATM   19  C5  UNL     1      60.823  47.983  36.924  1.00  0.00     0.200 C 
HETATM   20  N6  UNL     1      61.953  48.590  36.926  1.00  0.00    -0.372 N 
HETATM   21  N7  UNL     1      59.748  48.571  36.238  1.00  0.00    -0.062 NA
ATOM     22  H62 UNL     1      62.733  48.164  37.424  1.00  0.00     0.158 HD
ATOM     23  H61 UNL     1      62.108  49.482  36.456  1.00  0.00     0.158 HD
ATOM     24  H5  UNL     1      60.596  46.686  38.591  1.00  0.00     0.189 HD
ENDBRANCH  16  18
ENDBRANCH  13  14
ENDBRANCH   6  13
BRANCH  10  25
HETATM   25  C7  UNL     1      64.234  39.439  38.179  1.00  0.00     0.280 C 
HETATM   26  O2  UNL     1      65.079  39.716  39.075  1.00  0.00    -0.265 OA
HETATM   27  N9  UNL     1      64.314  38.217  37.494  1.00  0.00    -0.296 N 
HETATM   28  C8  UNL     1      65.333  37.291  37.804  1.00  0.00     0.188 C 
ATOM     29  H9  UNL     1      63.632  37.996  36.768  1.00  0.00     0.171 HD
HETATM   30  N10 UNL     1      65.489  36.150  37.229  1.00  0.00    -0.373 N 
HETATM   31  N11 UNL     1      66.297  37.581  38.835  1.00  0.00    -0.064 NA
ATOM     32 2H10 UNL     1      64.806  35.945  36.500  1.00  0.00     0.158 HD
ATOM     33 1H10 UNL     1      66.225  35.481  37.454  1.00  0.00     0.158 HD
ENDBRANCH  10  25
TORSDOF 4
ENDMDL
MODEL 4
REMARK VINA RESULT: -8.628898099      0.827      1.036
REMARK  4 active torsions:
REMARK  status: ('A' for Active; 'I' for Inactive)
REMARK    1  A    between atoms: N3_6  and  C3_8 
REMARK    2  A    between atoms: C3_8  and  C4_9 
REMARK       I    between atoms: C4_9  and  N4_11 
REMARK    3  A    between atoms: N4_11  and  N5_13 
REMARK       I    between atoms: N5_13  and  C5_15 
REMARK    4  A    between atoms: C6_22  and  C7_23 
REMARK       I    between atoms: C7_23  and  N9_25 
REMARK       I    between atoms: N9_25  and  C8_27 
ROOT
HETATM    1  C1  UNL     1      60.680  40.801  40.661  1.00  0.00     0.182 C 
HETATM    2  N1  UNL     1      61.610  40.750  39.539  1.00  0.00    -0.246 N 
HETATM    3  N2  UNL     1      61.490  41.584  38.523  1.00  0.00    -0.128 N 
ATOM      4  H2  UNL     1      60.730  42.264  38.544  1.00  0.00     0.206 HD
HETATM    5  C2  UNL     1      62.325  41.586  37.449  1.00  0.00     0.694 A 
HETATM    6  N3  UNL     1      62.160  42.429  36.462  1.00  0.00    -0.216 N 
ATOM      7  H3  UNL     1      62.786  42.431  35.657  1.00  0.00     0.178 HD
HETATM    8  N8  UNL     1      63.317  40.675  37.456  1.00  0.00    -0.179 N 
ATOM      9  H8  UNL     1      63.958  40.654  36.664  1.00  0.00     0.184 HD
HETATM   10  C6  UNL     1      63.507  39.792  38.453  1.00  0.00     0.186 A 
HETATM   11  C9  UNL     1      62.611  39.860  39.506  1.00  0.00     0.295 A 
HETATM   12  O3  UNL     1      62.745  39.068  40.448  1.00  0.00    -0.264 OA
ENDROOT
BRANCH   6  13
HETATM   13  C3  UNL     1      61.062  43.355  36.556  1.00  0.00     0.242 C 
BRANCH  13  14
HETATM   14  C4  UNL     1      61.490  44.671  36.053  1.00  0.00     0.254 C 
HETATM   15  O1  UNL     1      62.550  44.726  35.370  1.00  0.00    -0.270 OA
HETATM   16  N4  UNL     1      60.710  45.817  36.347  1.00  0.00    -0.266 N 
ATOM     17  H4  UNL     1      59.862  45.711  36.904  1.00  0.00     0.190 HD
BRANCH  16  18
HETATM   18  N5  UNL     1      61.075  47.093  35.891  1.00  0.00    -0.271 N 
HETATM   19  C5  UNL     1      61.877  47.892  36.733  1.00  0.00     0.200 C 
HETATM   20  N6  UNL     1      61.445  48.945  37.324  1.00  0.00    -0.372 N 
HETATM   21  N7  UNL     1      63.214  47.512  36.936  1.00  0.00    -0.062 NA
ATOM     22  H62 UNL     1      60.474  49.221  37.177  1.00  0.00     0.158 HD
ATOM     23  H61 UNL     1      62.024  49.522  37.933  1.00  0.00     0.158 HD
ATOM     24  H5  UNL     1      60.770  47.432  34.979  1.00  0.00     0.189 HD
ENDBRANCH  16  18
ENDBRANCH  13  14
ENDBRANCH   6  13
BRANCH  10  25
HETATM   25  C7  UNL     1      64.591  38.806  38.436  1.00  0.00     0.280 C 
HETATM   26  O2  UNL     1      64.843  38.252  37.331  1.00  0.00    -0.265 OA
HETATM   27  N9  UNL     1      65.337  38.468  39.576  1.00  0.00    -0.296 N 
HETATM   28  C8  UNL     1      66.373  37.514  39.493  1.00  0.00     0.188 C 
ATOM     29  H9  UNL     1      65.130  38.915  40.469  1.00  0.00     0.171 HD
HETATM   30  N10 UNL     1      67.106  37.138  40.481  1.00  0.00    -0.373 N 
HETATM   31  N11 UNL     1      66.687  36.881  38.236  1.00  0.00    -0.064 NA
ATOM     32 2H10 UNL     1      66.884  37.586  41.370  1.00  0.00     0.158 HD
ATOM     33 1H10 UNL     1      67.856  36.448  40.421  1.00  0.00     0.158 HD
ENDBRANCH  10  25
TORSDOF 4
ENDMDL
MODEL 5
REMARK VINA RESULT: -8.421657036      2.137      8.003
REMARK  4 active torsions:
REMARK  status: ('A' for Active; 'I' for Inactive)
REMARK    1  A    between atoms: N3_6  and  C3_8 
REMARK    2  A    between atoms: C3_8  and  C4_9 
REMARK       I    between atoms: C4_9  and  N4_11 
REMARK    3  A    between atoms: N4_11  and  N5_13 
REMARK       I    between atoms: N5_13  and  C5_15 
REMARK    4  A    between atoms: C6_22  and  C7_23 
REMARK       I    between atoms: C7_23  and  N9_25 
REMARK       I    between atoms: N9_25  and  C8_27 
ROOT
HETATM    1  C1  UNL     1      60.159  41.135  41.610  1.00  0.00     0.182 C 
HETATM    2  N1  UNL     1      60.931  41.021  40.378  1.00  0.00    -0.246 N 
HETATM    3  N2  UNL     1      61.890  40.122  40.262  1.00  0.00    -0.128 N 
ATOM      4  H2  UNL     1      62.076  39.509  41.056  1.00  0.00     0.206 HD
HETATM    5  C2  UNL     1      62.643  39.966  39.140  1.00  0.00     0.694 A 
HETATM    6  N3  UNL     1      63.588  39.064  39.075  1.00  0.00    -0.216 N 
ATOM      7  H3  UNL     1      64.153  38.947  38.234  1.00  0.00     0.178 HD
HETATM    8  N8  UNL     1      62.368  40.792  38.111  1.00  0.00    -0.179 N 
ATOM      9  H8  UNL     1      62.917  40.697  37.257  1.00  0.00     0.184 HD
HETATM   10  C6  UNL     1      61.408  41.733  38.150  1.00  0.00     0.186 A 
HETATM   11  C9  UNL     1      60.690  41.822  39.331  1.00  0.00     0.295 A 
HETATM   12  O3  UNL     1      59.795  42.673  39.416  1.00  0.00    -0.264 OA
ENDROOT
BRANCH   6  13
HETATM   13  C3  UNL     1      63.799  38.241  40.237  1.00  0.00     0.242 C 
BRANCH  13  14
HETATM   14  C4  UNL     1      65.049  37.480  40.074  1.00  0.00     0.254 C 
HETATM   15  O1  UNL     1      65.260  36.920  38.962  1.00  0.00    -0.270 OA
HETATM   16  N4  UNL     1      65.963  37.400  41.154  1.00  0.00    -0.266 N 
ATOM     17  H4  UNL     1      65.739  37.872  42.030  1.00  0.00     0.190 HD
BRANCH  16  18
HETATM   18  N5  UNL     1      67.166  36.687  41.050  1.00  0.00    -0.271 N 
HETATM   19  C5  UNL     1      68.118  37.129  40.106  1.00  0.00     0.200 C 
HETATM   20  N6  UNL     1      68.403  36.481  39.037  1.00  0.00    -0.372 N 
HETATM   21  N7  UNL     1      68.783  38.343  40.350  1.00  0.00    -0.062 NA
ATOM     22  H62 UNL     1      67.921  35.600  38.860  1.00  0.00     0.158 HD
ATOM     23  H61 UNL     1      69.090  36.801  38.356  1.00  0.00     0.158 HD
ATOM     24  H5  UNL     1      67.348  35.873  41.637  1.00  0.00     0.189 HD
ENDBRANCH  16  18
ENDBRANCH  13  14
ENDBRANCH   6  13
BRANCH  10  25
HETATM   25  C7  UNL     1      61.130  42.624  37.020  1.00  0.00     0.280 C 
HETATM   26  O2  UNL     1      60.829  42.078  35.923  1.00  0.00    -0.265 OA
HETATM   27  N9  UNL     1      61.184  44.023  37.116  1.00  0.00    -0.296 N 
HETATM   28  C8  UNL     1      60.899  44.826  35.991  1.00  0.00     0.188 C 
ATOM     29  H9  UNL     1      61.430  44.462  38.003  1.00  0.00     0.171 HD
HETATM   30  N10 UNL     1      60.927  46.112  35.981  1.00  0.00    -0.373 N 
HETATM   31  N11 UNL     1      60.539  44.222  34.733  1.00  0.00    -0.064 NA
ATOM     32 2H10 UNL     1      61.182  46.539  36.871  1.00  0.00     0.158 HD
ATOM     33 1H10 UNL     1      60.721  46.692  35.167  1.00  0.00     0.158 HD
ENDBRANCH  10  25
TORSDOF 4
ENDMDL
