MODEL 1
REMARK VINA RESULT: -7.537952033      0.000      0.000
REMARK  8 active torsions:
REMARK  status: ('A' for Active; 'I' for Inactive)
REMARK    1  A    between atoms: N1_1  and  C1_5 
REMARK    2  A    between atoms: C1_5  and  N2_6 
REMARK    3  A    between atoms: C1_5  and  C2_10 
REMARK    4  A    between atoms: C2_10  and  N3_11 
REMARK    5  A    between atoms: C2_10  and  C11_29 
REMARK       I    between atoms: N3_11  and  C3_13 
REMARK    6  A    between atoms: C3_13  and  C4_15 
REMARK    7  A    between atoms: C11_29  and  N6_30 
REMARK    8  A    between atoms: C11_29  and  N7_34 
ROOT
HETATM    1  C2  UNL     1      61.311  43.136  36.784  1.00  0.00     0.199 C 
ENDROOT
BRANCH   1   2
HETATM    2  C1  UNL     1      60.652  42.916  35.417  1.00  0.00     0.404 C 
BRANCH   2   3
HETATM    3  N1  UNL     1      61.401  41.921  34.667  1.00  0.00    -0.048 N 
ATOM      4  H13 UNL     1      61.138  41.896  33.681  1.00  0.00     0.276 HD
ATOM      5  H12 UNL     1      62.380  42.181  34.545  1.00  0.00     0.276 HD
ATOM      6  H11 UNL     1      61.293  41.015  35.122  1.00  0.00     0.276 HD
ENDBRANCH   2   3
BRANCH   2   7
HETATM    7  N2  UNL     1      60.663  44.158  34.684  1.00  0.00    -0.048 N 
ATOM      8  H23 UNL     1      61.472  44.737  34.910  1.00  0.00     0.276 HD
ATOM      9  H22 UNL     1      60.859  44.022  33.692  1.00  0.00     0.276 HD
ATOM     10  H21 UNL     1      59.781  44.642  34.844  1.00  0.00     0.276 HD
ENDBRANCH   2   7
ENDBRANCH   1   2
BRANCH   1  11
HETATM   11  N3  UNL     1      61.753  41.804  37.215  1.00  0.00    -0.348 N 
HETATM   12  C3  UNL     1      61.764  41.432  38.581  1.00  0.00     0.230 C 
HETATM   13  O1  UNL     1      61.389  42.266  39.425  1.00  0.00    -0.273 OA
ATOM     14  H3  UNL     1      62.059  41.131  36.513  1.00  0.00     0.163 HD
BRANCH  12  15
HETATM   15  C4  UNL     1      62.226  40.068  38.921  1.00  0.00     0.158 C 
HETATM   16  C5  UNL     1      62.423  39.852  40.379  1.00  0.00     0.080 C 
HETATM   17  C6  UNL     1      63.590  38.939  40.426  1.00  0.00     0.034 A 
HETATM   18  N4  UNL     1      64.075  38.159  41.412  1.00  0.00    -0.311 N 
HETATM   19  C9  UNL     1      64.259  38.929  39.218  1.00  0.00     0.101 A 
HETATM   20  C7  UNL     1      65.151  37.387  41.286  1.00  0.00     0.327 A 
ATOM     21  H4  UNL     1      63.588  38.160  42.309  1.00  0.00     0.170 HD
HETATM   22  O2  UNL     1      65.616  36.654  42.197  1.00  0.00    -0.247 OA
HETATM   23  N5  UNL     1      65.787  37.393  40.099  1.00  0.00    -0.275 N 
HETATM   24  C8  UNL     1      65.394  38.127  39.057  1.00  0.00     0.265 A 
ATOM     25  H5  UNL     1      66.614  36.805  39.991  1.00  0.00     0.173 HD
HETATM   26  O3  UNL     1      65.994  38.128  37.947  1.00  0.00    -0.267 OA
HETATM   27  C10 UNL     1      63.554  39.837  38.331  1.00  0.00     0.180 C 
HETATM   28  O4  UNL     1      64.027  40.309  37.273  1.00  0.00    -0.291 OA
ENDBRANCH  12  15
ENDBRANCH   1  11
BRANCH   1  29
HETATM   29  C11 UNL     1      62.573  43.957  36.621  1.00  0.00     0.404 C 
BRANCH  29  30
HETATM   30  N6  UNL     1      62.883  44.739  37.795  1.00  0.00    -0.048 N 
ATOM     31  H63 UNL     1      62.193  44.585  38.531  1.00  0.00     0.276 HD
ATOM     32  H62 UNL     1      63.711  44.376  38.268  1.00  0.00     0.276 HD
ATOM     33  H61 UNL     1      62.983  45.733  37.590  1.00  0.00     0.276 HD
ENDBRANCH  29  30
BRANCH  29  34
HETATM   34  N7  UNL     1      63.649  43.032  36.304  1.00  0.00    -0.048 N 
ATOM     35  H73 UNL     1      63.655  42.206  36.902  1.00  0.00     0.276 HD
ATOM     36  H72 UNL     1      63.515  42.552  35.415  1.00  0.00     0.276 HD
ATOM     37  H71 UNL     1      64.522  43.560  36.345  1.00  0.00     0.276 HD
ENDBRANCH  29  34
ENDBRANCH   1  29
TORSDOF 8
ENDMDL
MODEL 2
REMARK VINA RESULT: -7.257834936      1.409      1.702
REMARK  8 active torsions:
REMARK  status: ('A' for Active; 'I' for Inactive)
REMARK    1  A    between atoms: N1_1  and  C1_5 
REMARK    2  A    between atoms: C1_5  and  N2_6 
REMARK    3  A    between atoms: C1_5  and  C2_10 
REMARK    4  A    between atoms: C2_10  and  N3_11 
REMARK    5  A    between atoms: C2_10  and  C11_29 
REMARK       I    between atoms: N3_11  and  C3_13 
REMARK    6  A    between atoms: C3_13  and  C4_15 
REMARK    7  A    between atoms: C11_29  and  N6_30 
REMARK    8  A    between atoms: C11_29  and  N7_34 
ROOT
HETATM    1  C2  UNL     1      61.409  43.515  36.400  1.00  0.00     0.199 C 
ENDROOT
BRANCH   1   2
HETATM    2  C1  UNL     1      60.832  43.203  35.014  1.00  0.00     0.404 C 
BRANCH   2   3
HETATM    3  N1  UNL     1      60.368  41.825  34.977  1.00  0.00    -0.048 N 
ATOM      4  H13 UNL     1      60.940  41.237  34.370  1.00  0.00     0.276 HD
ATOM      5  H12 UNL     1      60.540  41.333  35.853  1.00  0.00     0.276 HD
ATOM      6  H11 UNL     1      59.383  41.817  34.712  1.00  0.00     0.276 HD
ENDBRANCH   2   3
BRANCH   2   7
HETATM    7  N2  UNL     1      61.867  43.372  34.024  1.00  0.00    -0.048 N 
ATOM      8  H23 UNL     1      62.638  42.716  34.149  1.00  0.00     0.276 HD
ATOM      9  H22 UNL     1      61.572  43.069  33.096  1.00  0.00     0.276 HD
ATOM     10  H21 UNL     1      62.177  44.343  34.036  1.00  0.00     0.276 HD
ENDBRANCH   2   7
ENDBRANCH   1   2
BRANCH   1  11
HETATM   11  N3  UNL     1      61.407  42.233  37.114  1.00  0.00    -0.348 N 
HETATM   12  C3  UNL     1      61.233  42.165  38.518  1.00  0.00     0.230 C 
HETATM   13  O1  UNL     1      61.081  43.227  39.147  1.00  0.00    -0.273 OA
ATOM     14  H3  UNL     1      61.534  41.370  36.586  1.00  0.00     0.163 HD
BRANCH  12  15
HETATM   15  C4  UNL     1      61.245  40.827  39.150  1.00  0.00     0.158 C 
HETATM   16  C5  UNL     1      61.020  40.862  40.620  1.00  0.00     0.080 C 
HETATM   17  C6  UNL     1      61.876  39.758  41.115  1.00  0.00     0.034 A 
HETATM   18  N4  UNL     1      61.897  39.102  42.292  1.00  0.00    -0.311 N 
HETATM   19  C9  UNL     1      62.797  39.379  40.158  1.00  0.00     0.101 A 
HETATM   20  C7  UNL     1      62.745  38.118  42.578  1.00  0.00     0.327 A 
ATOM     21  H4  UNL     1      61.221  39.375  43.006  1.00  0.00     0.170 HD
HETATM   22  O2  UNL     1      62.776  37.496  43.671  1.00  0.00    -0.247 OA
HETATM   23  N5  UNL     1      63.634  37.765  41.629  1.00  0.00    -0.275 N 
HETATM   24  C8  UNL     1      63.702  38.348  40.432  1.00  0.00     0.265 A 
ATOM     25  H5  UNL     1      64.290  37.012  41.838  1.00  0.00     0.173 HD
HETATM   26  O3  UNL     1      64.536  38.012  39.546  1.00  0.00    -0.267 OA
HETATM   27  C10 UNL     1      62.578  40.222  38.996  1.00  0.00     0.180 C 
HETATM   28  O4  UNL     1      63.396  40.374  38.062  1.00  0.00    -0.291 OA
ENDBRANCH  12  15
ENDBRANCH   1  11
BRANCH   1  29
HETATM   29  C11 UNL     1      62.863  43.915  36.274  1.00  0.00     0.404 C 
BRANCH  29  30
HETATM   30  N6  UNL     1      63.261  44.886  37.267  1.00  0.00    -0.048 N 
ATOM     31  H63 UNL     1      63.153  45.837  36.913  1.00  0.00     0.276 HD
ATOM     32  H62 UNL     1      62.590  44.920  38.035  1.00  0.00     0.276 HD
ATOM     33  H61 UNL     1      64.208  44.729  37.613  1.00  0.00     0.276 HD
ENDBRANCH  29  30
BRANCH  29  34
HETATM   34  N7  UNL     1      63.655  42.700  36.379  1.00  0.00    -0.048 N 
ATOM     35  H73 UNL     1      63.967  42.347  35.475  1.00  0.00     0.276 HD
ATOM     36  H72 UNL     1      64.577  42.858  36.785  1.00  0.00     0.276 HD
ATOM     37  H71 UNL     1      63.099  42.023  36.902  1.00  0.00     0.276 HD
ENDBRANCH  29  34
ENDBRANCH   1  29
TORSDOF 8
ENDMDL
MODEL 3
REMARK VINA RESULT: -7.113798317      3.423      7.640
REMARK  8 active torsions:
REMARK  status: ('A' for Active; 'I' for Inactive)
REMARK    1  A    between atoms: N1_1  and  C1_5 
REMARK    2  A    between atoms: C1_5  and  N2_6 
REMARK    3  A    between atoms: C1_5  and  C2_10 
REMARK    4  A    between atoms: C2_10  and  N3_11 
REMARK    5  A    between atoms: C2_10  and  C11_29 
REMARK       I    between atoms: N3_11  and  C3_13 
REMARK    6  A    between atoms: C3_13  and  C4_15 
REMARK    7  A    between atoms: C11_29  and  N6_30 
REMARK    8  A    between atoms: C11_29  and  N7_34 
ROOT
HETATM    1  C2  UNL     1      62.214  40.463  38.769  1.00  0.00     0.199 C 
ENDROOT
BRANCH   1   2
HETATM    2  C1  UNL     1      62.201  39.828  40.163  1.00  0.00     0.404 C 
BRANCH   2   3
HETATM    3  N1  UNL     1      61.131  40.410  40.957  1.00  0.00    -0.048 N 
ATOM      4  H13 UNL     1      60.719  41.231  40.513  1.00  0.00     0.276 HD
ATOM      5  H12 UNL     1      60.296  39.825  40.973  1.00  0.00     0.276 HD
ATOM      6  H11 UNL     1      61.486  40.610  41.892  1.00  0.00     0.276 HD
ENDBRANCH   2   3
BRANCH   2   7
HETATM    7  N2  UNL     1      63.461  40.095  40.814  1.00  0.00    -0.048 N 
ATOM      8  H23 UNL     1      63.410  40.891  41.449  1.00  0.00     0.276 HD
ATOM      9  H22 UNL     1      63.703  39.381  41.501  1.00  0.00     0.276 HD
ATOM     10  H21 UNL     1      64.181  40.210  40.101  1.00  0.00     0.276 HD
ENDBRANCH   2   7
ENDBRANCH   1   2
BRANCH   1  11
HETATM   11  N3  UNL     1      62.230  41.911  39.007  1.00  0.00    -0.348 N 
HETATM   12  C3  UNL     1      61.474  42.804  38.208  1.00  0.00     0.230 C 
HETATM   13  O1  UNL     1      60.785  42.334  37.286  1.00  0.00    -0.273 OA
ATOM     14  H3  UNL     1      62.800  42.283  39.766  1.00  0.00     0.163 HD
BRANCH  12  15
HETATM   15  C4  UNL     1      61.553  44.247  38.524  1.00  0.00     0.158 C 
HETATM   16  C5  UNL     1      60.312  44.997  38.194  1.00  0.00     0.080 C 
HETATM   17  C6  UNL     1      60.827  46.313  37.747  1.00  0.00     0.034 A 
HETATM   18  N4  UNL     1      60.217  47.505  37.591  1.00  0.00    -0.311 N 
HETATM   19  C9  UNL     1      62.174  46.243  37.452  1.00  0.00     0.101 A 
HETATM   20  C7  UNL     1      60.836  48.607  37.173  1.00  0.00     0.327 A 
ATOM     21  H4  UNL     1      59.222  47.567  37.806  1.00  0.00     0.170 HD
HETATM   22  O2  UNL     1      60.281  49.725  37.023  1.00  0.00    -0.247 OA
HETATM   23  N5  UNL     1      62.150  48.514  36.892  1.00  0.00    -0.275 N 
HETATM   24  C8  UNL     1      62.850  47.386  37.011  1.00  0.00     0.265 A 
ATOM     25  H5  UNL     1      62.635  49.352  36.571  1.00  0.00     0.173 HD
HETATM   26  O3  UNL     1      64.082  47.306  36.746  1.00  0.00    -0.267 OA
HETATM   27  C10 UNL     1      62.595  44.875  37.695  1.00  0.00     0.180 C 
HETATM   28  O4  UNL     1      63.653  44.368  37.262  1.00  0.00    -0.291 OA
ENDBRANCH  12  15
ENDBRANCH   1  11
BRANCH   1  29
HETATM   29  C11 UNL     1      63.518  40.145  38.069  1.00  0.00     0.404 C 
BRANCH  29  30
HETATM   30  N6  UNL     1      63.675  38.734  37.801  1.00  0.00    -0.048 N 
ATOM     31  H63 UNL     1      63.166  38.462  36.959  1.00  0.00     0.276 HD
ATOM     32  H62 UNL     1      64.625  38.524  37.494  1.00  0.00     0.276 HD
ATOM     33  H61 UNL     1      63.409  38.151  38.595  1.00  0.00     0.276 HD
ENDBRANCH  29  30
BRANCH  29  34
HETATM   34  N7  UNL     1      63.547  40.921  36.840  1.00  0.00    -0.048 N 
ATOM     35  H73 UNL     1      64.365  40.725  36.263  1.00  0.00     0.276 HD
ATOM     36  H72 UNL     1      62.838  40.630  36.167  1.00  0.00     0.276 HD
ATOM     37  H71 UNL     1      63.470  41.904  37.102  1.00  0.00     0.276 HD
ENDBRANCH  29  34
ENDBRANCH   1  29
TORSDOF 8
ENDMDL
MODEL 4
REMARK VINA RESULT: -7.111623139      1.201      1.592
REMARK  8 active torsions:
REMARK  status: ('A' for Active; 'I' for Inactive)
REMARK    1  A    between atoms: N1_1  and  C1_5 
REMARK    2  A    between atoms: C1_5  and  N2_6 
REMARK    3  A    between atoms: C1_5  and  C2_10 
REMARK    4  A    between atoms: C2_10  and  N3_11 
REMARK    5  A    between atoms: C2_10  and  C11_29 
REMARK       I    between atoms: N3_11  and  C3_13 
REMARK    6  A    between atoms: C3_13  and  C4_15 
REMARK    7  A    between atoms: C11_29  and  N6_30 
REMARK    8  A    between atoms: C11_29  and  N7_34 
ROOT
HETATM    1  C2  UNL     1      61.785  42.416  37.716  1.00  0.00     0.199 C 
ENDROOT
BRANCH   1   2
HETATM    2  C1  UNL     1      61.957  42.498  36.195  1.00  0.00     0.404 C 
BRANCH   2   3
HETATM    3  N1  UNL     1      60.699  42.170  35.542  1.00  0.00    -0.048 N 
ATOM      4  H13 UNL     1      60.203  42.998  35.213  1.00  0.00     0.276 HD
ATOM      5  H12 UNL     1      60.837  41.719  34.638  1.00  0.00     0.276 HD
ATOM      6  H11 UNL     1      60.136  41.605  36.178  1.00  0.00     0.276 HD
ENDBRANCH   2   3
BRANCH   2   7
HETATM    7  N2  UNL     1      62.958  41.546  35.782  1.00  0.00    -0.048 N 
ATOM      8  H23 UNL     1      62.562  40.631  35.570  1.00  0.00     0.276 HD
ATOM      9  H22 UNL     1      63.336  41.754  34.857  1.00  0.00     0.276 HD
ATOM     10  H21 UNL     1      63.683  41.501  36.498  1.00  0.00     0.276 HD
ENDBRANCH   2   7
ENDBRANCH   1   2
BRANCH   1  11
HETATM   11  N3  UNL     1      62.421  41.153  38.106  1.00  0.00    -0.348 N 
HETATM   12  C3  UNL     1      61.957  40.398  39.211  1.00  0.00     0.230 C 
HETATM   13  O1  UNL     1      60.987  40.830  39.858  1.00  0.00    -0.273 OA
ATOM     14  H3  UNL     1      63.216  40.810  37.568  1.00  0.00     0.163 HD
BRANCH  12  15
HETATM   15  C4  UNL     1      62.662  39.136  39.529  1.00  0.00     0.158 C 
HETATM   16  C5  UNL     1      63.032  39.006  40.963  1.00  0.00     0.080 C 
HETATM   17  C6  UNL     1      64.329  38.291  40.909  1.00  0.00     0.034 A 
HETATM   18  N4  UNL     1      65.026  37.632  41.857  1.00  0.00    -0.311 N 
HETATM   19  C9  UNL     1      64.870  38.343  39.640  1.00  0.00     0.101 A 
HETATM   20  C7  UNL     1      66.195  37.035  41.637  1.00  0.00     0.327 A 
ATOM     21  H4  UNL     1      64.635  37.589  42.798  1.00  0.00     0.170 HD
HETATM   22  O2  UNL     1      66.857  36.417  42.510  1.00  0.00    -0.247 OA
HETATM   23  N5  UNL     1      66.703  37.099  40.391  1.00  0.00    -0.275 N 
HETATM   24  C8  UNL     1      66.098  37.724  39.381  1.00  0.00     0.265 A 
ATOM     25  H5  UNL     1      67.599  36.645  40.212  1.00  0.00     0.173 HD
HETATM   26  O3  UNL     1      66.579  37.779  38.215  1.00  0.00    -0.267 OA
HETATM   27  C10 UNL     1      63.946  39.096  38.812  1.00  0.00     0.180 C 
HETATM   28  O4  UNL     1      64.232  39.598  37.702  1.00  0.00    -0.291 OA
ENDBRANCH  12  15
ENDBRANCH   1  11
BRANCH   1  29
HETATM   29  C11 UNL     1      62.591  43.509  38.385  1.00  0.00     0.404 C 
BRANCH  29  30
HETATM   30  N6  UNL     1      62.741  44.679  37.552  1.00  0.00    -0.048 N 
ATOM     31  H63 UNL     1      62.958  44.418  36.590  1.00  0.00     0.276 HD
ATOM     32  H62 UNL     1      61.842  45.137  37.400  1.00  0.00     0.276 HD
ATOM     33  H61 UNL     1      63.430  45.336  37.918  1.00  0.00     0.276 HD
ENDBRANCH  29  30
BRANCH  29  34
HETATM   34  N7  UNL     1      61.921  43.833  39.634  1.00  0.00    -0.048 N 
ATOM     35  H73 UNL     1      61.681  44.822  39.713  1.00  0.00     0.276 HD
ATOM     36  H72 UNL     1      60.973  43.462  39.687  1.00  0.00     0.276 HD
ATOM     37  H71 UNL     1      62.521  43.507  40.392  1.00  0.00     0.276 HD
ENDBRANCH  29  34
ENDBRANCH   1  29
TORSDOF 8
ENDMDL
MODEL 5
REMARK VINA RESULT: -7.054491092      1.133      1.565
REMARK  8 active torsions:
REMARK  status: ('A' for Active; 'I' for Inactive)
REMARK    1  A    between atoms: N1_1  and  C1_5 
REMARK    2  A    between atoms: C1_5  and  N2_6 
REMARK    3  A    between atoms: C1_5  and  C2_10 
REMARK    4  A    between atoms: C2_10  and  N3_11 
REMARK    5  A    between atoms: C2_10  and  C11_29 
REMARK       I    between atoms: N3_11  and  C3_13 
REMARK    6  A    between atoms: C3_13  and  C4_15 
REMARK    7  A    between atoms: C11_29  and  N6_30 
REMARK    8  A    between atoms: C11_29  and  N7_34 
ROOT
HETATM    1  C2  UNL     1      61.274  44.121  37.181  1.00  0.00     0.199 C 
ENDROOT
BRANCH   1   2
HETATM    2  C1  UNL     1      61.620  44.292  35.697  1.00  0.00     0.404 C 
BRANCH   2   3
HETATM    3  N1  UNL     1      60.396  44.391  34.918  1.00  0.00    -0.048 N 
ATOM      4  H13 UNL     1      59.819  43.552  34.991  1.00  0.00     0.276 HD
ATOM      5  H12 UNL     1      59.732  45.054  35.319  1.00  0.00     0.276 HD
ATOM      6  H11 UNL     1      60.637  44.615  33.953  1.00  0.00     0.276 HD
ENDBRANCH   2   3
BRANCH   2   7
HETATM    7  N2  UNL     1      62.364  43.141  35.251  1.00  0.00    -0.048 N 
ATOM      8  H23 UNL     1      62.829  43.299  34.357  1.00  0.00     0.276 HD
ATOM      9  H22 UNL     1      63.197  42.972  35.816  1.00  0.00     0.276 HD
ATOM     10  H21 UNL     1      61.740  42.335  35.228  1.00  0.00     0.276 HD
ENDBRANCH   2   7
ENDBRANCH   1   2
BRANCH   1  11
HETATM   11  N3  UNL     1      61.556  42.712  37.480  1.00  0.00    -0.348 N 
HETATM   12  C3  UNL     1      61.168  42.121  38.707  1.00  0.00     0.230 C 
HETATM   13  O1  UNL     1      60.575  42.827  39.543  1.00  0.00    -0.273 OA
ATOM     14  H3  UNL     1      62.044  42.145  36.787  1.00  0.00     0.163 HD
BRANCH  12  15
HETATM   15  C4  UNL     1      61.495  40.694  38.920  1.00  0.00     0.158 C 
HETATM   16  C5  UNL     1      61.615  40.318  40.354  1.00  0.00     0.080 C 
HETATM   17  C6  UNL     1      62.695  39.304  40.343  1.00  0.00     0.034 A 
HETATM   18  N4  UNL     1      63.072  38.389  41.259  1.00  0.00    -0.311 N 
HETATM   19  C9  UNL     1      63.408  39.352  39.162  1.00  0.00     0.101 A 
HETATM   20  C7  UNL     1      64.081  37.539  41.088  1.00  0.00     0.327 A 
ATOM     21  H4  UNL     1      62.552  38.346  42.136  1.00  0.00     0.170 HD
HETATM   22  O2  UNL     1      64.443  36.680  41.933  1.00  0.00    -0.247 OA
HETATM   23  N5  UNL     1      64.761  37.605  39.927  1.00  0.00    -0.275 N 
HETATM   24  C8  UNL     1      64.474  38.470  38.955  1.00  0.00     0.265 A 
ATOM     25  H5  UNL     1      65.537  36.958  39.785  1.00  0.00     0.173 HD
HETATM   26  O3  UNL     1      65.116  38.526  37.869  1.00  0.00    -0.267 OA
HETATM   27  C10 UNL     1      62.820  40.403  38.350  1.00  0.00     0.180 C 
HETATM   28  O4  UNL     1      63.373  40.932  37.361  1.00  0.00    -0.291 OA
ENDBRANCH  12  15
ENDBRANCH   1  11
BRANCH   1  29
HETATM   29  C11 UNL     1      62.236  44.924  38.030  1.00  0.00     0.404 C 
BRANCH  29  30
HETATM   30  N6  UNL     1      63.076  45.797  37.244  1.00  0.00    -0.048 N 
ATOM     31  H63 UNL     1      62.997  45.584  36.249  1.00  0.00     0.276 HD
ATOM     32  H62 UNL     1      62.710  46.749  37.238  1.00  0.00     0.276 HD
ATOM     33  H61 UNL     1      64.051  45.781  37.545  1.00  0.00     0.276 HD
ENDBRANCH  29  30
BRANCH  29  34
HETATM   34  N7  UNL     1      61.441  45.678  38.985  1.00  0.00    -0.048 N 
ATOM     35  H73 UNL     1      60.621  45.167  39.314  1.00  0.00     0.276 HD
ATOM     36  H72 UNL     1      61.899  45.787  39.889  1.00  0.00     0.276 HD
ATOM     37  H71 UNL     1      61.206  46.569  38.546  1.00  0.00     0.276 HD
ENDBRANCH  29  34
ENDBRANCH   1  29
TORSDOF 8
ENDMDL
