MODEL 1
REMARK VINA RESULT: -7.564983155      0.000      0.000
REMARK  6 active torsions:
REMARK  status: ('A' for Active; 'I' for Inactive)
REMARK    1  A    between atoms: C3_7  and  N3_8 
REMARK    2  A    between atoms: N5_16  and  C6_17 
REMARK    3  A    between atoms: C6_17  and  C7_18 
REMARK       I    between atoms: C7_18  and  N6_20 
REMARK    4  A    between atoms: N6_20  and  C8_22 
REMARK    5  A    between atoms: C8_22  and  C9_23 
REMARK       I    between atoms: C9_23  and  N7_25 
REMARK    6  A    between atoms: N7_25  and  N8_27 
ROOT
HETATM    1  C1  UNL     1      64.368  37.451  41.947  1.00  0.00     0.163 C 
HETATM    2  N1  UNL     1      65.683  37.288  41.387  1.00  0.00    -0.287 N 
HETATM    3  C2  UNL     1      66.747  36.999  42.193  1.00  0.00     0.329 A 
HETATM    4  O1  UNL     1      66.526  36.857  43.442  1.00  0.00    -0.246 OA
HETATM    5  N2  UNL     1      67.996  36.858  41.738  1.00  0.00    -0.293 N 
ATOM      6  H2  UNL     1      68.746  36.641  42.394  1.00  0.00     0.172 HD
HETATM    7  C3  UNL     1      68.278  36.997  40.438  1.00  0.00     0.134 A 
HETATM    8  C4  UNL     1      67.234  37.290  39.584  1.00  0.00     0.125 A 
HETATM    9  N4  UNL     1      67.192  37.493  38.249  1.00  0.00    -0.302 N 
ATOM     10  H4  UNL     1      67.992  37.455  37.618  1.00  0.00     0.171 HD
HETATM   11  C5  UNL     1      65.940  37.750  37.892  1.00  0.00     0.329 A 
HETATM   12  O2  UNL     1      65.457  37.997  36.754  1.00  0.00    -0.246 OA
HETATM   13  N5  UNL     1      65.146  37.714  39.025  1.00  0.00    -0.274 N 
HETATM   14  C10 UNL     1      65.920  37.436  40.073  1.00  0.00     0.149 A 
ENDROOT
BRANCH  13  15
HETATM   15  C6  UNL     1      63.721  37.956  38.984  1.00  0.00     0.238 C 
BRANCH  15  16
HETATM   16  C7  UNL     1      63.529  39.448  38.943  1.00  0.00     0.236 C 
HETATM   17  O3  UNL     1      63.398  40.047  40.036  1.00  0.00    -0.272 OA
HETATM   18  N6  UNL     1      63.498  40.151  37.705  1.00  0.00    -0.351 N 
ATOM     19  H6  UNL     1      63.616  39.633  36.835  1.00  0.00     0.163 HD
BRANCH  18  20
HETATM   20  C8  UNL     1      63.307  41.558  37.653  1.00  0.00     0.227 C 
BRANCH  20  21
HETATM   21  C9  UNL     1      62.293  41.949  36.666  1.00  0.00     0.253 C 
HETATM   22  O4  UNL     1      61.321  42.674  37.050  1.00  0.00    -0.270 OA
HETATM   23  N7  UNL     1      62.332  41.577  35.318  1.00  0.00    -0.275 N 
ATOM     24  H7  UNL     1      63.097  41.004  34.963  1.00  0.00     0.189 HD
BRANCH  23  25
HETATM   25  N8  UNL     1      61.288  42.009  34.444  1.00  0.00    -0.343 N 
ATOM     26  H82 UNL     1      60.316  41.937  34.749  1.00  0.00     0.176 HD
ATOM     27  H81 UNL     1      61.528  42.385  33.527  1.00  0.00     0.176 HD
ENDBRANCH  23  25
ENDBRANCH  20  21
ENDBRANCH  18  20
ENDBRANCH  15  16
ENDBRANCH  13  15
BRANCH   7  28
HETATM   28  N3  UNL     1      69.471  36.870  39.960  1.00  0.00    -0.383 N 
ATOM     29  H32 UNL     1      70.270  37.167  40.521  1.00  0.00     0.157 HD
ATOM     30  H31 UNL     1      69.660  36.481  39.036  1.00  0.00     0.157 HD
ENDBRANCH   7  28
TORSDOF 6
ENDMDL
MODEL 2
REMARK VINA RESULT: -7.128756245      1.519      2.708
REMARK  6 active torsions:
REMARK  status: ('A' for Active; 'I' for Inactive)
REMARK    1  A    between atoms: C3_7  and  N3_8 
REMARK    2  A    between atoms: N5_16  and  C6_17 
REMARK    3  A    between atoms: C6_17  and  C7_18 
REMARK       I    between atoms: C7_18  and  N6_20 
REMARK    4  A    between atoms: N6_20  and  C8_22 
REMARK    5  A    between atoms: C8_22  and  C9_23 
REMARK       I    between atoms: C9_23  and  N7_25 
REMARK    6  A    between atoms: N7_25  and  N8_27 
ROOT
HETATM    1  C1  UNL     1      66.916  37.418  38.081  1.00  0.00     0.163 C 
HETATM    2  N1  UNL     1      67.008  37.314  39.513  1.00  0.00    -0.287 N 
HETATM    3  C2  UNL     1      68.198  37.007  40.108  1.00  0.00     0.329 A 
HETATM    4  O1  UNL     1      69.216  36.842  39.354  1.00  0.00    -0.246 OA
HETATM    5  N2  UNL     1      68.346  36.873  41.429  1.00  0.00    -0.293 N 
ATOM      6  H2  UNL     1      69.263  36.643  41.810  1.00  0.00     0.172 HD
HETATM    7  C3  UNL     1      67.310  37.036  42.261  1.00  0.00     0.134 A 
HETATM    8  C4  UNL     1      66.086  37.347  41.705  1.00  0.00     0.125 A 
HETATM    9  N4  UNL     1      64.873  37.564  42.259  1.00  0.00    -0.302 N 
ATOM     10  H4  UNL     1      64.662  37.529  43.257  1.00  0.00     0.171 HD
HETATM   11  C5  UNL     1      64.000  37.828  41.296  1.00  0.00     0.329 A 
HETATM   12  O2  UNL     1      62.768  38.087  41.368  1.00  0.00    -0.246 OA
HETATM   13  N5  UNL     1      64.662  37.782  40.081  1.00  0.00    -0.274 N 
HETATM   14  C10 UNL     1      65.940  37.487  40.310  1.00  0.00     0.149 A 
ENDROOT
BRANCH  13  15
HETATM   15  C6  UNL     1      63.993  38.024  38.822  1.00  0.00     0.238 C 
BRANCH  15  16
HETATM   16  C7  UNL     1      63.789  39.511  38.711  1.00  0.00     0.236 C 
HETATM   17  O3  UNL     1      64.811  40.233  38.642  1.00  0.00    -0.272 OA
HETATM   18  N6  UNL     1      62.481  40.073  38.684  1.00  0.00    -0.351 N 
ATOM     19  H6  UNL     1      61.672  39.453  38.733  1.00  0.00     0.163 HD
BRANCH  18  20
HETATM   20  C8  UNL     1      62.276  41.475  38.590  1.00  0.00     0.227 C 
BRANCH  20  21
HETATM   21  C9  UNL     1      61.835  41.889  37.253  1.00  0.00     0.253 C 
HETATM   22  O4  UNL     1      60.823  42.654  37.158  1.00  0.00    -0.270 OA
HETATM   23  N7  UNL     1      62.465  41.497  36.068  1.00  0.00    -0.275 N 
ATOM     24  H7  UNL     1      63.286  40.891  36.095  1.00  0.00     0.189 HD
BRANCH  23  25
HETATM   25  N8  UNL     1      61.947  41.955  34.817  1.00  0.00    -0.343 N 
ATOM     26  H82 UNL     1      62.082  42.929  34.545  1.00  0.00     0.176 HD
ATOM     27  H81 UNL     1      61.450  41.299  34.213  1.00  0.00     0.176 HD
ENDBRANCH  23  25
ENDBRANCH  20  21
ENDBRANCH  18  20
ENDBRANCH  15  16
ENDBRANCH  13  15
BRANCH   7  28
HETATM   28  N3  UNL     1      67.411  36.914  43.542  1.00  0.00    -0.383 N 
ATOM     29  H32 UNL     1      68.295  36.605  43.948  1.00  0.00     0.157 HD
ATOM     30  H31 UNL     1      66.642  37.114  44.181  1.00  0.00     0.157 HD
ENDBRANCH   7  28
TORSDOF 6
ENDMDL
MODEL 3
REMARK VINA RESULT: -7.090573375      3.259      5.062
REMARK  6 active torsions:
REMARK  status: ('A' for Active; 'I' for Inactive)
REMARK    1  A    between atoms: C3_7  and  N3_8 
REMARK    2  A    between atoms: N5_16  and  C6_17 
REMARK    3  A    between atoms: C6_17  and  C7_18 
REMARK       I    between atoms: C7_18  and  N6_20 
REMARK    4  A    between atoms: N6_20  and  C8_22 
REMARK    5  A    between atoms: C8_22  and  C9_23 
REMARK       I    between atoms: C9_23  and  N7_25 
REMARK    6  A    between atoms: N7_25  and  N8_27 
ROOT
HETATM    1  C1  UNL     1      60.690  40.983  40.849  1.00  0.00     0.163 C 
HETATM    2  N1  UNL     1      61.795  40.255  40.288  1.00  0.00    -0.287 N 
HETATM    3  C2  UNL     1      62.379  39.238  40.987  1.00  0.00     0.329 A 
HETATM    4  O1  UNL     1      61.895  38.949  42.133  1.00  0.00    -0.246 OA
HETATM    5  N2  UNL     1      63.422  38.537  40.532  1.00  0.00    -0.293 N 
ATOM      6  H2  UNL     1      63.811  37.788  41.105  1.00  0.00     0.172 HD
HETATM    7  C3  UNL     1      63.965  38.802  39.338  1.00  0.00     0.134 A 
HETATM    8  C4  UNL     1      63.408  39.822  38.594  1.00  0.00     0.125 A 
HETATM    9  N4  UNL     1      63.722  40.328  37.381  1.00  0.00    -0.302 N 
ATOM     10  H4  UNL     1      64.479  40.002  36.781  1.00  0.00     0.171 HD
HETATM   11  C5  UNL     1      62.885  41.317  37.098  1.00  0.00     0.329 A 
HETATM   12  O2  UNL     1      62.819  42.055  36.078  1.00  0.00    -0.246 OA
HETATM   13  N5  UNL     1      62.002  41.460  38.154  1.00  0.00    -0.274 N 
HETATM   14  C10 UNL     1      62.307  40.555  39.082  1.00  0.00     0.149 A 
ENDROOT
BRANCH  13  15
HETATM   15  C6  UNL     1      60.955  42.458  38.163  1.00  0.00     0.238 C 
BRANCH  15  16
HETATM   16  C7  UNL     1      61.629  43.801  38.252  1.00  0.00     0.236 C 
HETATM   17  O3  UNL     1      62.026  44.178  39.379  1.00  0.00    -0.272 OA
HETATM   18  N6  UNL     1      61.808  44.610  37.094  1.00  0.00    -0.351 N 
ATOM     19  H6  UNL     1      61.480  44.268  36.191  1.00  0.00     0.163 HD
BRANCH  18  20
HETATM   20  C8  UNL     1      62.432  45.884  37.166  1.00  0.00     0.227 C 
BRANCH  20  21
HETATM   21  C9  UNL     1      61.588  46.953  36.620  1.00  0.00     0.253 C 
HETATM   22  O4  UNL     1      62.131  47.839  35.885  1.00  0.00    -0.270 OA
HETATM   23  N7  UNL     1      60.213  47.059  36.854  1.00  0.00    -0.275 N 
ATOM     24  H7  UNL     1      59.733  46.367  37.430  1.00  0.00     0.189 HD
BRANCH  23  25
HETATM   25  N8  UNL     1      59.488  48.146  36.277  1.00  0.00    -0.343 N 
ATOM     26  H82 UNL     1      59.391  49.017  36.799  1.00  0.00     0.176 HD
ATOM     27  H81 UNL     1      59.077  48.036  35.349  1.00  0.00     0.176 HD
ENDBRANCH  23  25
ENDBRANCH  20  21
ENDBRANCH  18  20
ENDBRANCH  15  16
ENDBRANCH  13  15
BRANCH   7  28
HETATM   28  N3  UNL     1      64.973  38.149  38.864  1.00  0.00    -0.383 N 
ATOM     29  H32 UNL     1      64.885  37.147  38.692  1.00  0.00     0.157 HD
ATOM     30  H31 UNL     1      65.867  38.590  38.648  1.00  0.00     0.157 HD
ENDBRANCH   7  28
TORSDOF 6
ENDMDL
MODEL 4
REMARK VINA RESULT: -7.011249323      4.152      6.677
REMARK  6 active torsions:
REMARK  status: ('A' for Active; 'I' for Inactive)
REMARK    1  A    between atoms: C3_7  and  N3_8 
REMARK    2  A    between atoms: N5_16  and  C6_17 
REMARK    3  A    between atoms: C6_17  and  C7_18 
REMARK       I    between atoms: C7_18  and  N6_20 
REMARK    4  A    between atoms: N6_20  and  C8_22 
REMARK    5  A    between atoms: C8_22  and  C9_23 
REMARK       I    between atoms: C9_23  and  N7_25 
REMARK    6  A    between atoms: N7_25  and  N8_27 
ROOT
HETATM    1  C1  UNL     1      60.239  42.351  39.719  1.00  0.00     0.163 C 
HETATM    2  N1  UNL     1      61.290  41.582  39.108  1.00  0.00    -0.287 N 
HETATM    3  C2  UNL     1      61.777  40.465  39.725  1.00  0.00     0.329 A 
HETATM    4  O1  UNL     1      61.252  40.123  40.838  1.00  0.00    -0.246 OA
HETATM    5  N2  UNL     1      62.766  39.720  39.222  1.00  0.00    -0.293 N 
ATOM      6  H2  UNL     1      63.082  38.896  39.733  1.00  0.00     0.172 HD
HETATM    7  C3  UNL     1      63.347  40.037  38.059  1.00  0.00     0.134 A 
HETATM    8  C4  UNL     1      62.889  41.159  37.399  1.00  0.00     0.125 A 
HETATM    9  N4  UNL     1      63.262  41.736  36.236  1.00  0.00    -0.302 N 
ATOM     10  H4  UNL     1      64.000  41.399  35.617  1.00  0.00     0.171 HD
HETATM   11  C5  UNL     1      62.514  42.811  36.029  1.00  0.00     0.329 A 
HETATM   12  O2  UNL     1      62.526  43.635  35.075  1.00  0.00    -0.246 OA
HETATM   13  N5  UNL     1      61.629  42.939  37.086  1.00  0.00    -0.274 N 
HETATM   14  C10 UNL     1      61.844  41.937  37.937  1.00  0.00     0.149 A 
ENDROOT
BRANCH  13  15
HETATM   15  C6  UNL     1      60.669  44.017  37.170  1.00  0.00     0.238 C 
BRANCH  15  16
HETATM   16  C7  UNL     1      61.447  45.304  37.120  1.00  0.00     0.236 C 
HETATM   17  O3  UNL     1      62.432  45.417  37.886  1.00  0.00    -0.272 OA
HETATM   18  N6  UNL     1      61.075  46.354  36.232  1.00  0.00    -0.351 N 
ATOM     19  H6  UNL     1      60.272  46.223  35.616  1.00  0.00     0.163 HD
BRANCH  18  20
HETATM   20  C8  UNL     1      61.794  47.577  36.184  1.00  0.00     0.227 C 
BRANCH  20  21
HETATM   21  C9  UNL     1      61.468  48.464  37.307  1.00  0.00     0.253 C 
HETATM   22  O4  UNL     1      60.502  49.282  37.172  1.00  0.00    -0.270 OA
HETATM   23  N7  UNL     1      62.152  48.463  38.527  1.00  0.00    -0.275 N 
ATOM     24  H7  UNL     1      62.927  47.818  38.683  1.00  0.00     0.189 HD
BRANCH  23  25
HETATM   25  N8  UNL     1      61.753  49.375  39.552  1.00  0.00    -0.343 N 
ATOM     26  H82 UNL     1      60.763  49.479  39.774  1.00  0.00     0.176 HD
ATOM     27  H81 UNL     1      62.466  49.910  40.048  1.00  0.00     0.176 HD
ENDBRANCH  23  25
ENDBRANCH  20  21
ENDBRANCH  18  20
ENDBRANCH  15  16
ENDBRANCH  13  15
BRANCH   7  28
HETATM   28  N3  UNL     1      64.305  39.344  37.541  1.00  0.00    -0.383 N 
ATOM     29  H32 UNL     1      64.792  38.655  38.114  1.00  0.00     0.157 HD
ATOM     30  H31 UNL     1      64.606  39.451  36.572  1.00  0.00     0.157 HD
ENDBRANCH   7  28
TORSDOF 6
ENDMDL
MODEL 5
REMARK VINA RESULT: -6.798299668      1.246      1.412
REMARK  6 active torsions:
REMARK  status: ('A' for Active; 'I' for Inactive)
REMARK    1  A    between atoms: C3_7  and  N3_8 
REMARK    2  A    between atoms: N5_16  and  C6_17 
REMARK    3  A    between atoms: C6_17  and  C7_18 
REMARK       I    between atoms: C7_18  and  N6_20 
REMARK    4  A    between atoms: N6_20  and  C8_22 
REMARK    5  A    between atoms: C8_22  and  C9_23 
REMARK       I    between atoms: C9_23  and  N7_25 
REMARK    6  A    between atoms: N7_25  and  N8_27 
ROOT
HETATM    1  C1  UNL     1      64.126  37.613  41.701  1.00  0.00     0.163 C 
HETATM    2  N1  UNL     1      65.462  37.367  41.230  1.00  0.00    -0.287 N 
HETATM    3  C2  UNL     1      66.452  37.026  42.106  1.00  0.00     0.329 A 
HETATM    4  O1  UNL     1      66.142  36.912  43.340  1.00  0.00    -0.246 OA
HETATM    5  N2  UNL     1      67.718  36.807  41.737  1.00  0.00    -0.293 N 
ATOM      6  H2  UNL     1      68.409  36.554  42.442  1.00  0.00     0.172 HD
HETATM    7  C3  UNL     1      68.092  36.913  40.456  1.00  0.00     0.134 A 
HETATM    8  C4  UNL     1      67.126  37.257  39.533  1.00  0.00     0.125 A 
HETATM    9  N4  UNL     1      67.183  37.447  38.197  1.00  0.00    -0.302 N 
ATOM     10  H4  UNL     1      68.019  37.354  37.620  1.00  0.00     0.171 HD
HETATM   11  C5  UNL     1      65.975  37.773  37.756  1.00  0.00     0.329 A 
HETATM   12  O2  UNL     1      65.582  38.034  36.587  1.00  0.00    -0.246 OA
HETATM   13  N5  UNL     1      65.107  37.797  38.835  1.00  0.00    -0.274 N 
HETATM   14  C10 UNL     1      65.793  37.485  39.933  1.00  0.00     0.149 A 
ENDROOT
BRANCH  13  15
HETATM   15  C6  UNL     1      63.705  38.121  38.697  1.00  0.00     0.238 C 
BRANCH  15  16
HETATM   16  C7  UNL     1      63.605  39.621  38.622  1.00  0.00     0.236 C 
HETATM   17  O3  UNL     1      63.644  40.260  39.699  1.00  0.00    -0.272 OA
HETATM   18  N6  UNL     1      63.474  40.286  37.370  1.00  0.00    -0.351 N 
ATOM     19  H6  UNL     1      63.455  39.734  36.512  1.00  0.00     0.163 HD
BRANCH  18  20
HETATM   20  C8  UNL     1      63.368  41.700  37.286  1.00  0.00     0.227 C 
BRANCH  20  21
HETATM   21  C9  UNL     1      62.054  42.190  37.717  1.00  0.00     0.253 C 
HETATM   22  O4  UNL     1      61.120  42.258  36.855  1.00  0.00    -0.270 OA
HETATM   23  N7  UNL     1      61.758  42.585  39.025  1.00  0.00    -0.275 N 
ATOM     24  H7  UNL     1      62.473  42.540  39.752  1.00  0.00     0.189 HD
BRANCH  23  25
HETATM   25  N8  UNL     1      60.444  43.054  39.334  1.00  0.00    -0.343 N 
ATOM     26  H82 UNL     1      59.661  42.400  39.314  1.00  0.00     0.176 HD
ATOM     27  H81 UNL     1      60.308  44.037  39.571  1.00  0.00     0.176 HD
ENDBRANCH  23  25
ENDBRANCH  20  21
ENDBRANCH  18  20
ENDBRANCH  15  16
ENDBRANCH  13  15
BRANCH   7  28
HETATM   28  N3  UNL     1      69.304  36.711  40.059  1.00  0.00    -0.383 N 
ATOM     29  H32 UNL     1      69.981  37.473  40.107  1.00  0.00     0.157 HD
ATOM     30  H31 UNL     1      69.626  35.814  39.695  1.00  0.00     0.157 HD
ENDBRANCH   7  28
TORSDOF 6
ENDMDL
