MODEL 1
REMARK VINA RESULT: -6.825140570      0.000      0.000
REMARK  5 active torsions:
REMARK  status: ('A' for Active; 'I' for Inactive)
REMARK    1  A    between atoms: C2_2  and  C3_3 
REMARK    2  A    between atoms: C3_3  and  N1_4 
REMARK    3  A    between atoms: C3_3  and  C4_8 
REMARK       I    between atoms: C4_8  and  N2_10 
REMARK    4  A    between atoms: N2_10  and  C5_12 
REMARK    5  A    between atoms: N6_22  and  N7_23 
ROOT
HETATM    1  C5  UNL     1       7.935  19.836  12.178  1.00  0.00     0.719 A 
HETATM    2  N3  UNL     1       7.240  20.728  12.881  1.00  0.00    -0.097 N 
ATOM      3  H3  UNL     1       7.180  20.611  13.892  1.00  0.00     0.199 HD
HETATM    4  S1  UNL     1       6.453  22.045  12.173  1.00  0.00     0.339 S 
HETATM    5  O2  UNL     1       7.121  23.325  12.671  1.00  0.00    -0.182 OA
HETATM    6  O3  UNL     1       4.980  22.084  12.491  1.00  0.00    -0.182 OA
HETATM    7  N4  UNL     1       6.728  21.979  10.482  1.00  0.00    -0.238 N 
ATOM      8  H4  UNL     1       6.334  22.688   9.864  1.00  0.00     0.183 HD
HETATM    9  C6  UNL     1       7.431  21.028  10.012  1.00  0.00     0.241 A 
HETATM   10  N5  UNL     1       7.622  21.036   8.571  1.00  0.00    -0.060 NA
HETATM   11  N6  UNL     1       8.032  19.976  10.788  1.00  0.00    -0.061 N 
ENDROOT
BRANCH   1  12
HETATM   12  N2  UNL     1       8.512  18.819  12.961  1.00  0.00    -0.155 N 
HETATM   13  C4  UNL     1       8.054  18.034  14.003  1.00  0.00     0.266 C 
HETATM   14  O1  UNL     1       6.946  18.045  14.528  1.00  0.00    -0.270 OA
ATOM     15  H2  UNL     1       9.479  18.617  12.706  1.00  0.00     0.187 HD
BRANCH  13  16
HETATM   16  C3  UNL     1       9.003  16.996  14.632  1.00  0.00     0.275 C 
BRANCH  16  17
HETATM   17  C2  UNL     1       8.859  15.717  13.839  1.00  0.00     0.038 C 
HETATM   18  C1  UNL     1       7.987  14.714  14.518  1.00  0.00     0.007 C 
ENDBRANCH  16  17
BRANCH  16  19
HETATM   19  N1  UNL     1      10.319  17.549  14.567  1.00  0.00    -0.067 N 
ATOM     20  H13 UNL     1      10.701  17.690  15.501  1.00  0.00     0.275 HD
ATOM     21  H12 UNL     1      10.986  16.860  14.216  1.00  0.00     0.275 HD
ATOM     22  H11 UNL     1      10.363  18.409  14.021  1.00  0.00     0.275 HD
ENDBRANCH  16  19
ENDBRANCH  13  16
ENDBRANCH   1  12
BRANCH  11  23
HETATM   23  N7  UNL     1       8.763  19.049   9.988  1.00  0.00    -0.322 N 
ATOM     24  H72 UNL     1       8.478  19.061   9.010  1.00  0.00     0.178 HD
ATOM     25  H71 UNL     1       9.489  18.452  10.385  1.00  0.00     0.178 HD
ENDBRANCH  11  23
TORSDOF 5
ENDMDL
MODEL 2
REMARK VINA RESULT: -6.497122904      2.630      6.047
REMARK  5 active torsions:
REMARK  status: ('A' for Active; 'I' for Inactive)
REMARK    1  A    between atoms: C2_2  and  C3_3 
REMARK    2  A    between atoms: C3_3  and  N1_4 
REMARK    3  A    between atoms: C3_3  and  C4_8 
REMARK       I    between atoms: C4_8  and  N2_10 
REMARK    4  A    between atoms: N2_10  and  C5_12 
REMARK    5  A    between atoms: N6_22  and  N7_23 
ROOT
HETATM    1  C5  UNL     1       8.078  17.768  14.067  1.00  0.00     0.719 A 
HETATM    2  N3  UNL     1       6.808  17.404  14.232  1.00  0.00    -0.097 N 
ATOM      3  H3  UNL     1       6.090  17.876  13.682  1.00  0.00     0.199 HD
HETATM    4  S1  UNL     1       6.331  16.194  15.311  1.00  0.00     0.339 S 
HETATM    5  O2  UNL     1       5.748  15.036  14.503  1.00  0.00    -0.182 OA
HETATM    6  O3  UNL     1       5.314  16.675  16.314  1.00  0.00    -0.182 OA
HETATM    7  N4  UNL     1       7.737  15.590  16.083  1.00  0.00    -0.238 N 
ATOM      8  H4  UNL     1       7.668  14.847  16.779  1.00  0.00     0.183 HD
HETATM    9  C6  UNL     1       8.867  16.085  15.773  1.00  0.00     0.241 A 
HETATM   10  N5  UNL     1      10.015  15.524  16.468  1.00  0.00    -0.060 NA
HETATM   11  N6  UNL     1       9.081  17.132  14.810  1.00  0.00    -0.061 N 
ENDROOT
BRANCH   1  12
HETATM   12  N2  UNL     1       8.258  18.793  13.119  1.00  0.00    -0.155 N 
HETATM   13  C4  UNL     1       7.407  19.467  12.262  1.00  0.00     0.266 C 
HETATM   14  O1  UNL     1       6.200  19.313  12.120  1.00  0.00    -0.270 OA
ATOM     15  H2  UNL     1       9.225  19.106  13.049  1.00  0.00     0.187 HD
BRANCH  13  16
HETATM   16  C3  UNL     1       7.983  20.560  11.342  1.00  0.00     0.275 C 
BRANCH  16  17
HETATM   17  C2  UNL     1       8.095  19.967   9.956  1.00  0.00     0.038 C 
HETATM   18  C1  UNL     1       9.385  19.247   9.741  1.00  0.00     0.007 C 
ENDBRANCH  16  17
BRANCH  16  19
HETATM   19  N1  UNL     1       7.082  21.667  11.405  1.00  0.00    -0.067 N 
ATOM     20  H13 UNL     1       6.133  21.353  11.604  1.00  0.00     0.275 HD
ATOM     21  H12 UNL     1       7.252  22.226  12.242  1.00  0.00     0.275 HD
ATOM     22  H11 UNL     1       7.106  22.249  10.568  1.00  0.00     0.275 HD
ENDBRANCH  16  19
ENDBRANCH  13  16
ENDBRANCH   1  12
BRANCH  11  23
HETATM   23  N7  UNL     1      10.455  17.483  14.672  1.00  0.00    -0.322 N 
ATOM     24  H72 UNL     1      10.600  18.490  14.597  1.00  0.00     0.178 HD
ATOM     25  H71 UNL     1      11.191  16.777  14.653  1.00  0.00     0.178 HD
ENDBRANCH  11  23
TORSDOF 5
ENDMDL
MODEL 3
REMARK VINA RESULT: -6.472177124      2.178      3.316
REMARK  5 active torsions:
REMARK  status: ('A' for Active; 'I' for Inactive)
REMARK    1  A    between atoms: C2_2  and  C3_3 
REMARK    2  A    between atoms: C3_3  and  N1_4 
REMARK    3  A    between atoms: C3_3  and  C4_8 
REMARK       I    between atoms: C4_8  and  N2_10 
REMARK    4  A    between atoms: N2_10  and  C5_12 
REMARK    5  A    between atoms: N6_22  and  N7_23 
ROOT
HETATM    1  C5  UNL     1       6.830  20.233  13.786  1.00  0.00     0.719 A 
HETATM    2  N3  UNL     1       7.119  21.089  12.808  1.00  0.00    -0.097 N 
ATOM      3  H3  UNL     1       8.001  20.979  12.309  1.00  0.00     0.199 HD
HETATM    4  S1  UNL     1       6.090  22.351  12.358  1.00  0.00     0.339 S 
HETATM    5  O2  UNL     1       5.606  22.088  10.932  1.00  0.00    -0.182 OA
HETATM    6  O3  UNL     1       6.757  23.702  12.426  1.00  0.00    -0.182 OA
HETATM    7  N4  UNL     1       4.702  22.287  13.362  1.00  0.00    -0.238 N 
ATOM      8  H4  UNL     1       3.951  22.968  13.253  1.00  0.00     0.183 HD
HETATM    9  C6  UNL     1       4.627  21.374  14.245  1.00  0.00     0.241 A 
HETATM   10  N5  UNL     1       3.422  21.381  15.059  1.00  0.00    -0.060 NA
HETATM   11  N6  UNL     1       5.624  20.366  14.486  1.00  0.00    -0.061 N 
ENDROOT
BRANCH   1  12
HETATM   12  N2  UNL     1       7.822  19.258  14.000  1.00  0.00    -0.155 N 
HETATM   13  C4  UNL     1       7.793  17.893  14.220  1.00  0.00     0.266 C 
HETATM   14  O1  UNL     1       6.815  17.158  14.286  1.00  0.00    -0.270 OA
ATOM     15  H2  UNL     1       8.767  19.640  13.990  1.00  0.00     0.187 HD
BRANCH  13  16
HETATM   16  C3  UNL     1       9.122  17.139  14.418  1.00  0.00     0.275 C 
BRANCH  16  17
HETATM   17  C2  UNL     1       8.787  15.672  14.565  1.00  0.00     0.038 C 
HETATM   18  C1  UNL     1       9.267  15.099  15.857  1.00  0.00     0.007 C 
ENDBRANCH  16  17
BRANCH  16  19
HETATM   19  N1  UNL     1       9.927  17.416  13.271  1.00  0.00    -0.067 N 
ATOM     20  H13 UNL     1       9.948  16.617  12.639  1.00  0.00     0.275 HD
ATOM     21  H12 UNL     1       9.472  18.098  12.663  1.00  0.00     0.275 HD
ATOM     22  H11 UNL     1      10.872  17.716  13.510  1.00  0.00     0.275 HD
ENDBRANCH  16  19
ENDBRANCH  13  16
ENDBRANCH   1  12
BRANCH  11  23
HETATM   23  N7  UNL     1       5.266  19.476  15.541  1.00  0.00    -0.322 N 
ATOM     24  H72 UNL     1       4.902  18.586  15.201  1.00  0.00     0.178 HD
ATOM     25  H71 UNL     1       5.374  19.734  16.522  1.00  0.00     0.178 HD
ENDBRANCH  11  23
TORSDOF 5
ENDMDL
MODEL 4
REMARK VINA RESULT: -6.267080222      2.829      5.787
REMARK  5 active torsions:
REMARK  status: ('A' for Active; 'I' for Inactive)
REMARK    1  A    between atoms: C2_2  and  C3_3 
REMARK    2  A    between atoms: C3_3  and  N1_4 
REMARK    3  A    between atoms: C3_3  and  C4_8 
REMARK       I    between atoms: C4_8  and  N2_10 
REMARK    4  A    between atoms: N2_10  and  C5_12 
REMARK    5  A    between atoms: N6_22  and  N7_23 
ROOT
HETATM    1  C5  UNL     1       7.411  17.810  13.973  1.00  0.00     0.719 A 
HETATM    2  N3  UNL     1       6.166  18.139  14.312  1.00  0.00    -0.097 N 
ATOM      3  H3  UNL     1       5.729  18.936  13.849  1.00  0.00     0.199 HD
HETATM    4  S1  UNL     1       5.276  17.295  15.474  1.00  0.00     0.339 S 
HETATM    5  O2  UNL     1       4.087  16.634  14.779  1.00  0.00    -0.182 OA
HETATM    6  O3  UNL     1       4.783  18.183  16.589  1.00  0.00    -0.182 OA
HETATM    7  N4  UNL     1       6.257  16.024  16.073  1.00  0.00    -0.238 N 
ATOM      8  H4  UNL     1       5.906  15.390  16.790  1.00  0.00     0.183 HD
HETATM    9  C6  UNL     1       7.433  15.886  15.605  1.00  0.00     0.241 A 
HETATM   10  N5  UNL     1       8.208  14.787  16.160  1.00  0.00    -0.060 NA
HETATM   11  N6  UNL     1       8.031  16.719  14.597  1.00  0.00    -0.061 N 
ENDROOT
BRANCH   1  12
HETATM   12  N2  UNL     1       7.970  18.641  12.985  1.00  0.00    -0.155 N 
HETATM   13  C4  UNL     1       7.440  19.402  11.960  1.00  0.00     0.266 C 
HETATM   14  O1  UNL     1       6.262  19.540  11.651  1.00  0.00    -0.270 OA
ATOM     15  H2  UNL     1       8.987  18.692  13.035  1.00  0.00     0.187 HD
BRANCH  13  16
HETATM   16  C3  UNL     1       8.393  20.203  11.051  1.00  0.00     0.275 C 
BRANCH  16  17
HETATM   17  C2  UNL     1       9.475  19.253  10.589  1.00  0.00     0.038 C 
HETATM   18  C1  UNL     1       9.488  19.074   9.107  1.00  0.00     0.007 C 
ENDBRANCH  16  17
BRANCH  16  19
HETATM   19  N1  UNL     1       7.603  20.716   9.977  1.00  0.00    -0.067 N 
ATOM     20  H13 UNL     1       8.111  20.662   9.095  1.00  0.00     0.275 HD
ATOM     21  H12 UNL     1       6.829  20.087   9.763  1.00  0.00     0.275 HD
ATOM     22  H11 UNL     1       7.266  21.663  10.147  1.00  0.00     0.275 HD
ENDBRANCH  16  19
ENDBRANCH  13  16
ENDBRANCH   1  12
BRANCH  11  23
HETATM   23  N7  UNL     1       9.361  16.325  14.272  1.00  0.00    -0.322 N 
ATOM     24  H72 UNL     1       9.959  17.114  14.027  1.00  0.00     0.178 HD
ATOM     25  H71 UNL     1       9.652  15.347  14.291  1.00  0.00     0.178 HD
ENDBRANCH  11  23
TORSDOF 5
ENDMDL
MODEL 5
REMARK VINA RESULT: -6.266509429      2.300      3.278
REMARK  5 active torsions:
REMARK  status: ('A' for Active; 'I' for Inactive)
REMARK    1  A    between atoms: C2_2  and  C3_3 
REMARK    2  A    between atoms: C3_3  and  N1_4 
REMARK    3  A    between atoms: C3_3  and  C4_8 
REMARK       I    between atoms: C4_8  and  N2_10 
REMARK    4  A    between atoms: N2_10  and  C5_12 
REMARK    5  A    between atoms: N6_22  and  N7_23 
ROOT
HETATM    1  C5  UNL     1       6.674  19.957  14.019  1.00  0.00     0.719 A 
HETATM    2  N3  UNL     1       7.275  20.774  13.157  1.00  0.00    -0.097 N 
ATOM      3  H3  UNL     1       8.236  20.572  12.884  1.00  0.00     0.199 HD
HETATM    4  S1  UNL     1       6.516  22.131  12.494  1.00  0.00     0.339 S 
HETATM    5  O2  UNL     1       6.369  21.909  10.990  1.00  0.00    -0.182 OA
HETATM    6  O3  UNL     1       7.278  23.407  12.748  1.00  0.00    -0.182 OA
HETATM    7  N4  UNL     1       4.927  22.212  13.131  1.00  0.00    -0.238 N 
ATOM      8  H4  UNL     1       4.296  22.965  12.857  1.00  0.00     0.183 HD
HETATM    9  C6  UNL     1       4.549  21.317  13.953  1.00  0.00     0.241 A 
HETATM   10  N5  UNL     1       3.190  21.450  14.451  1.00  0.00    -0.060 NA
HETATM   11  N6  UNL     1       5.353  20.214  14.409  1.00  0.00    -0.061 N 
ENDROOT
BRANCH   1  12
HETATM   12  N2  UNL     1       7.482  18.887  14.448  1.00  0.00    -0.155 N 
HETATM   13  C4  UNL     1       8.425  18.089  13.827  1.00  0.00     0.266 C 
HETATM   14  O1  UNL     1       8.806  18.134  12.663  1.00  0.00    -0.270 OA
ATOM     15  H2  UNL     1       7.341  18.649  15.429  1.00  0.00     0.187 HD
BRANCH  13  16
HETATM   16  C3  UNL     1       9.123  16.984  14.642  1.00  0.00     0.275 C 
BRANCH  16  17
HETATM   17  C2  UNL     1       8.979  15.695  13.865  1.00  0.00     0.038 C 
HETATM   18  C1  UNL     1       7.967  14.774  14.462  1.00  0.00     0.007 C 
ENDBRANCH  16  17
BRANCH  16  19
HETATM   19  N1  UNL     1      10.484  17.390  14.803  1.00  0.00    -0.067 N 
ATOM     20  H13 UNL     1      10.741  17.416  15.789  1.00  0.00     0.275 HD
ATOM     21  H12 UNL     1      11.121  16.660  14.484  1.00  0.00     0.275 HD
ATOM     22  H11 UNL     1      10.692  18.278  14.349  1.00  0.00     0.275 HD
ENDBRANCH  16  19
ENDBRANCH  13  16
ENDBRANCH   1  12
BRANCH  11  23
HETATM   23  N7  UNL     1       4.663  19.371  15.329  1.00  0.00    -0.322 N 
ATOM     24  H72 UNL     1       4.530  19.808  16.241  1.00  0.00     0.178 HD
ATOM     25  H71 UNL     1       4.350  18.436  15.070  1.00  0.00     0.178 HD
ENDBRANCH  11  23
TORSDOF 5
ENDMDL
