MODEL 1
REMARK VINA RESULT: -7.254917673      0.000      0.000
REMARK  4 active torsions:
REMARK  status: ('A' for Active; 'I' for Inactive)
REMARK       I    between atoms: N4_13  and  C7_15 
REMARK    1  A    between atoms: C7_15  and  C8_17 
REMARK    2  A    between atoms: C8_17  and  N5_18 
REMARK    3  A    between atoms: C8_17  and  C9_22 
REMARK    4  A    between atoms: C9_22  and  N6_23 
ROOT
HETATM    1  C1  UNL     1       6.313  21.539   9.324  1.00  0.00     0.157 C 
HETATM    2  N1  UNL     1       7.502  20.702   9.410  1.00  0.00    -0.340 N 
HETATM    3  C2  UNL     1       8.308  20.284   8.427  1.00  0.00     0.184 A 
HETATM    4  N2  UNL     1       9.292  19.527   8.948  1.00  0.00    -0.335 N 
ATOM      5  H2  UNL     1      10.042  19.085   8.417  1.00  0.00     0.168 HD
HETATM    6  C3  UNL     1       9.128  19.448  10.286  1.00  0.00     0.154 A 
HETATM    7  C4  UNL     1       7.995  20.196  10.554  1.00  0.00     0.150 A 
HETATM    8  C5  UNL     1       7.414  20.409  11.873  1.00  0.00     0.290 C 
HETATM    9  O1  UNL     1       6.638  21.389  11.969  1.00  0.00    -0.265 OA
HETATM   10  N3  UNL     1       7.639  19.622  13.052  1.00  0.00    -0.153 N 
ATOM     11  H3  UNL     1       6.989  19.801  13.818  1.00  0.00     0.187 HD
HETATM   12  C6  UNL     1       8.621  18.633  13.322  1.00  0.00     0.702 C 
HETATM   13  N4  UNL     1       8.425  17.981  14.389  1.00  0.00    -0.156 N 
ATOM     14  H4  UNL     1       7.597  18.236  14.926  1.00  0.00     0.187 HD
HETATM   15  C7  UNL     1       9.208  16.958  14.916  1.00  0.00     0.268 C 
HETATM   16  O2  UNL     1      10.246  17.226  15.553  1.00  0.00    -0.270 OA
HETATM   17  N7  UNL     1       9.752  18.346  12.511  1.00  0.00    -0.130 N 
ATOM     18  H7  UNL     1      10.491  17.792  12.945  1.00  0.00     0.205 HD
HETATM   19  N8  UNL     1       9.967  18.736  11.186  1.00  0.00    -0.269 N 
ATOM     20  H8  UNL     1      10.873  18.467  10.803  1.00  0.00     0.189 HD
ENDROOT
BRANCH  15  21
HETATM   21  C8  UNL     1       8.814  15.552  14.728  1.00  0.00     0.300 C 
BRANCH  21  22
HETATM   22  N5  UNL     1       9.362  15.078  13.475  1.00  0.00    -0.065 N 
ATOM     23  H53 UNL     1       9.210  15.734  12.709  1.00  0.00     0.275 HD
ATOM     24  H52 UNL     1      10.382  15.087  13.467  1.00  0.00     0.275 HD
ATOM     25  H51 UNL     1       8.980  14.154  13.277  1.00  0.00     0.275 HD
ENDBRANCH  21  22
BRANCH  21  26
HETATM   26  C9  UNL     1       7.310  15.383  14.670  1.00  0.00     0.272 C 
BRANCH  26  27
HETATM   27  N6  UNL     1       7.035  13.964  14.898  1.00  0.00    -0.077 N 
ATOM     28  H63 UNL     1       6.910  13.435  14.035  1.00  0.00     0.274 HD
ATOM     29  H62 UNL     1       7.843  13.449  15.248  1.00  0.00     0.274 HD
ATOM     30  H61 UNL     1       6.228  13.917  15.520  1.00  0.00     0.274 HD
ENDBRANCH  26  27
ENDBRANCH  21  26
ENDBRANCH  15  21
TORSDOF 4
ENDMDL
MODEL 2
REMARK VINA RESULT: -6.849299397      0.842      1.314
REMARK  4 active torsions:
REMARK  status: ('A' for Active; 'I' for Inactive)
REMARK       I    between atoms: N4_13  and  C7_15 
REMARK    1  A    between atoms: C7_15  and  C8_17 
REMARK    2  A    between atoms: C8_17  and  N5_18 
REMARK    3  A    between atoms: C8_17  and  C9_22 
REMARK    4  A    between atoms: C9_22  and  N6_23 
ROOT
HETATM    1  C1  UNL     1       6.318  22.415   9.181  1.00  0.00     0.157 C 
HETATM    2  N1  UNL     1       7.304  21.342   9.201  1.00  0.00    -0.340 N 
HETATM    3  C2  UNL     1       7.926  20.754   8.173  1.00  0.00     0.184 A 
HETATM    4  N2  UNL     1       8.762  19.807   8.640  1.00  0.00    -0.335 N 
ATOM      5  H2  UNL     1       9.358  19.209   8.067  1.00  0.00     0.168 HD
HETATM    6  C3  UNL     1       8.685  19.775   9.988  1.00  0.00     0.154 A 
HETATM    7  C4  UNL     1       7.762  20.750  10.319  1.00  0.00     0.150 A 
HETATM    8  C5  UNL     1       7.339  21.095  11.671  1.00  0.00     0.290 C 
HETATM    9  O1  UNL     1       6.800  22.218  11.799  1.00  0.00    -0.265 OA
HETATM   10  N3  UNL     1       7.479  20.286  12.848  1.00  0.00    -0.153 N 
ATOM     11  H3  UNL     1       6.941  20.607  13.654  1.00  0.00     0.187 HD
HETATM   12  C6  UNL     1       8.244  19.112  13.071  1.00  0.00     0.702 C 
HETATM   13  N4  UNL     1       7.994  18.525  14.164  1.00  0.00    -0.156 N 
ATOM     14  H4  UNL     1       7.282  18.956  14.753  1.00  0.00     0.187 HD
HETATM   15  C7  UNL     1       8.577  17.362  14.659  1.00  0.00     0.268 C 
HETATM   16  O2  UNL     1       9.693  17.406  15.212  1.00  0.00    -0.270 OA
HETATM   17  N7  UNL     1       9.224  18.582  12.189  1.00  0.00    -0.130 N 
ATOM     18  H7  UNL     1       9.857  17.886  12.582  1.00  0.00     0.205 HD
HETATM   19  N8  UNL     1       9.418  18.907  10.843  1.00  0.00    -0.269 N 
ATOM     20  H8  UNL     1      10.214  18.446  10.402  1.00  0.00     0.189 HD
ENDROOT
BRANCH  15  21
HETATM   21  C8  UNL     1       7.879  16.072  14.532  1.00  0.00     0.300 C 
BRANCH  21  22
HETATM   22  N5  UNL     1       6.959  15.928  15.640  1.00  0.00    -0.065 N 
ATOM     23  H53 UNL     1       7.155  16.583  16.397  1.00  0.00     0.275 HD
ATOM     24  H52 UNL     1       6.020  16.253  15.412  1.00  0.00     0.275 HD
ATOM     25  H51 UNL     1       6.971  14.957  15.953  1.00  0.00     0.275 HD
ENDBRANCH  21  22
BRANCH  21  26
HETATM   26  C9  UNL     1       8.837  14.899  14.568  1.00  0.00     0.272 C 
BRANCH  26  27
HETATM   27  N6  UNL     1       9.634  14.969  13.342  1.00  0.00    -0.077 N 
ATOM     28  H63 UNL     1       9.102  14.736  12.503  1.00  0.00     0.274 HD
ATOM     29  H62 UNL     1       9.882  15.921  13.076  1.00  0.00     0.274 HD
ATOM     30  H61 UNL     1      10.445  14.366  13.485  1.00  0.00     0.274 HD
ENDBRANCH  26  27
ENDBRANCH  21  26
ENDBRANCH  15  21
TORSDOF 4
ENDMDL
MODEL 3
REMARK VINA RESULT: -6.603307783      2.695      4.110
REMARK  4 active torsions:
REMARK  status: ('A' for Active; 'I' for Inactive)
REMARK       I    between atoms: N4_13  and  C7_15 
REMARK    1  A    between atoms: C7_15  and  C8_17 
REMARK    2  A    between atoms: C8_17  and  N5_18 
REMARK    3  A    between atoms: C8_17  and  C9_22 
REMARK    4  A    between atoms: C9_22  and  N6_23 
ROOT
HETATM    1  C1  UNL     1       5.056  23.542  13.293  1.00  0.00     0.157 C 
HETATM    2  N1  UNL     1       4.711  22.243  13.854  1.00  0.00    -0.340 N 
HETATM    3  C2  UNL     1       3.663  21.909  14.617  1.00  0.00     0.184 A 
HETATM    4  N2  UNL     1       3.729  20.598  14.915  1.00  0.00    -0.335 N 
ATOM      5  H2  UNL     1       3.053  20.086  15.483  1.00  0.00     0.168 HD
HETATM    6  C3  UNL     1       4.831  20.068  14.342  1.00  0.00     0.154 A 
HETATM    7  C4  UNL     1       5.433  21.122  13.679  1.00  0.00     0.150 A 
HETATM    8  C5  UNL     1       6.666  21.043  12.904  1.00  0.00     0.290 C 
HETATM    9  O1  UNL     1       6.852  21.977  12.089  1.00  0.00    -0.265 OA
HETATM   10  N3  UNL     1       7.668  20.019  12.983  1.00  0.00    -0.153 N 
ATOM     11  H3  UNL     1       8.548  20.244  12.517  1.00  0.00     0.187 HD
HETATM   12  C6  UNL     1       7.631  18.744  13.606  1.00  0.00     0.702 C 
HETATM   13  N4  UNL     1       8.753  18.160  13.664  1.00  0.00    -0.156 N 
ATOM     14  H4  UNL     1       9.544  18.663  13.264  1.00  0.00     0.187 HD
HETATM   15  C7  UNL     1       9.034  16.911  14.210  1.00  0.00     0.268 C 
HETATM   16  O2  UNL     1       8.796  15.874  13.560  1.00  0.00    -0.270 OA
HETATM   17  N7  UNL     1       6.474  18.114  14.138  1.00  0.00    -0.130 N 
ATOM     18  H7  UNL     1       6.549  17.116  14.328  1.00  0.00     0.205 HD
HETATM   19  N8  UNL     1       5.243  18.711  14.430  1.00  0.00    -0.269 N 
ATOM     20  H8  UNL     1       4.524  18.066  14.759  1.00  0.00     0.189 HD
ENDROOT
BRANCH  15  21
HETATM   21  C8  UNL     1       9.615  16.805  15.559  1.00  0.00     0.300 C 
BRANCH  21  22
HETATM   22  N5  UNL     1      10.891  17.487  15.572  1.00  0.00    -0.065 N 
ATOM     23  H53 UNL     1      11.364  17.446  14.669  1.00  0.00     0.275 HD
ATOM     24  H52 UNL     1      10.792  18.500  15.633  1.00  0.00     0.275 HD
ATOM     25  H51 UNL     1      11.460  17.104  16.327  1.00  0.00     0.275 HD
ENDBRANCH  21  22
BRANCH  21  26
HETATM   26  C9  UNL     1       9.852  15.366  15.966  1.00  0.00     0.272 C 
BRANCH  26  27
HETATM   27  N6  UNL     1       8.535  14.740  16.092  1.00  0.00    -0.077 N 
ATOM     28  H63 UNL     1       8.425  13.912  15.506  1.00  0.00     0.274 HD
ATOM     29  H62 UNL     1       8.391  14.281  16.991  1.00  0.00     0.274 HD
ATOM     30  H61 UNL     1       7.845  15.466  15.895  1.00  0.00     0.274 HD
ENDBRANCH  26  27
ENDBRANCH  21  26
ENDBRANCH  15  21
TORSDOF 4
ENDMDL
MODEL 4
REMARK VINA RESULT: -6.552614358      1.606      2.061
REMARK  4 active torsions:
REMARK  status: ('A' for Active; 'I' for Inactive)
REMARK       I    between atoms: N4_13  and  C7_15 
REMARK    1  A    between atoms: C7_15  and  C8_17 
REMARK    2  A    between atoms: C8_17  and  N5_18 
REMARK    3  A    between atoms: C8_17  and  C9_22 
REMARK    4  A    between atoms: C9_22  and  N6_23 
ROOT
HETATM    1  C1  UNL     1       6.832  21.290  10.729  1.00  0.00     0.157 C 
HETATM    2  N1  UNL     1       7.878  20.288  10.882  1.00  0.00    -0.340 N 
HETATM    3  C2  UNL     1       8.847  19.949  10.024  1.00  0.00     0.184 A 
HETATM    4  N2  UNL     1       9.601  18.973  10.566  1.00  0.00    -0.335 N 
ATOM      5  H2  UNL     1      10.407  18.533  10.122  1.00  0.00     0.168 HD
HETATM    6  C3  UNL     1       9.118  18.670  11.791  1.00  0.00     0.154 A 
HETATM    7  C4  UNL     1       8.035  19.511  11.968  1.00  0.00     0.150 A 
HETATM    8  C5  UNL     1       7.182  19.557  13.150  1.00  0.00     0.290 C 
HETATM    9  O1  UNL     1       6.507  20.604  13.288  1.00  0.00    -0.265 OA
HETATM   10  N3  UNL     1       7.044  18.539  14.152  1.00  0.00    -0.153 N 
ATOM     11  H3  UNL     1       6.253  18.665  14.784  1.00  0.00     0.187 HD
HETATM   12  C6  UNL     1       7.832  17.386  14.404  1.00  0.00     0.702 C 
HETATM   13  N4  UNL     1       7.326  16.582  15.241  1.00  0.00    -0.156 N 
ATOM     14  H4  UNL     1       6.424  16.849  15.634  1.00  0.00     0.187 HD
HETATM   15  C7  UNL     1       7.857  15.375  15.689  1.00  0.00     0.268 C 
HETATM   16  O2  UNL     1       8.737  15.366  16.572  1.00  0.00    -0.270 OA
HETATM   17  N7  UNL     1       9.088  17.093  13.808  1.00  0.00    -0.130 N 
ATOM     18  H7  UNL     1       9.645  16.367  14.258  1.00  0.00     0.205 HD
HETATM   19  N8  UNL     1       9.647  17.689  12.673  1.00  0.00    -0.269 N 
ATOM     20  H8  UNL     1      10.586  17.367  12.440  1.00  0.00     0.189 HD
ENDROOT
BRANCH  15  21
HETATM   21  C8  UNL     1       7.381  14.101  15.125  1.00  0.00     0.300 C 
BRANCH  21  22
HETATM   22  N5  UNL     1       5.984  14.240  14.771  1.00  0.00    -0.065 N 
ATOM     23  H53 UNL     1       5.632  15.182  14.939  1.00  0.00     0.275 HD
ATOM     24  H52 UNL     1       5.832  14.210  13.763  1.00  0.00     0.275 HD
ATOM     25  H51 UNL     1       5.448  13.530  15.268  1.00  0.00     0.275 HD
ENDBRANCH  21  22
BRANCH  21  26
HETATM   26  C9  UNL     1       7.499  12.960  16.114  1.00  0.00     0.272 C 
BRANCH  26  27
HETATM   27  N6  UNL     1       6.396  12.041  15.830  1.00  0.00    -0.077 N 
ATOM     28  H63 UNL     1       6.538  11.110  16.221  1.00  0.00     0.274 HD
ATOM     29  H62 UNL     1       5.543  12.266  16.342  1.00  0.00     0.274 HD
ATOM     30  H61 UNL     1       6.269  12.038  14.818  1.00  0.00     0.274 HD
ENDBRANCH  26  27
ENDBRANCH  21  26
ENDBRANCH  15  21
TORSDOF 4
ENDMDL
MODEL 5
REMARK VINA RESULT: -6.507912160      4.244      8.448
REMARK  4 active torsions:
REMARK  status: ('A' for Active; 'I' for Inactive)
REMARK       I    between atoms: N4_13  and  C7_15 
REMARK    1  A    between atoms: C7_15  and  C8_17 
REMARK    2  A    between atoms: C8_17  and  N5_18 
REMARK    3  A    between atoms: C8_17  and  C9_22 
REMARK    4  A    between atoms: C9_22  and  N6_23 
ROOT
HETATM    1  C1  UNL     1       1.873  10.587  15.613  1.00  0.00     0.157 C 
HETATM    2  N1  UNL     1       2.115  11.998  15.886  1.00  0.00    -0.340 N 
HETATM    3  C2  UNL     1       1.230  12.995  15.997  1.00  0.00     0.184 A 
HETATM    4  N2  UNL     1       1.883  14.144  16.256  1.00  0.00    -0.335 N 
ATOM      5  H2  UNL     1       1.445  15.056  16.387  1.00  0.00     0.168 HD
HETATM    6  C3  UNL     1       3.209  13.896  16.313  1.00  0.00     0.154 A 
HETATM    7  C4  UNL     1       3.331  12.538  16.078  1.00  0.00     0.150 A 
HETATM    8  C5  UNL     1       4.584  11.793  16.041  1.00  0.00     0.290 C 
HETATM    9  O1  UNL     1       4.480  10.553  16.188  1.00  0.00    -0.265 OA
HETATM   10  N3  UNL     1       5.901  12.332  15.857  1.00  0.00    -0.153 N 
ATOM     11  H3  UNL     1       6.623  11.640  15.654  1.00  0.00     0.187 HD
HETATM   12  C6  UNL     1       6.360  13.675  15.911  1.00  0.00     0.702 C 
HETATM   13  N4  UNL     1       7.548  13.836  15.505  1.00  0.00    -0.156 N 
ATOM     14  H4  UNL     1       8.034  12.997  15.190  1.00  0.00     0.187 HD
HETATM   15  C7  UNL     1       8.270  15.025  15.439  1.00  0.00     0.268 C 
HETATM   16  O2  UNL     1       8.809  15.489  16.462  1.00  0.00    -0.270 OA
HETATM   17  N7  UNL     1       5.608  14.790  16.370  1.00  0.00    -0.130 N 
ATOM     18  H7  UNL     1       6.137  15.636  16.581  1.00  0.00     0.205 HD
HETATM   19  N8  UNL     1       4.225  14.857  16.565  1.00  0.00    -0.269 N 
ATOM     20  H8  UNL     1       3.891  15.740  16.951  1.00  0.00     0.189 HD
ENDROOT
BRANCH  15  21
HETATM   21  C8  UNL     1       8.402  15.741  14.159  1.00  0.00     0.300 C 
BRANCH  21  22
HETATM   22  N5  UNL     1       9.504  15.168  13.416  1.00  0.00    -0.065 N 
ATOM     23  H53 UNL     1       9.210  14.404  12.809  1.00  0.00     0.275 HD
ATOM     24  H52 UNL     1       9.854  15.796  12.692  1.00  0.00     0.275 HD
ATOM     25  H51 UNL     1      10.232  14.886  14.073  1.00  0.00     0.275 HD
ENDBRANCH  21  22
BRANCH  21  26
HETATM   26  C9  UNL     1       8.690  17.214  14.358  1.00  0.00     0.272 C 
BRANCH  26  27
HETATM   27  N6  UNL     1      10.145  17.369  14.308  1.00  0.00    -0.077 N 
ATOM     28  H63 UNL     1      10.488  18.134  14.890  1.00  0.00     0.274 HD
ATOM     29  H62 UNL     1      10.647  16.616  14.779  1.00  0.00     0.274 HD
ATOM     30  H61 UNL     1      10.397  17.467  13.325  1.00  0.00     0.274 HD
ENDBRANCH  26  27
ENDBRANCH  21  26
ENDBRANCH  15  21
TORSDOF 4
ENDMDL
