MODEL 1
REMARK VINA RESULT: -7.224865669      0.000      0.000
REMARK  3 active torsions:
REMARK  status: ('A' for Active; 'I' for Inactive)
REMARK    1  A    between atoms: C3_5  and  C4_6 
REMARK       I    between atoms: C4_6  and  N2_8 
REMARK    2  A    between atoms: N2_8  and  N3_10 
REMARK    3  A    between atoms: C5_13  and  C6_14 
ROOT
HETATM    1  C1  UNL     1       7.939  16.388  15.018  1.00  0.00     0.049 C 
HETATM    2  C2  UNL     1       7.917  17.404  14.175  1.00  0.00     0.092 C 
HETATM    3  N1  UNL     1       6.765  18.237  14.155  1.00  0.00    -0.347 N 
ATOM      4  H1  UNL     1       5.912  17.788  14.490  1.00  0.00     0.166 HD
HETATM    5  C3  UNL     1       6.595  19.627  13.737  1.00  0.00     0.122 C 
HETATM    6  C5  UNL     1       7.266  20.196  12.754  1.00  0.00     0.111 C 
HETATM    7  C7  UNL     1       8.322  19.554  11.899  1.00  0.00     0.264 C 
HETATM    8  O2  UNL     1       8.366  20.091  10.752  1.00  0.00    -0.267 OA
HETATM    9  N8  UNL     1       9.208  18.504  12.185  1.00  0.00    -0.288 N 
ATOM     10  H8  UNL     1       9.997  18.364  11.554  1.00  0.00     0.172 HD
HETATM   11  C8  UNL     1       9.082  17.607  13.314  1.00  0.00     0.274 C 
HETATM   12  O3  UNL     1      10.081  16.920  13.592  1.00  0.00    -0.266 OA
ENDROOT
BRANCH   6  13
HETATM   13  C6  UNL     1       7.027  21.584  12.395  1.00  0.00     0.152 A 
HETATM   14  N4  UNL     1       6.257  21.891  11.301  1.00  0.00    -0.271 N 
HETATM   15  N5  UNL     1       6.092  23.198  11.222  1.00  0.00    -0.225 N 
ATOM     16  H4  UNL     1       5.870  21.211  10.647  1.00  0.00     0.190 HD
HETATM   17  N6  UNL     1       6.728  23.764  12.231  1.00  0.00    -0.005 NA
ATOM     18  H5  UNL     1       5.562  23.689  10.502  1.00  0.00     0.205 HD
HETATM   19  N7  UNL     1       7.286  22.768  12.924  1.00  0.00    -0.266 N 
ATOM     20  H7  UNL     1       7.846  22.905  13.766  1.00  0.00     0.186 HD
ENDBRANCH   6  13
BRANCH   5  21
HETATM   21  C4  UNL     1       5.679  20.404  14.511  1.00  0.00     0.287 C 
HETATM   22  O1  UNL     1       5.977  21.291  15.320  1.00  0.00    -0.264 OA
HETATM   23  N2  UNL     1       4.264  20.173  14.372  1.00  0.00    -0.271 N 
ATOM     24  H2  UNL     1       3.930  19.458  13.726  1.00  0.00     0.189 HD
BRANCH  23  25
HETATM   25  N3  UNL     1       3.329  20.933  15.126  1.00  0.00    -0.342 N 
ATOM     26  H32 UNL     1       3.674  21.524  15.882  1.00  0.00     0.176 HD
ATOM     27  H31 UNL     1       2.332  20.886  14.915  1.00  0.00     0.176 HD
ENDBRANCH  23  25
ENDBRANCH   5  21
TORSDOF 3
ENDMDL
MODEL 2
REMARK VINA RESULT: -7.220464484      1.564      3.842
REMARK  3 active torsions:
REMARK  status: ('A' for Active; 'I' for Inactive)
REMARK    1  A    between atoms: C3_5  and  C4_6 
REMARK       I    between atoms: C4_6  and  N2_8 
REMARK    2  A    between atoms: N2_8  and  N3_10 
REMARK    3  A    between atoms: C5_13  and  C6_14 
ROOT
HETATM    1  C1  UNL     1       6.613  16.095  14.913  1.00  0.00     0.049 C 
HETATM    2  C2  UNL     1       6.441  17.396  14.769  1.00  0.00     0.092 C 
HETATM    3  N1  UNL     1       7.397  18.121  14.007  1.00  0.00    -0.347 N 
ATOM      4  H1  UNL     1       8.318  17.685  13.956  1.00  0.00     0.166 HD
HETATM    5  C3  UNL     1       7.285  19.386  13.284  1.00  0.00     0.122 C 
HETATM    6  C5  UNL     1       6.529  20.398  13.664  1.00  0.00     0.111 C 
HETATM    7  C7  UNL     1       5.644  20.449  14.878  1.00  0.00     0.264 C 
HETATM    8  O2  UNL     1       5.511  21.639  15.293  1.00  0.00    -0.267 OA
HETATM    9  N8  UNL     1       4.988  19.418  15.567  1.00  0.00    -0.288 N 
ATOM     10  H8  UNL     1       4.257  19.680  16.228  1.00  0.00     0.172 HD
HETATM   11  C8  UNL     1       5.275  18.008  15.406  1.00  0.00     0.274 C 
HETATM   12  O3  UNL     1       4.434  17.214  15.862  1.00  0.00    -0.266 OA
ENDROOT
BRANCH   6  13
HETATM   13  C6  UNL     1       6.484  21.627  12.891  1.00  0.00     0.152 A 
HETATM   14  N4  UNL     1       5.400  21.903  12.094  1.00  0.00    -0.271 N 
HETATM   15  N5  UNL     1       5.526  23.107  11.568  1.00  0.00    -0.225 N 
ATOM     16  H4  UNL     1       4.615  21.273  11.934  1.00  0.00     0.190 HD
HETATM   17  N6  UNL     1       6.659  23.635  11.993  1.00  0.00    -0.005 NA
ATOM     18  H5  UNL     1       4.860  23.554  10.938  1.00  0.00     0.205 HD
HETATM   19  N7  UNL     1       7.219  22.722  12.790  1.00  0.00    -0.266 N 
ATOM     20  H7  UNL     1       8.112  22.853  13.266  1.00  0.00     0.186 HD
ENDBRANCH   6  13
BRANCH   5  21
HETATM   21  C4  UNL     1       8.008  19.467  12.053  1.00  0.00     0.287 C 
HETATM   22  O1  UNL     1       7.594  19.960  10.996  1.00  0.00    -0.264 OA
HETATM   23  N2  UNL     1       9.347  18.943  11.984  1.00  0.00    -0.271 N 
ATOM     24  H2  UNL     1       9.766  18.516  12.812  1.00  0.00     0.189 HD
BRANCH  23  25
HETATM   25  N3  UNL     1      10.091  19.012  10.776  1.00  0.00    -0.342 N 
ATOM     26  H32 UNL     1       9.966  19.823  10.169  1.00  0.00     0.176 HD
ATOM     27  H31 UNL     1      10.737  18.265  10.519  1.00  0.00     0.176 HD
ENDBRANCH  23  25
ENDBRANCH   5  21
TORSDOF 3
ENDMDL
MODEL 3
REMARK VINA RESULT: -6.979965585      4.005      6.752
REMARK  3 active torsions:
REMARK  status: ('A' for Active; 'I' for Inactive)
REMARK    1  A    between atoms: C3_5  and  C4_6 
REMARK       I    between atoms: C4_6  and  N2_8 
REMARK    2  A    between atoms: N2_8  and  N3_10 
REMARK    3  A    between atoms: C5_13  and  C6_14 
ROOT
HETATM    1  C1  UNL     1       7.757  18.933  13.480  1.00  0.00     0.049 C 
HETATM    2  C2  UNL     1       7.704  17.735  14.034  1.00  0.00     0.092 C 
HETATM    3  N1  UNL     1       6.533  17.379  14.757  1.00  0.00    -0.347 N 
ATOM      4  H1  UNL     1       6.002  18.171  15.120  1.00  0.00     0.166 HD
HETATM    5  C3  UNL     1       5.960  16.071  15.068  1.00  0.00     0.122 C 
HETATM    6  C5  UNL     1       6.668  14.982  15.293  1.00  0.00     0.111 C 
HETATM    7  C7  UNL     1       8.166  14.865  15.263  1.00  0.00     0.264 C 
HETATM    8  O2  UNL     1       8.565  13.941  16.034  1.00  0.00    -0.267 OA
HETATM    9  N8  UNL     1       9.120  15.596  14.540  1.00  0.00    -0.288 N 
ATOM     10  H8  UNL     1      10.066  15.219  14.485  1.00  0.00     0.172 HD
HETATM   11  C8  UNL     1       8.857  16.851  13.867  1.00  0.00     0.274 C 
HETATM   12  O3  UNL     1       9.710  17.230  13.045  1.00  0.00    -0.266 OA
ENDROOT
BRANCH   6  13
HETATM   13  C6  UNL     1       6.018  13.721  15.607  1.00  0.00     0.152 A 
HETATM   14  N4  UNL     1       6.128  12.654  14.750  1.00  0.00    -0.271 N 
HETATM   15  N5  UNL     1       5.548  11.593  15.279  1.00  0.00    -0.225 N 
ATOM     16  H4  UNL     1       6.589  12.677  13.841  1.00  0.00     0.190 HD
HETATM   17  N6  UNL     1       5.059  11.925  16.460  1.00  0.00    -0.005 NA
ATOM     18  H5  UNL     1       5.487  10.670  14.848  1.00  0.00     0.205 HD
HETATM   19  N7  UNL     1       5.355  13.216  16.635  1.00  0.00    -0.266 N 
ATOM     20  H7  UNL     1       5.100  13.751  17.465  1.00  0.00     0.186 HD
ENDBRANCH   6  13
BRANCH   5  21
HETATM   21  C4  UNL     1       4.532  15.996  15.053  1.00  0.00     0.287 C 
HETATM   22  O1  UNL     1       3.830  15.655  14.093  1.00  0.00    -0.264 OA
HETATM   23  N2  UNL     1       3.795  16.337  16.242  1.00  0.00    -0.271 N 
ATOM     24  H2  UNL     1       4.296  16.631  17.080  1.00  0.00     0.189 HD
BRANCH  23  25
HETATM   25  N3  UNL     1       2.375  16.269  16.258  1.00  0.00    -0.342 N 
ATOM     26  H32 UNL     1       1.926  15.531  16.801  1.00  0.00     0.176 HD
ATOM     27  H31 UNL     1       1.816  16.944  15.736  1.00  0.00     0.176 HD
ENDBRANCH  23  25
ENDBRANCH   5  21
TORSDOF 3
ENDMDL
MODEL 4
REMARK VINA RESULT: -6.934488579      1.150      1.176
REMARK  3 active torsions:
REMARK  status: ('A' for Active; 'I' for Inactive)
REMARK    1  A    between atoms: C3_5  and  C4_6 
REMARK       I    between atoms: C4_6  and  N2_8 
REMARK    2  A    between atoms: N2_8  and  N3_10 
REMARK    3  A    between atoms: C5_13  and  C6_14 
ROOT
HETATM    1  C1  UNL     1       6.489  16.403  15.235  1.00  0.00     0.049 C 
HETATM    2  C2  UNL     1       6.807  17.396  14.424  1.00  0.00     0.092 C 
HETATM    3  N1  UNL     1       5.762  18.228  13.937  1.00  0.00    -0.347 N 
ATOM      4  H1  UNL     1       4.841  17.788  13.926  1.00  0.00     0.166 HD
HETATM    5  C3  UNL     1       5.783  19.605  13.451  1.00  0.00     0.122 C 
HETATM    6  C5  UNL     1       6.788  20.148  12.792  1.00  0.00     0.111 C 
HETATM    7  C7  UNL     1       8.086  19.482  12.430  1.00  0.00     0.264 C 
HETATM    8  O2  UNL     1       8.578  19.988  11.377  1.00  0.00    -0.267 OA
HETATM    9  N8  UNL     1       8.781  18.441  13.065  1.00  0.00    -0.288 N 
ATOM     10  H8  UNL     1       9.751  18.283  12.793  1.00  0.00     0.172 HD
HETATM   11  C8  UNL     1       8.217  17.575  14.078  1.00  0.00     0.274 C 
HETATM   12  O3  UNL     1       9.022  16.896  14.740  1.00  0.00    -0.266 OA
ENDROOT
BRANCH   6  13
HETATM   13  C6  UNL     1       6.722  21.525  12.333  1.00  0.00     0.152 A 
HETATM   14  N4  UNL     1       6.026  21.841  11.193  1.00  0.00    -0.271 N 
HETATM   15  N5  UNL     1       6.016  23.150  11.022  1.00  0.00    -0.225 N 
ATOM     16  H4  UNL     1       5.582  21.165  10.571  1.00  0.00     0.190 HD
HETATM   17  N6  UNL     1       6.683  23.708  12.015  1.00  0.00    -0.005 NA
ATOM     18  H5  UNL     1       5.568  23.646  10.252  1.00  0.00     0.205 HD
HETATM   19  N7  UNL     1       7.100  22.706  12.793  1.00  0.00    -0.266 N 
ATOM     20  H7  UNL     1       7.647  22.837  13.644  1.00  0.00     0.186 HD
ENDBRANCH   6  13
BRANCH   5  21
HETATM   21  C4  UNL     1       4.646  20.404  13.788  1.00  0.00     0.287 C 
HETATM   22  O1  UNL     1       3.645  20.583  13.083  1.00  0.00    -0.264 OA
HETATM   23  N2  UNL     1       4.611  21.083  15.057  1.00  0.00    -0.271 N 
ATOM     24  H2  UNL     1       5.398  20.991  15.701  1.00  0.00     0.189 HD
BRANCH  23  25
HETATM   25  N3  UNL     1       3.493  21.881  15.422  1.00  0.00    -0.342 N 
ATOM     26  H32 UNL     1       2.623  21.416  15.682  1.00  0.00     0.176 HD
ATOM     27  H31 UNL     1       3.559  22.899  15.422  1.00  0.00     0.176 HD
ENDBRANCH  23  25
ENDBRANCH   5  21
TORSDOF 3
ENDMDL
MODEL 5
REMARK VINA RESULT: -6.855641305      2.443      5.246
REMARK  3 active torsions:
REMARK  status: ('A' for Active; 'I' for Inactive)
REMARK    1  A    between atoms: C3_5  and  C4_6 
REMARK       I    between atoms: C4_6  and  N2_8 
REMARK    2  A    between atoms: N2_8  and  N3_10 
REMARK    3  A    between atoms: C5_13  and  C6_14 
ROOT
HETATM    1  C1  UNL     1       6.810  21.015  11.738  1.00  0.00     0.049 C 
HETATM    2  C2  UNL     1       7.369  19.996  12.365  1.00  0.00     0.092 C 
HETATM    3  N1  UNL     1       6.755  19.520  13.556  1.00  0.00    -0.347 N 
ATOM      4  H1  UNL     1       6.180  20.210  14.041  1.00  0.00     0.166 HD
HETATM    5  C3  UNL     1       6.807  18.211  14.203  1.00  0.00     0.122 C 
HETATM    6  C5  UNL     1       7.860  17.417  14.194  1.00  0.00     0.111 C 
HETATM    7  C7  UNL     1       9.179  17.684  13.524  1.00  0.00     0.264 C 
HETATM    8  O2  UNL     1      10.122  17.087  14.125  1.00  0.00    -0.267 OA
HETATM    9  N8  UNL     1       9.483  18.459  12.394  1.00  0.00    -0.288 N 
ATOM     10  H8  UNL     1      10.401  18.334  11.967  1.00  0.00     0.172 HD
HETATM   11  C8  UNL     1       8.587  19.423  11.793  1.00  0.00     0.274 C 
HETATM   12  O3  UNL     1       8.880  19.817  10.651  1.00  0.00    -0.266 OA
ENDROOT
BRANCH   6  13
HETATM   13  C6  UNL     1       7.831  16.133  14.873  1.00  0.00     0.152 A 
HETATM   14  N4  UNL     1       7.391  15.012  14.214  1.00  0.00    -0.271 N 
HETATM   15  N5  UNL     1       7.544  13.950  14.984  1.00  0.00    -0.225 N 
ATOM     16  H4  UNL     1       7.004  15.001  13.271  1.00  0.00     0.190 HD
HETATM   17  N6  UNL     1       8.074  14.336  16.131  1.00  0.00    -0.005 NA
ATOM     18  H5  UNL     1       7.296  12.993  14.735  1.00  0.00     0.205 HD
HETATM   19  N7  UNL     1       8.237  15.658  16.040  1.00  0.00    -0.266 N 
ATOM     20  H7  UNL     1       8.629  16.235  16.784  1.00  0.00     0.186 HD
ENDBRANCH   6  13
BRANCH   5  21
HETATM   21  C4  UNL     1       5.595  17.771  14.819  1.00  0.00     0.287 C 
HETATM   22  O1  UNL     1       4.823  16.910  14.378  1.00  0.00    -0.264 OA
HETATM   23  N2  UNL     1       5.188  18.352  16.073  1.00  0.00    -0.271 N 
ATOM     24  H2  UNL     1       5.766  19.071  16.507  1.00  0.00     0.189 HD
BRANCH  23  25
HETATM   25  N3  UNL     1       3.990  17.932  16.711  1.00  0.00    -0.342 N 
ATOM     26  H32 UNL     1       4.051  17.249  17.467  1.00  0.00     0.176 HD
ATOM     27  H31 UNL     1       3.087  18.305  16.418  1.00  0.00     0.176 HD
ENDBRANCH  23  25
ENDBRANCH   5  21
TORSDOF 3
ENDMDL
