MODEL 1
REMARK VINA RESULT: -8.026984991      0.000      0.000
REMARK  2 active torsions:
REMARK  status: ('A' for Active; 'I' for Inactive)
REMARK    1  A    between atoms: N1_1  and  C1_4 
REMARK    2  A    between atoms: C6_26  and  N10_27 
ROOT
HETATM    1  C1  UNL     1       3.023 -80.128-145.993  1.00  0.00     0.134 A 
HETATM    2  N2  UNL     1       3.218 -79.441-147.118  1.00  0.00    -0.292 N 
ATOM      3  H2  UNL     1       3.625 -79.892-147.938  1.00  0.00     0.172 HD
HETATM    4  C2  UNL     1       2.868 -78.134-147.156  1.00  0.00     0.340 A 
HETATM    5  O1  UNL     1       3.070 -77.521-148.234  1.00  0.00    -0.245 OA
HETATM    6  N3  UNL     1       2.334 -77.562-146.068  1.00  0.00    -0.251 N 
ATOM      7  H3  UNL     1       2.062 -76.578-146.077  1.00  0.00     0.191 HD
HETATM    8  N4  UNL     1       2.164 -78.306-144.973  1.00  0.00    -0.291 N 
ATOM      9  H4  UNL     1       1.754 -77.832-144.168  1.00  0.00     0.187 HD
HETATM   10  C3  UNL     1       2.457 -79.558-144.807  1.00  0.00     0.121 A 
HETATM   11  C4  UNL     1       2.265 -80.468-143.714  1.00  0.00     0.099 A 
HETATM   12  N5  UNL     1       3.208 -81.513-143.676  1.00  0.00    -0.283 N 
ATOM     13  H5  UNL     1       3.901 -81.573-144.421  1.00  0.00     0.188 HD
HETATM   14  N6  UNL     1       3.231 -82.392-142.742  1.00  0.00    -0.241 N 
ATOM     15  H6  UNL     1       3.935 -83.130-142.757  1.00  0.00     0.208 HD
HETATM   16  N7  UNL     1       2.355 -82.344-141.772  1.00  0.00    -0.269 N 
ATOM     17  H7  UNL     1       2.388 -83.047-141.034  1.00  0.00     0.190 HD
HETATM   18  C5  UNL     1       1.414 -81.392-141.726  1.00  0.00     0.152 A 
HETATM   19  N8  UNL     1       0.405 -81.213-140.861  1.00  0.00    -0.282 N 
ATOM     20  H8  UNL     1       0.212 -81.772-140.031  1.00  0.00     0.188 HD
HETATM   21  N9  UNL     1      -0.275 -80.203-141.278  1.00  0.00    -0.278 N 
ATOM     22  H9  UNL     1      -1.105 -79.840-140.808  1.00  0.00     0.189 HD
HETATM   23  C6  UNL     1       0.259 -79.661-142.451  1.00  0.00     0.204 A 
HETATM   24  C7  UNL     1       1.353 -80.422-142.723  1.00  0.00     0.093 A 
ENDROOT
BRANCH   1  25
HETATM   25  N1  UNL     1       3.325 -81.375-145.920  1.00  0.00    -0.383 N 
ATOM     26  H12 UNL     1       3.543 -81.829-146.808  1.00  0.00     0.157 HD
ATOM     27  H11 UNL     1       3.353 -81.856-145.021  1.00  0.00     0.157 HD
ENDBRANCH   1  25
BRANCH  23  28
HETATM   28  N10 UNL     1      -0.384 -78.667-143.152  1.00  0.00    -0.095 N 
HETATM   29  O2  UNL     1       0.213 -77.492-143.030  1.00  0.00    -0.530 OA
HETATM   30  O3  UNL     1      -1.423 -78.516-143.907  1.00  0.00    -0.530 OA
ENDBRANCH  23  28
TORSDOF 2
ENDMDL
MODEL 2
REMARK VINA RESULT: -7.883255376      1.300      1.600
REMARK  2 active torsions:
REMARK  status: ('A' for Active; 'I' for Inactive)
REMARK    1  A    between atoms: N1_1  and  C1_4 
REMARK    2  A    between atoms: C6_26  and  N10_27 
ROOT
HETATM    1  C1  UNL     1       3.523 -79.276-146.639  1.00  0.00     0.134 A 
HETATM    2  N2  UNL     1       3.891 -78.672-147.769  1.00  0.00    -0.292 N 
ATOM      3  H2  UNL     1       4.561 -79.114-148.399  1.00  0.00     0.172 HD
HETATM    4  C2  UNL     1       3.361 -77.462-148.067  1.00  0.00     0.340 A 
HETATM    5  O1  UNL     1       3.735 -76.926-149.140  1.00  0.00    -0.245 OA
HETATM    6  N3  UNL     1       2.482 -76.901-147.226  1.00  0.00    -0.251 N 
ATOM      7  H3  UNL     1       2.071 -75.991-147.433  1.00  0.00     0.191 HD
HETATM    8  N4  UNL     1       2.155 -77.559-146.111  1.00  0.00    -0.291 N 
ATOM      9  H4  UNL     1       1.482 -77.097-145.499  1.00  0.00     0.187 HD
HETATM   10  C3  UNL     1       2.588 -78.714-145.711  1.00  0.00     0.121 A 
HETATM   11  C4  UNL     1       2.267 -79.538-144.581  1.00  0.00     0.099 A 
HETATM   12  N5  UNL     1       3.320 -80.380-144.177  1.00  0.00    -0.283 N 
ATOM     13  H5  UNL     1       4.183 -80.379-144.721  1.00  0.00     0.188 HD
HETATM   14  N6  UNL     1       3.240 -81.149-143.154  1.00  0.00    -0.241 N 
ATOM     15  H6  UNL     1       4.031 -81.741-142.900  1.00  0.00     0.208 HD
HETATM   16  N7  UNL     1       2.147 -81.175-142.435  1.00  0.00    -0.269 N 
ATOM     17  H7  UNL     1       2.100 -81.788-141.621  1.00  0.00     0.190 HD
HETATM   18  C5  UNL     1       1.090 -80.415-142.744  1.00  0.00     0.152 A 
HETATM   19  N8  UNL     1      -0.124 -80.347-142.176  1.00  0.00    -0.282 N 
ATOM     20  H8  UNL     1      -0.434 -80.853-141.347  1.00  0.00     0.188 HD
HETATM   21  N9  UNL     1      -0.824 -79.525-142.876  1.00  0.00    -0.278 N 
ATOM     22  H9  UNL     1      -1.793 -79.281-142.671  1.00  0.00     0.189 HD
HETATM   23  C6  UNL     1      -0.097 -79.004-143.952  1.00  0.00     0.204 A 
HETATM   24  C7  UNL     1       1.135 -79.571-143.850  1.00  0.00     0.093 A 
ENDROOT
BRANCH   1  25
HETATM   25  N1  UNL     1       3.989 -80.433-146.327  1.00  0.00    -0.383 N 
ATOM     26  H12 UNL     1       3.308 -81.099-145.963  1.00  0.00     0.157 HD
ATOM     27  H11 UNL     1       4.976 -80.652-146.457  1.00  0.00     0.157 HD
ENDBRANCH   1  25
BRANCH  23  28
HETATM   28  N10 UNL     1      -0.687 -78.217-144.914  1.00  0.00    -0.095 N 
HETATM   29  O2  UNL     1      -0.686 -78.789-146.108  1.00  0.00    -0.530 OA
HETATM   30  O3  UNL     1      -1.249 -77.058-145.021  1.00  0.00    -0.530 OA
ENDBRANCH  23  28
TORSDOF 2
ENDMDL
MODEL 3
REMARK VINA RESULT: -7.311675675      1.679      2.033
REMARK  2 active torsions:
REMARK  status: ('A' for Active; 'I' for Inactive)
REMARK    1  A    between atoms: N1_1  and  C1_4 
REMARK    2  A    between atoms: C6_26  and  N10_27 
ROOT
HETATM    1  C1  UNL     1       3.513 -79.272-145.881  1.00  0.00     0.134 A 
HETATM    2  N2  UNL     1       4.157 -78.862-146.974  1.00  0.00    -0.292 N 
ATOM      3  H2  UNL     1       5.042 -79.289-147.245  1.00  0.00     0.172 HD
HETATM    4  C2  UNL     1       3.614 -77.869-147.718  1.00  0.00     0.340 A 
HETATM    5  O1  UNL     1       4.252 -77.510-148.739  1.00  0.00    -0.245 OA
HETATM    6  N3  UNL     1       2.449 -77.324-147.343  1.00  0.00    -0.251 N 
ATOM      7  H3  UNL     1       2.024 -76.576-147.890  1.00  0.00     0.191 HD
HETATM    8  N4  UNL     1       1.856 -77.782-146.237  1.00  0.00    -0.291 N 
ATOM      9  H4  UNL     1       0.971 -77.340-145.988  1.00  0.00     0.187 HD
HETATM   10  C3  UNL     1       2.268 -78.719-145.441  1.00  0.00     0.121 A 
HETATM   11  C4  UNL     1       1.695 -79.331-144.277  1.00  0.00     0.099 A 
HETATM   12  N5  UNL     1       2.650 -79.848-143.382  1.00  0.00    -0.283 N 
ATOM     13  H5  UNL     1       3.636 -79.795-143.635  1.00  0.00     0.188 HD
HETATM   14  N6  UNL     1       2.331 -80.383-142.261  1.00  0.00    -0.241 N 
ATOM     15  H6  UNL     1       3.060 -80.743-141.644  1.00  0.00     0.208 HD
HETATM   16  N7  UNL     1       1.075 -80.468-141.906  1.00  0.00    -0.269 N 
ATOM     17  H7  UNL     1       0.837 -80.892-141.009  1.00  0.00     0.190 HD
HETATM   18  C5  UNL     1       0.094 -80.011-142.695  1.00  0.00     0.152 A 
HETATM   19  N8  UNL     1      -1.237 -80.061-142.538  1.00  0.00    -0.282 N 
ATOM     20  H8  UNL     1      -1.739 -80.430-141.731  1.00  0.00     0.188 HD
HETATM   21  N9  UNL     1      -1.762 -79.557-143.600  1.00  0.00    -0.278 N 
ATOM     22  H9  UNL     1      -2.767 -79.468-143.754  1.00  0.00     0.189 HD
HETATM   23  C6  UNL     1      -0.791 -79.146-144.518  1.00  0.00     0.204 A 
HETATM   24  C7  UNL     1       0.399 -79.427-143.921  1.00  0.00     0.093 A 
ENDROOT
BRANCH   1  25
HETATM   25  N1  UNL     1       3.985 -80.224-145.156  1.00  0.00    -0.383 N 
ATOM     26  H12 UNL     1       4.877 -80.031-144.700  1.00  0.00     0.157 HD
ATOM     27  H11 UNL     1       3.476 -81.101-145.048  1.00  0.00     0.157 HD
ENDBRANCH   1  25
BRANCH  23  28
HETATM   28  N10 UNL     1      -1.122 -78.710-145.781  1.00  0.00    -0.095 N 
HETATM   29  O2  UNL     1      -1.085 -77.391-145.888  1.00  0.00    -0.530 OA
HETATM   30  O3  UNL     1      -1.475 -79.199-146.924  1.00  0.00    -0.530 OA
ENDBRANCH  23  28
TORSDOF 2
ENDMDL
MODEL 4
REMARK VINA RESULT: -7.061918250      5.071      7.094
REMARK  2 active torsions:
REMARK  status: ('A' for Active; 'I' for Inactive)
REMARK    1  A    between atoms: N1_1  and  C1_4 
REMARK    2  A    between atoms: C6_26  and  N10_27 
ROOT
HETATM    1  C1  UNL     1       0.160 -83.610-140.644  1.00  0.00     0.134 A 
HETATM    2  N2  UNL     1       0.970 -82.613-141.002  1.00  0.00    -0.292 N 
ATOM      3  H2  UNL     1       1.890 -82.809-141.397  1.00  0.00     0.172 HD
HETATM    4  C2  UNL     1       0.551 -81.337-140.835  1.00  0.00     0.340 A 
HETATM    5  O1  UNL     1       1.344 -80.427-141.183  1.00  0.00    -0.245 OA
HETATM    6  N3  UNL     1      -0.663 -81.103-140.316  1.00  0.00    -0.251 N 
ATOM      7  H3  UNL     1      -0.997 -80.149-140.182  1.00  0.00     0.191 HD
HETATM    8  N4  UNL     1      -1.424 -82.147-139.978  1.00  0.00    -0.291 N 
ATOM      9  H4  UNL     1      -2.340 -81.925-139.588  1.00  0.00     0.187 HD
HETATM   10  C3  UNL     1      -1.143 -83.408-140.085  1.00  0.00     0.121 A 
HETATM   11  C4  UNL     1      -1.894 -84.601-139.819  1.00  0.00     0.099 A 
HETATM   12  N5  UNL     1      -1.094 -85.711-139.490  1.00  0.00    -0.283 N 
ATOM     13  H5  UNL     1      -0.080 -85.606-139.508  1.00  0.00     0.188 HD
HETATM   14  N6  UNL     1      -1.587 -86.850-139.167  1.00  0.00    -0.241 N 
ATOM     15  H6  UNL     1      -0.966 -87.626-138.935  1.00  0.00     0.208 HD
HETATM   16  N7  UNL     1      -2.884 -87.020-139.135  1.00  0.00    -0.269 N 
ATOM     17  H7  UNL     1      -3.262 -87.930-138.872  1.00  0.00     0.190 HD
HETATM   18  C5  UNL     1      -3.726 -86.024-139.439  1.00  0.00     0.152 A 
HETATM   19  N8  UNL     1      -5.065 -86.018-139.523  1.00  0.00    -0.282 N 
ATOM     20  H8  UNL     1      -5.689 -86.795-139.309  1.00  0.00     0.188 HD
HETATM   21  N9  UNL     1      -5.413 -84.846-139.924  1.00  0.00    -0.278 N 
ATOM     22  H9  UNL     1      -6.380 -84.558-140.076  1.00  0.00     0.189 HD
HETATM   23  C6  UNL     1      -4.308 -84.013-140.127  1.00  0.00     0.204 A 
HETATM   24  C7  UNL     1      -3.230 -84.775-139.799  1.00  0.00     0.093 A 
ENDROOT
BRANCH   1  25
HETATM   25  N1  UNL     1       0.513 -84.836-140.803  1.00  0.00    -0.383 N 
ATOM     26  H12 UNL     1       1.362 -85.118-140.313  1.00  0.00     0.157 HD
ATOM     27  H11 UNL     1      -0.044 -85.471-141.375  1.00  0.00     0.157 HD
ENDBRANCH   1  25
BRANCH  23  28
HETATM   28  N10 UNL     1      -4.433 -82.764-140.691  1.00  0.00    -0.095 N 
HETATM   29  O2  UNL     1      -4.562 -81.808-139.785  1.00  0.00    -0.530 OA
HETATM   30  O3  UNL     1      -4.472 -82.219-141.863  1.00  0.00    -0.530 OA
ENDBRANCH  23  28
TORSDOF 2
ENDMDL
MODEL 5
REMARK VINA RESULT: -6.310596085      7.530      9.722
REMARK  2 active torsions:
REMARK  status: ('A' for Active; 'I' for Inactive)
REMARK    1  A    between atoms: N1_1  and  C1_4 
REMARK    2  A    between atoms: C6_26  and  N10_27 
ROOT
HETATM    1  C1  UNL     1      -1.972 -85.112-139.524  1.00  0.00     0.134 A 
HETATM    2  N2  UNL     1      -1.226 -84.031-139.754  1.00  0.00    -0.292 N 
ATOM      3  H2  UNL     1      -0.209 -84.080-139.688  1.00  0.00     0.172 HD
HETATM    4  C2  UNL     1      -1.839 -82.869-140.078  1.00  0.00     0.340 A 
HETATM    5  O1  UNL     1      -1.100 -81.874-140.285  1.00  0.00    -0.245 OA
HETATM    6  N3  UNL     1      -3.176 -82.829-140.161  1.00  0.00    -0.251 N 
ATOM      7  H3  UNL     1      -3.657 -81.962-140.405  1.00  0.00     0.191 HD
HETATM    8  N4  UNL     1      -3.865 -83.946-139.919  1.00  0.00    -0.291 N 
ATOM      9  H4  UNL     1      -4.879 -83.872-139.994  1.00  0.00     0.187 HD
HETATM   10  C3  UNL     1      -3.402 -85.115-139.601  1.00  0.00     0.121 A 
HETATM   11  C4  UNL     1      -4.031 -86.386-139.382  1.00  0.00     0.099 A 
HETATM   12  N5  UNL     1      -3.318 -87.226-138.505  1.00  0.00    -0.283 N 
ATOM     13  H5  UNL     1      -2.422 -86.904-138.140  1.00  0.00     0.188 HD
HETATM   14  N6  UNL     1      -3.749 -88.379-138.146  1.00  0.00    -0.241 N 
ATOM     15  H6  UNL     1      -3.197 -88.952-137.506  1.00  0.00     0.208 HD
HETATM   16  N7  UNL     1      -4.895 -88.823-138.597  1.00  0.00    -0.269 N 
ATOM     17  H7  UNL     1      -5.227 -89.740-138.298  1.00  0.00     0.190 HD
HETATM   18  C5  UNL     1      -5.640 -88.099-139.441  1.00  0.00     0.152 A 
HETATM   19  N8  UNL     1      -6.795 -88.401-140.053  1.00  0.00    -0.282 N 
ATOM     20  H8  UNL     1      -7.342 -89.253-139.929  1.00  0.00     0.188 HD
HETATM   21  N9  UNL     1      -7.082 -87.414-140.827  1.00  0.00    -0.278 N 
ATOM     22  H9  UNL     1      -7.913 -87.374-141.418  1.00  0.00     0.189 HD
HETATM   23  C6  UNL     1      -6.119 -86.402-140.763  1.00  0.00     0.204 A 
HETATM   24  C7  UNL     1      -5.205 -86.844-139.858  1.00  0.00     0.093 A 
ENDROOT
BRANCH   1  25
HETATM   25  N1  UNL     1      -1.429 -86.239-139.231  1.00  0.00    -0.383 N 
ATOM     26  H12 UNL     1      -1.705 -87.027-139.816  1.00  0.00     0.157 HD
ATOM     27  H11 UNL     1      -0.756 -86.313-138.468  1.00  0.00     0.157 HD
ENDBRANCH   1  25
BRANCH  23  28
HETATM   28  N10 UNL     1      -6.146 -85.317-141.609  1.00  0.00    -0.095 N 
HETATM   29  O2  UNL     1      -7.082 -85.423-142.540  1.00  0.00    -0.530 OA
HETATM   30  O3  UNL     1      -5.521 -84.200-141.789  1.00  0.00    -0.530 OA
ENDBRANCH  23  28
TORSDOF 2
ENDMDL
