MODEL 1
REMARK VINA RESULT: -7.253960365      0.000      0.000
REMARK  5 active torsions:
REMARK  status: ('A' for Active; 'I' for Inactive)
REMARK    1  A    between atoms: O1_2  and  C2_3 
REMARK    2  A    between atoms: C7_19  and  N8_20 
REMARK    3  A    between atoms: N8_20  and  N9_22 
REMARK    4  A    between atoms: C8_25  and  C9_26 
REMARK    5  A    between atoms: C9_26  and  N10_27 
ROOT
HETATM    1  C2  UNL     1       2.812 -80.361-146.265  1.00  0.00     0.248 C 
HETATM    2  N1  UNL     1       2.628 -81.295-145.201  1.00  0.00    -0.197 N 
ATOM      3  H1  UNL     1       3.086 -82.194-145.351  1.00  0.00     0.180 HD
HETATM    4  C3  UNL     1       1.920 -81.202-143.964  1.00  0.00     0.708 A 
HETATM    5  N2  UNL     1       2.116 -82.134-143.031  1.00  0.00    -0.117 N 
ATOM      6  H2  UNL     1       2.742 -82.935-143.117  1.00  0.00     0.202 HD
HETATM    7  N3  UNL     1       1.367 -81.854-141.979  1.00  0.00     0.007 NA
HETATM    8  N4  UNL     1       0.687 -80.729-142.244  1.00  0.00     0.009 NA
HETATM    9  N5  UNL     1       1.024 -80.331-143.457  1.00  0.00    -0.104 N 
HETATM   10  C4  UNL     1       0.440 -79.126-144.025  1.00  0.00     0.210 C 
HETATM   11  C5  UNL     1      -0.137 -79.525-145.342  1.00  0.00     0.033 A 
HETATM   12  C6  UNL     1       0.360 -79.942-146.546  1.00  0.00     0.047 A 
HETATM   13  N6  UNL     1      -0.737 -80.138-147.322  1.00  0.00    -0.302 N 
ATOM     14  H6  UNL     1      -0.719 -80.455-148.291  1.00  0.00     0.186 HD
HETATM   15  N7  UNL     1      -1.844 -79.855-146.628  1.00  0.00    -0.284 N 
ATOM     16  H7  UNL     1      -2.797 -79.923-146.988  1.00  0.00     0.188 HD
HETATM   17  C7  UNL     1      -1.513 -79.470-145.391  1.00  0.00     0.144 A 
HETATM   18  C8  UNL     1       1.636 -80.219-147.197  1.00  0.00     0.112 C 
ENDROOT
BRANCH  17  19
HETATM   19  N8  UNL     1      -2.344 -79.131-144.481  1.00  0.00    -0.290 N 
ATOM     20  H8  UNL     1      -2.295 -78.185-144.102  1.00  0.00     0.188 HD
BRANCH  19  21
HETATM   21  N9  UNL     1      -3.305 -79.992-143.988  1.00  0.00    -0.344 N 
ATOM     22  H92 UNL     1      -4.274 -79.819-144.255  1.00  0.00     0.176 HD
ATOM     23  H91 UNL     1      -3.081 -80.779-143.378  1.00  0.00     0.176 HD
ENDBRANCH  19  21
ENDBRANCH  17  19
BRANCH  18  24
HETATM   24  C9  UNL     1       1.610 -81.412-148.113  1.00  0.00     0.244 C 
BRANCH  24  25
HETATM   25  N10 UNL     1       2.873 -81.703-148.712  1.00  0.00    -0.079 N 
ATOM     26 3H10 UNL     1       3.007 -81.147-149.558  1.00  0.00     0.274 HD
ATOM     27 2H10 UNL     1       3.634 -81.334-148.143  1.00  0.00     0.274 HD
ATOM     28 1H10 UNL     1       3.016 -82.694-148.908  1.00  0.00     0.274 HD
ENDBRANCH  24  25
ENDBRANCH  18  24
BRANCH   1  29
HETATM   29  O1  UNL     1       3.273 -79.114-145.857  1.00  0.00    -0.370 OA
HETATM   30  C1  UNL     1       3.542 -78.261-146.924  1.00  0.00     0.204 C 
ENDBRANCH   1  29
TORSDOF 5
ENDMDL
MODEL 2
REMARK VINA RESULT: -6.511337562      9.604     11.445
REMARK  5 active torsions:
REMARK  status: ('A' for Active; 'I' for Inactive)
REMARK    1  A    between atoms: O1_2  and  C2_3 
REMARK    2  A    between atoms: C7_19  and  N8_20 
REMARK    3  A    between atoms: N8_20  and  N9_22 
REMARK    4  A    between atoms: C8_25  and  C9_26 
REMARK    5  A    between atoms: C9_26  and  N10_27 
ROOT
HETATM    1  C2  UNL     1      -6.597 -85.504-141.318  1.00  0.00     0.248 C 
HETATM    2  N1  UNL     1      -6.915 -85.706-139.940  1.00  0.00    -0.197 N 
ATOM      3  H1  UNL     1      -7.059 -84.843-139.415  1.00  0.00     0.180 HD
HETATM    4  C3  UNL     1      -7.067 -86.894-139.162  1.00  0.00     0.708 A 
HETATM    5  N2  UNL     1      -7.615 -86.811-137.949  1.00  0.00    -0.117 N 
ATOM      6  H2  UNL     1      -7.946 -85.953-137.507  1.00  0.00     0.202 HD
HETATM    7  N3  UNL     1      -7.658 -88.018-137.413  1.00  0.00     0.007 NA
HETATM    8  N4  UNL     1      -7.131 -88.880-138.294  1.00  0.00     0.009 NA
HETATM    9  N5  UNL     1      -6.770 -88.194-139.363  1.00  0.00    -0.104 N 
HETATM   10  C4  UNL     1      -6.160 -88.867-140.499  1.00  0.00     0.210 C 
HETATM   11  C5  UNL     1      -4.880 -88.150-140.769  1.00  0.00     0.033 A 
HETATM   12  C6  UNL     1      -4.526 -86.907-141.220  1.00  0.00     0.047 A 
HETATM   13  N6  UNL     1      -3.168 -86.918-141.229  1.00  0.00    -0.302 N 
ATOM     14  H6  UNL     1      -2.579 -86.136-141.515  1.00  0.00     0.186 HD
HETATM   15  N7  UNL     1      -2.718 -88.104-140.807  1.00  0.00    -0.284 N 
ATOM     16  H7  UNL     1      -1.734 -88.363-140.723  1.00  0.00     0.188 HD
HETATM   17  C7  UNL     1      -3.752 -88.898-140.511  1.00  0.00     0.144 A 
HETATM   18  C8  UNL     1      -5.139 -85.660-141.664  1.00  0.00     0.112 C 
ENDROOT
BRANCH  17  19
HETATM   19  N8  UNL     1      -3.656 -90.097-140.079  1.00  0.00    -0.290 N 
ATOM     20  H8  UNL     1      -3.632 -90.860-140.757  1.00  0.00     0.188 HD
BRANCH  19  21
HETATM   21  N9  UNL     1      -3.585 -90.405-138.735  1.00  0.00    -0.344 N 
ATOM     22  H92 UNL     1      -3.015 -89.801-138.143  1.00  0.00     0.176 HD
ATOM     23  H91 UNL     1      -4.075 -91.200-138.323  1.00  0.00     0.176 HD
ENDBRANCH  19  21
ENDBRANCH  17  19
BRANCH  18  24
HETATM   24  C9  UNL     1      -4.409 -84.425-141.210  1.00  0.00     0.244 C 
BRANCH  24  25
HETATM   25  N10 UNL     1      -5.043 -83.207-141.605  1.00  0.00    -0.079 N 
ATOM     26 3H10 UNL     1      -4.511 -82.401-141.276  1.00  0.00     0.274 HD
ATOM     27 2H10 UNL     1      -4.960 -83.068-142.611  1.00  0.00     0.274 HD
ATOM     28 1H10 UNL     1      -6.018 -83.138-141.311  1.00  0.00     0.274 HD
ENDBRANCH  24  25
ENDBRANCH  18  24
BRANCH   1  29
HETATM   29  O1  UNL     1      -7.394 -86.227-142.199  1.00  0.00    -0.370 OA
HETATM   30  C1  UNL     1      -7.727 -85.507-143.342  1.00  0.00     0.204 C 
ENDBRANCH   1  29
TORSDOF 5
ENDMDL
MODEL 3
REMARK VINA RESULT: -6.022145639      2.395      4.069
REMARK  5 active torsions:
REMARK  status: ('A' for Active; 'I' for Inactive)
REMARK    1  A    between atoms: O1_2  and  C2_3 
REMARK    2  A    between atoms: C7_19  and  N8_20 
REMARK    3  A    between atoms: N8_20  and  N9_22 
REMARK    4  A    between atoms: C8_25  and  C9_26 
REMARK    5  A    between atoms: C9_26  and  N10_27 
ROOT
HETATM    1  C2  UNL     1       2.692 -81.049-146.320  1.00  0.00     0.248 C 
HETATM    2  N1  UNL     1       3.348 -79.796-146.515  1.00  0.00    -0.197 N 
ATOM      3  H1  UNL     1       4.295 -79.759-146.139  1.00  0.00     0.180 HD
HETATM    4  C3  UNL     1       2.921 -78.585-147.140  1.00  0.00     0.708 A 
HETATM    5  N2  UNL     1       3.823 -77.641-147.411  1.00  0.00    -0.117 N 
ATOM      6  H2  UNL     1       4.821 -77.700-147.209  1.00  0.00     0.202 HD
HETATM    7  N3  UNL     1       3.215 -76.617-147.984  1.00  0.00     0.007 NA
HETATM    8  N4  UNL     1       1.910 -76.912-148.079  1.00  0.00     0.009 NA
HETATM    9  N5  UNL     1       1.731 -78.114-147.563  1.00  0.00    -0.104 N 
HETATM   10  C4  UNL     1       0.403 -78.708-147.524  1.00  0.00     0.210 C 
HETATM   11  C5  UNL     1       0.164 -79.097-146.104  1.00  0.00     0.033 A 
HETATM   12  C6  UNL     1       0.683 -80.019-145.237  1.00  0.00     0.047 A 
HETATM   13  N6  UNL     1      -0.005 -79.831-144.082  1.00  0.00    -0.302 N 
ATOM     14  H6  UNL     1       0.139 -80.362-143.223  1.00  0.00     0.186 HD
HETATM   15  N7  UNL     1      -0.896 -78.847-144.235  1.00  0.00    -0.284 N 
ATOM     16  H7  UNL     1      -1.535 -78.514-143.513  1.00  0.00     0.188 HD
HETATM   17  C7  UNL     1      -0.823 -78.365-145.480  1.00  0.00     0.144 A 
HETATM   18  C8  UNL     1       1.690 -81.074-145.194  1.00  0.00     0.112 C 
ENDROOT
BRANCH  17  19
HETATM   19  N8  UNL     1      -1.544 -77.416-145.943  1.00  0.00    -0.290 N 
ATOM     20  H8  UNL     1      -1.081 -76.623-146.388  1.00  0.00     0.188 HD
BRANCH  19  21
HETATM   21  N9  UNL     1      -2.922 -77.419-145.867  1.00  0.00    -0.344 N 
ATOM     22  H92 UNL     1      -3.436 -76.932-146.602  1.00  0.00     0.176 HD
ATOM     23  H91 UNL     1      -3.433 -77.883-145.116  1.00  0.00     0.176 HD
ENDBRANCH  19  21
ENDBRANCH  17  19
BRANCH  18  24
HETATM   24  C9  UNL     1       2.441 -81.150-143.893  1.00  0.00     0.244 C 
BRANCH  24  25
HETATM   25  N10 UNL     1       2.661 -82.484-143.434  1.00  0.00    -0.079 N 
ATOM     26 3H10 UNL     1       3.379 -82.502-142.709  1.00  0.00     0.274 HD
ATOM     27 2H10 UNL     1       1.863 -82.813-142.891  1.00  0.00     0.274 HD
ATOM     28 1H10 UNL     1       2.886 -83.142-144.180  1.00  0.00     0.274 HD
ENDBRANCH  24  25
ENDBRANCH  18  24
BRANCH   1  29
HETATM   29  O1  UNL     1       2.148 -81.595-147.477  1.00  0.00    -0.370 OA
HETATM   30  C1  UNL     1       2.973 -81.444-148.587  1.00  0.00     0.204 C 
ENDBRANCH   1  29
TORSDOF 5
ENDMDL
MODEL 4
REMARK VINA RESULT: -6.006125028      7.470      9.567
REMARK  5 active torsions:
REMARK  status: ('A' for Active; 'I' for Inactive)
REMARK    1  A    between atoms: O1_2  and  C2_3 
REMARK    2  A    between atoms: C7_19  and  N8_20 
REMARK    3  A    between atoms: N8_20  and  N9_22 
REMARK    4  A    between atoms: C8_25  and  C9_26 
REMARK    5  A    between atoms: C9_26  and  N10_27 
ROOT
HETATM    1  C2  UNL     1      -6.019 -84.495-141.635  1.00  0.00     0.248 C 
HETATM    2  N1  UNL     1      -6.241 -84.983-140.313  1.00  0.00    -0.197 N 
ATOM      3  H1  UNL     1      -6.950 -84.468-139.791  1.00  0.00     0.180 HD
HETATM    4  C3  UNL     1      -5.652 -86.062-139.585  1.00  0.00     0.708 A 
HETATM    5  N2  UNL     1      -6.220 -86.465-138.447  1.00  0.00    -0.117 N 
ATOM      6  H2  UNL     1      -7.061 -86.065-138.031  1.00  0.00     0.202 HD
HETATM    7  N3  UNL     1      -5.516 -87.465-137.946  1.00  0.00     0.007 NA
HETATM    8  N4  UNL     1      -4.488 -87.702-138.773  1.00  0.00     0.009 NA
HETATM    9  N5  UNL     1      -4.571 -86.844-139.774  1.00  0.00    -0.104 N 
HETATM   10  C4  UNL     1      -3.581 -86.860-140.840  1.00  0.00     0.210 C 
HETATM   11  C5  UNL     1      -3.051 -85.468-140.934  1.00  0.00     0.033 A 
HETATM   12  C6  UNL     1      -3.548 -84.251-141.312  1.00  0.00     0.047 A 
HETATM   13  N6  UNL     1      -2.510 -83.390-141.153  1.00  0.00    -0.302 N 
ATOM     14  H6  UNL     1      -2.545 -82.390-141.348  1.00  0.00     0.186 HD
HETATM   15  N7  UNL     1      -1.436 -84.048-140.703  1.00  0.00    -0.284 N 
ATOM     16  H7  UNL     1      -0.529 -83.625-140.504  1.00  0.00     0.188 HD
HETATM   17  C7  UNL     1      -1.732 -85.343-140.554  1.00  0.00     0.144 A 
HETATM   18  C8  UNL     1      -4.783 -83.648-141.802  1.00  0.00     0.112 C 
ENDROOT
BRANCH  17  19
HETATM   19  N8  UNL     1      -0.920 -86.239-140.140  1.00  0.00    -0.290 N 
ATOM     20  H8  UNL     1      -1.297 -87.133-139.827  1.00  0.00     0.188 HD
BRANCH  19  21
HETATM   21  N9  UNL     1       0.447 -86.046-140.096  1.00  0.00    -0.344 N 
ATOM     22  H92 UNL     1       0.999 -86.408-140.874  1.00  0.00     0.176 HD
ATOM     23  H91 UNL     1       0.913 -85.563-139.328  1.00  0.00     0.176 HD
ENDBRANCH  19  21
ENDBRANCH  17  19
BRANCH  18  24
HETATM   24  C9  UNL     1      -5.064 -82.282-141.236  1.00  0.00     0.244 C 
BRANCH  24  25
HETATM   25  N10 UNL     1      -5.202 -81.266-142.229  1.00  0.00    -0.079 N 
ATOM     26 3H10 UNL     1      -4.343 -81.174-142.772  1.00  0.00     0.274 HD
ATOM     27 2H10 UNL     1      -5.837 -81.569-142.967  1.00  0.00     0.274 HD
ATOM     28 1H10 UNL     1      -5.489 -80.362-141.854  1.00  0.00     0.274 HD
ENDBRANCH  24  25
ENDBRANCH  18  24
BRANCH   1  29
HETATM   29  O1  UNL     1      -6.086 -85.471-142.623  1.00  0.00    -0.370 OA
HETATM   30  C1  UNL     1      -7.368 -85.630-143.141  1.00  0.00     0.204 C 
ENDBRANCH   1  29
TORSDOF 5
ENDMDL
MODEL 5
REMARK VINA RESULT: -6.003249607      7.978     10.107
REMARK  5 active torsions:
REMARK  status: ('A' for Active; 'I' for Inactive)
REMARK    1  A    between atoms: O1_2  and  C2_3 
REMARK    2  A    between atoms: C7_19  and  N8_20 
REMARK    3  A    between atoms: N8_20  and  N9_22 
REMARK    4  A    between atoms: C8_25  and  C9_26 
REMARK    5  A    between atoms: C9_26  and  N10_27 
ROOT
HETATM    1  C2  UNL     1      -6.350 -86.055-140.249  1.00  0.00     0.248 C 
HETATM    2  N1  UNL     1      -6.091 -84.958-141.126  1.00  0.00    -0.197 N 
ATOM      3  H1  UNL     1      -6.716 -84.911-141.930  1.00  0.00     0.180 HD
HETATM    4  C3  UNL     1      -5.117 -83.915-141.083  1.00  0.00     0.708 A 
HETATM    5  N2  UNL     1      -5.251 -82.866-141.896  1.00  0.00    -0.117 N 
ATOM      6  H2  UNL     1      -6.006 -82.731-142.568  1.00  0.00     0.202 HD
HETATM    7  N3  UNL     1      -4.248 -82.031-141.690  1.00  0.00     0.007 NA
HETATM    8  N4  UNL     1      -3.465 -82.553-140.735  1.00  0.00     0.009 NA
HETATM    9  N5  UNL     1      -3.995 -83.704-140.364  1.00  0.00    -0.104 N 
HETATM   10  C4  UNL     1      -3.360 -84.509-139.332  1.00  0.00     0.210 C 
HETATM   11  C5  UNL     1      -3.171 -85.866-139.923  1.00  0.00     0.033 A 
HETATM   12  C6  UNL     1      -3.990 -86.888-140.321  1.00  0.00     0.047 A 
HETATM   13  N6  UNL     1      -3.146 -87.850-140.772  1.00  0.00    -0.302 N 
ATOM     14  H6  UNL     1      -3.436 -88.754-141.146  1.00  0.00     0.186 HD
HETATM   15  N7  UNL     1      -1.879 -87.439-140.656  1.00  0.00    -0.284 N 
ATOM     16  H7  UNL     1      -1.058 -87.981-140.927  1.00  0.00     0.188 HD
HETATM   17  C7  UNL     1      -1.853 -86.209-140.131  1.00  0.00     0.144 A 
HETATM   18  C8  UNL     1      -5.408 -87.222-140.395  1.00  0.00     0.112 C 
ENDROOT
BRANCH  17  19
HETATM   19  N8  UNL     1      -0.793 -85.535-139.894  1.00  0.00    -0.290 N 
ATOM     20  H8  UNL     1      -0.572 -85.296-138.927  1.00  0.00     0.188 HD
BRANCH  19  21
HETATM   21  N9  UNL     1       0.066 -85.117-140.891  1.00  0.00    -0.344 N 
ATOM     22  H92 UNL     1       0.955 -85.609-140.985  1.00  0.00     0.176 HD
ATOM     23  H91 UNL     1      -0.155 -84.348-141.524  1.00  0.00     0.176 HD
ENDBRANCH  19  21
ENDBRANCH  17  19
BRANCH  18  24
HETATM   24  C9  UNL     1      -5.792 -87.989-141.632  1.00  0.00     0.244 C 
BRANCH  24  25
HETATM   25  N10 UNL     1      -7.086 -88.588-141.558  1.00  0.00    -0.079 N 
ATOM     26 3H10 UNL     1      -7.088 -89.360-140.891  1.00  0.00     0.274 HD
ATOM     27 2H10 UNL     1      -7.745 -87.962-141.096  1.00  0.00     0.274 HD
ATOM     28 1H10 UNL     1      -7.449 -88.892-142.462  1.00  0.00     0.274 HD
ENDBRANCH  24  25
ENDBRANCH  18  24
BRANCH   1  29
HETATM   29  O1  UNL     1      -6.490 -85.697-138.913  1.00  0.00    -0.370 OA
HETATM   30  C1  UNL     1      -6.727 -86.788-138.082  1.00  0.00     0.204 C 
ENDBRANCH   1  29
TORSDOF 5
ENDMDL
