MODEL 1
REMARK VINA RESULT: -6.447057301      0.000      0.000
REMARK  7 active torsions:
REMARK  status: ('A' for Active; 'I' for Inactive)
REMARK    1  A    between atoms: O1_2  and  C2_3 
REMARK    2  A    between atoms: C3_5  and  O3_6 
REMARK    3  A    between atoms: C3_5  and  O4_8 
REMARK    4  A    between atoms: C5_10  and  O5_12 
REMARK    5  A    between atoms: C8_15  and  O6_16 
REMARK    6  A    between atoms: C10_19  and  O7_20 
REMARK    7  A    between atoms: C11_22  and  O8_23 
ROOT
HETATM    1  C2  UNL     1      -4.399 -85.959-141.857  1.00  0.00     0.282 C 
HETATM    2  O2  UNL     1      -5.391 -86.838-141.325  1.00  0.00    -0.299 OA
HETATM    3  C3  UNL     1      -4.696 -87.563-140.360  1.00  0.00     0.315 C 
HETATM    4  C5  UNL     1      -3.645 -86.672-139.805  1.00  0.00     0.155 C 
HETATM    5  C6  UNL     1      -3.577 -86.550-138.345  1.00  0.00     0.056 C 
HETATM    6  C7  UNL     1      -3.863 -85.385-140.569  1.00  0.00     0.102 C 
HETATM    7  C8  UNL     1      -2.609 -84.586-140.700  1.00  0.00     0.140 C 
HETATM    8  C9  UNL     1      -3.077 -83.122-140.710  1.00  0.00     0.067 C 
HETATM    9  C10 UNL     1      -4.235 -83.152-139.699  1.00  0.00     0.150 C 
HETATM   10  C11 UNL     1      -4.863 -84.472-139.972  1.00  0.00     0.166 C 
ENDROOT
BRANCH   1  11
HETATM   11  O1  UNL     1      -5.000 -85.044-142.699  1.00  0.00    -0.365 OA
HETATM   12  C1  UNL     1      -6.362 -85.301-142.722  1.00  0.00     0.204 C 
ENDBRANCH   1  11
BRANCH   4  13
HETATM   13  O5  UNL     1      -2.403 -87.165-140.273  1.00  0.00    -0.381 OA
ATOM     14  H5  UNL     1      -1.728 -86.619-139.887  1.00  0.00     0.211 HD
ENDBRANCH   4  13
BRANCH   7  15
HETATM   15  O6  UNL     1      -1.790 -84.894-141.747  1.00  0.00    -0.394 OA
ATOM     16  H6  UNL     1      -1.152 -84.236-141.999  1.00  0.00     0.210 HD
ENDBRANCH   7  15
BRANCH  10  17
HETATM   17  O8  UNL     1      -5.560 -84.995-138.894  1.00  0.00    -0.392 OA
ATOM     18  H8  UNL     1      -6.485 -84.780-138.874  1.00  0.00     0.210 HD
ENDBRANCH  10  17
BRANCH   3  19
HETATM   19  O3  UNL     1      -5.558 -88.043-139.380  1.00  0.00    -0.341 OA
ATOM     20  H3  UNL     1      -5.082 -88.523-138.714  1.00  0.00     0.215 HD
ENDBRANCH   3  19
BRANCH   3  21
HETATM   21  O4  UNL     1      -4.173 -88.692-141.014  1.00  0.00    -0.335 OA
HETATM   22  C4  UNL     1      -4.777 -89.821-140.450  1.00  0.00     0.208 C 
ENDBRANCH   3  21
BRANCH   9  23
HETATM   23  O7  UNL     1      -5.083 -82.068-139.945  1.00  0.00    -0.393 OA
ATOM     24  H7  UNL     1      -5.374 -81.708-139.115  1.00  0.00     0.210 HD
ENDBRANCH   9  23
TORSDOF 7
ENDMDL
MODEL 2
REMARK VINA RESULT: -6.388640877      8.522     11.137
REMARK  7 active torsions:
REMARK  status: ('A' for Active; 'I' for Inactive)
REMARK    1  A    between atoms: O1_2  and  C2_3 
REMARK    2  A    between atoms: C3_5  and  O3_6 
REMARK    3  A    between atoms: C3_5  and  O4_8 
REMARK    4  A    between atoms: C5_10  and  O5_12 
REMARK    5  A    between atoms: C8_15  and  O6_16 
REMARK    6  A    between atoms: C10_19  and  O7_20 
REMARK    7  A    between atoms: C11_22  and  O8_23 
ROOT
HETATM    1  C2  UNL     1       0.613 -79.955-147.242  1.00  0.00     0.282 C 
HETATM    2  O2  UNL     1       1.491 -80.572-148.186  1.00  0.00    -0.299 OA
HETATM    3  C3  UNL     1       2.525 -79.647-148.316  1.00  0.00     0.315 C 
HETATM    4  C5  UNL     1       2.671 -78.954-147.011  1.00  0.00     0.155 C 
HETATM    5  C6  UNL     1       4.017 -78.899-146.433  1.00  0.00     0.056 C 
HETATM    6  C7  UNL     1       1.611 -79.619-146.161  1.00  0.00     0.102 C 
HETATM    7  C8  UNL     1       1.104 -78.720-145.083  1.00  0.00     0.140 C 
HETATM    8  C9  UNL     1       0.744 -79.662-143.924  1.00  0.00     0.067 C 
HETATM    9  C10 UNL     1       1.860 -80.715-144.013  1.00  0.00     0.150 C 
HETATM   10  C11 UNL     1       2.050 -80.858-145.481  1.00  0.00     0.166 C 
ENDROOT
BRANCH   1  11
HETATM   11  O1  UNL     1      -0.368 -80.853-146.873  1.00  0.00    -0.365 OA
HETATM   12  C1  UNL     1      -1.597 -80.216-146.953  1.00  0.00     0.204 C 
ENDBRANCH   1  11
BRANCH   4  13
HETATM   13  O5  UNL     1       2.207 -77.629-147.199  1.00  0.00    -0.381 OA
ATOM     14  H5  UNL     1       1.639 -77.432-146.463  1.00  0.00     0.211 HD
ENDBRANCH   4  13
BRANCH   7  15
HETATM   15  O6  UNL     1       0.091 -77.870-145.417  1.00  0.00    -0.394 OA
ATOM     16  H6  UNL     1      -0.754 -78.031-145.013  1.00  0.00     0.210 HD
ENDBRANCH   7  15
BRANCH  10  17
HETATM   17  O8  UNL     1       3.309 -81.307-145.843  1.00  0.00    -0.392 OA
ATOM     18  H8  UNL     1       3.862 -80.655-146.259  1.00  0.00     0.210 HD
ENDBRANCH  10  17
BRANCH   3  19
HETATM   19  O3  UNL     1       3.701 -80.269-148.723  1.00  0.00    -0.341 OA
ATOM     20  H3  UNL     1       4.450 -79.917-148.257  1.00  0.00     0.215 HD
ENDBRANCH   3  19
BRANCH   3  21
HETATM   21  O4  UNL     1       2.153 -78.784-149.361  1.00  0.00    -0.335 OA
HETATM   22  C4  UNL     1       3.254 -78.658-150.215  1.00  0.00     0.208 C 
ENDBRANCH   3  21
BRANCH   9  23
HETATM   23  O7  UNL     1       1.430 -81.890-143.389  1.00  0.00    -0.393 OA
ATOM     24  H7  UNL     1       1.029 -82.457-144.038  1.00  0.00     0.210 HD
ENDBRANCH   9  23
TORSDOF 7
ENDMDL
MODEL 3
REMARK VINA RESULT: -6.208102929      1.437      4.508
REMARK  7 active torsions:
REMARK  status: ('A' for Active; 'I' for Inactive)
REMARK    1  A    between atoms: O1_2  and  C2_3 
REMARK    2  A    between atoms: C3_5  and  O3_6 
REMARK    3  A    between atoms: C3_5  and  O4_8 
REMARK    4  A    between atoms: C5_10  and  O5_12 
REMARK    5  A    between atoms: C8_15  and  O6_16 
REMARK    6  A    between atoms: C10_19  and  O7_20 
REMARK    7  A    between atoms: C11_22  and  O8_23 
ROOT
HETATM    1  C2  UNL     1      -5.666 -84.881-141.790  1.00  0.00     0.282 C 
HETATM    2  O2  UNL     1      -4.535 -84.225-142.366  1.00  0.00    -0.299 OA
HETATM    3  C3  UNL     1      -3.970 -83.549-141.287  1.00  0.00     0.315 C 
HETATM    4  C5  UNL     1      -4.236 -84.354-140.068  1.00  0.00     0.155 C 
HETATM    5  C6  UNL     1      -3.088 -84.662-139.209  1.00  0.00     0.056 C 
HETATM    6  C7  UNL     1      -4.993 -85.544-140.614  1.00  0.00     0.102 C 
HETATM    7  C8  UNL     1      -5.916 -86.139-139.604  1.00  0.00     0.140 C 
HETATM    8  C9  UNL     1      -5.951 -87.638-139.939  1.00  0.00     0.067 C 
HETATM    9  C10 UNL     1      -4.496 -87.904-140.357  1.00  0.00     0.150 C 
HETATM   10  C11 UNL     1      -4.140 -86.657-141.087  1.00  0.00     0.166 C 
ENDROOT
BRANCH   1  11
HETATM   11  O1  UNL     1      -6.215 -85.747-142.715  1.00  0.00    -0.365 OA
HETATM   12  C1  UNL     1      -7.531 -85.372-142.937  1.00  0.00     0.204 C 
ENDBRANCH   1  11
BRANCH   4  13
HETATM   13  O5  UNL     1      -5.189 -83.637-139.305  1.00  0.00    -0.381 OA
ATOM     14  H5  UNL     1      -4.846 -83.581-138.421  1.00  0.00     0.211 HD
ENDBRANCH   4  13
BRANCH   7  15
HETATM   15  O6  UNL     1      -7.158 -85.584-139.503  1.00  0.00    -0.394 OA
ATOM     16  H6  UNL     1      -7.754 -85.732-140.228  1.00  0.00     0.210 HD
ENDBRANCH   7  15
BRANCH  10  17
HETATM   17  O8  UNL     1      -2.782 -86.385-141.103  1.00  0.00    -0.392 OA
ATOM     18  H8  UNL     1      -2.233 -87.107-141.388  1.00  0.00     0.210 HD
ENDBRANCH  10  17
BRANCH   3  19
HETATM   19  O3  UNL     1      -2.612 -83.328-141.494  1.00  0.00    -0.341 OA
ATOM     20  H3  UNL     1      -2.441 -83.080-142.394  1.00  0.00     0.215 HD
ENDBRANCH   3  19
BRANCH   3  21
HETATM   21  O4  UNL     1      -4.576 -82.282-141.254  1.00  0.00    -0.335 OA
HETATM   22  C4  UNL     1      -4.243 -81.625-142.445  1.00  0.00     0.208 C 
ENDBRANCH   3  21
BRANCH   9  23
HETATM   23  O7  UNL     1      -4.453 -89.050-141.156  1.00  0.00    -0.393 OA
ATOM     24  H7  UNL     1      -3.557 -89.198-141.438  1.00  0.00     0.210 HD
ENDBRANCH   9  23
TORSDOF 7
ENDMDL
MODEL 4
REMARK VINA RESULT: -6.114335493      9.020     11.599
REMARK  7 active torsions:
REMARK  status: ('A' for Active; 'I' for Inactive)
REMARK    1  A    between atoms: O1_2  and  C2_3 
REMARK    2  A    between atoms: C3_5  and  O3_6 
REMARK    3  A    between atoms: C3_5  and  O4_8 
REMARK    4  A    between atoms: C5_10  and  O5_12 
REMARK    5  A    between atoms: C8_15  and  O6_16 
REMARK    6  A    between atoms: C10_19  and  O7_20 
REMARK    7  A    between atoms: C11_22  and  O8_23 
ROOT
HETATM    1  C2  UNL     1       0.863 -80.289-147.983  1.00  0.00     0.282 C 
HETATM    2  O2  UNL     1       2.084 -80.678-148.616  1.00  0.00    -0.299 OA
HETATM    3  C3  UNL     1       2.754 -79.470-148.794  1.00  0.00     0.315 C 
HETATM    4  C5  UNL     1       2.365 -78.575-147.675  1.00  0.00     0.155 C 
HETATM    5  C6  UNL     1       3.450 -77.934-146.925  1.00  0.00     0.056 C 
HETATM    6  C7  UNL     1       1.423 -79.441-146.868  1.00  0.00     0.102 C 
HETATM    7  C8  UNL     1       0.419 -78.635-146.114  1.00  0.00     0.140 C 
HETATM    8  C9  UNL     1       0.141 -79.448-144.840  1.00  0.00     0.067 C 
HETATM    9  C10 UNL     1       1.533 -80.013-144.514  1.00  0.00     0.150 C 
HETATM   10  C11 UNL     1       2.083 -80.305-145.865  1.00  0.00     0.166 C 
ENDROOT
BRANCH   1  11
HETATM   11  O1  UNL     1       0.179 -81.416-147.574  1.00  0.00    -0.365 OA
HETATM   12  C1  UNL     1       0.865 -82.532-148.027  1.00  0.00     0.204 C 
ENDBRANCH   1  11
BRANCH   4  13
HETATM   13  O5  UNL     1       1.542 -77.563-148.228  1.00  0.00    -0.381 OA
ATOM     14  H5  UNL     1       0.938 -77.298-147.545  1.00  0.00     0.211 HD
ENDBRANCH   4  13
BRANCH   7  15
HETATM   15  O6  UNL     1      -0.717 -78.285-146.784  1.00  0.00    -0.394 OA
ATOM     16  H6  UNL     1      -1.270 -77.629-146.375  1.00  0.00     0.210 HD
ENDBRANCH   7  15
BRANCH  10  17
HETATM   17  O8  UNL     1       3.468 -80.307-145.917  1.00  0.00    -0.392 OA
ATOM     18  H8  UNL     1       3.896 -79.833-145.213  1.00  0.00     0.210 HD
ENDBRANCH  10  17
BRANCH   3  19
HETATM   19  O3  UNL     1       4.129 -79.668-148.863  1.00  0.00    -0.341 OA
ATOM     20  H3  UNL     1       4.596 -78.846-148.766  1.00  0.00     0.215 HD
ENDBRANCH   3  19
BRANCH   3  21
HETATM   21  O4  UNL     1       2.361 -78.982-150.052  1.00  0.00    -0.335 OA
HETATM   22  C4  UNL     1       3.525 -78.694-150.774  1.00  0.00     0.208 C 
ENDBRANCH   3  21
BRANCH   9  23
HETATM   23  O7  UNL     1       1.388 -81.148-143.712  1.00  0.00    -0.393 OA
ATOM     24  H7  UNL     1       0.991 -80.896-142.886  1.00  0.00     0.210 HD
ENDBRANCH   9  23
TORSDOF 7
ENDMDL
MODEL 5
REMARK VINA RESULT: -6.052362834      8.577     10.427
REMARK  7 active torsions:
REMARK  status: ('A' for Active; 'I' for Inactive)
REMARK    1  A    between atoms: O1_2  and  C2_3 
REMARK    2  A    between atoms: C3_5  and  O3_6 
REMARK    3  A    between atoms: C3_5  and  O4_8 
REMARK    4  A    between atoms: C5_10  and  O5_12 
REMARK    5  A    between atoms: C8_15  and  O6_16 
REMARK    6  A    between atoms: C10_19  and  O7_20 
REMARK    7  A    between atoms: C11_22  and  O8_23 
ROOT
HETATM    1  C2  UNL     1       0.178 -78.673-147.510  1.00  0.00     0.282 C 
HETATM    2  O2  UNL     1      -0.657 -77.539-147.268  1.00  0.00    -0.299 OA
HETATM    3  C3  UNL     1      -1.860 -78.107-146.857  1.00  0.00     0.315 C 
HETATM    4  C5  UNL     1      -1.537 -79.370-146.147  1.00  0.00     0.155 C 
HETATM    5  C6  UNL     1      -2.130 -79.559-144.819  1.00  0.00     0.056 C 
HETATM    6  C7  UNL     1      -0.026 -79.411-146.210  1.00  0.00     0.102 C 
HETATM    7  C8  UNL     1       0.504 -80.805-146.179  1.00  0.00     0.140 C 
HETATM    8  C9  UNL     1       1.857 -80.694-145.459  1.00  0.00     0.067 C 
HETATM    9  C10 UNL     1       1.561 -79.629-144.390  1.00  0.00     0.150 C 
HETATM   10  C11 UNL     1       0.659 -78.693-145.113  1.00  0.00     0.166 C 
ENDROOT
BRANCH   1  11
HETATM   11  O1  UNL     1       1.471 -78.249-147.744  1.00  0.00    -0.365 OA
HETATM   12  C1  UNL     1       1.999 -79.006-148.779  1.00  0.00     0.204 C 
ENDBRANCH   1  11
BRANCH   4  13
HETATM   13  O5  UNL     1      -1.963 -80.429-146.985  1.00  0.00    -0.381 OA
ATOM     14  H5  UNL     1      -2.838 -80.668-146.701  1.00  0.00     0.211 HD
ENDBRANCH   4  13
BRANCH   7  15
HETATM   15  O6  UNL     1       0.585 -81.459-147.373  1.00  0.00    -0.394 OA
ATOM     16  H6  UNL     1       0.484 -82.404-147.352  1.00  0.00     0.210 HD
ENDBRANCH   7  15
BRANCH  10  17
HETATM   17  O8  UNL     1      -0.177 -77.965-144.281  1.00  0.00    -0.392 OA
ATOM     18  H8  UNL     1      -0.815 -77.423-144.730  1.00  0.00     0.210 HD
ENDBRANCH  10  17
BRANCH   3  19
HETATM   19  O3  UNL     1      -2.583 -77.221-146.064  1.00  0.00    -0.341 OA
ATOM     20  H3  UNL     1      -2.300 -77.266-145.159  1.00  0.00     0.215 HD
ENDBRANCH   3  19
BRANCH   3  21
HETATM   21  O4  UNL     1      -2.621 -78.306-148.020  1.00  0.00    -0.335 OA
HETATM   22  C4  UNL     1      -3.653 -77.361-148.016  1.00  0.00     0.208 C 
ENDBRANCH   3  21
BRANCH   9  23
HETATM   23  O7  UNL     1       2.764 -79.045-143.983  1.00  0.00    -0.393 OA
ATOM     24  H7  UNL     1       2.958 -78.308-144.552  1.00  0.00     0.210 HD
ENDBRANCH   9  23
TORSDOF 7
ENDMDL
