MODEL 1
REMARK VINA RESULT: -2.644552736      0.000      0.000
REMARK  14 active torsions:
REMARK  status: ('A' for Active; 'I' for Inactive)
REMARK    1  A    between atoms: C2_2  and  C3_3 
REMARK    2  A    between atoms: C3_3  and  N1_4 
REMARK    3  A    between atoms: N1_4  and  C4_6 
REMARK    4  A    between atoms: C5_9  and  N3_10 
REMARK       I    between atoms: N3_10  and  C6_12 
REMARK    5  A    between atoms: C6_12  and  O2_14 
REMARK    6  A    between atoms: C8_16  and  N4_17 
REMARK    7  A    between atoms: N4_17  and  C9_19 
REMARK    8  A    between atoms: C9_19  and  C10_20 
REMARK    9  A    between atoms: C10_20  and  N5_21 
REMARK   10  A    between atoms: N6_25  and  C11_26 
REMARK   11  A    between atoms: C14_35  and  N10_36 
REMARK   12  A    between atoms: N10_36  and  C15_37 
REMARK   13  A    between atoms: N10_36  and  C17_39 
REMARK   14  A    between atoms: C19_43  and  N12_44 
ROOT
HETATM    1  C4  UNL     1      35.859  15.743   9.869  1.00  0.00     0.695 A 
HETATM    2  N2  UNL     1      34.689  15.062  10.033  1.00  0.00    -0.172 N 
ATOM      3  H2  UNL     1      34.328  14.502   9.261  1.00  0.00     0.186 HD
HETATM    4  C5  UNL     1      34.004  15.107  11.178  1.00  0.00     0.171 A 
HETATM    5  C8  UNL     1      34.497  15.883  12.267  1.00  0.00     0.174 A 
HETATM    6  N6  UNL     1      35.631  16.537  12.087  1.00  0.00    -0.204 N 
HETATM    7  N13 UNL     1      36.253  16.447  10.934  1.00  0.00    -0.122 N 
ATOM      8  H13 UNL     1      37.125  16.968  10.842  1.00  0.00     0.206 HD
ENDROOT
BRANCH   6   9
HETATM    9  C11 UNL     1      36.221  17.281  13.119  1.00  0.00     0.148 A 
HETATM   10  N7  UNL     1      36.444  16.614  14.286  1.00  0.00    -0.336 N 
HETATM   11  C12 UNL     1      37.024  17.239  15.298  1.00  0.00     0.183 A 
ATOM     12  H7  UNL     1      36.164  15.637  14.379  1.00  0.00     0.168 HD
HETATM   13  N8  UNL     1      37.419  18.519  15.247  1.00  0.00    -0.337 N 
HETATM   14  C13 UNL     1      37.217  19.210  14.116  1.00  0.00     0.139 A 
ATOM     15  H8  UNL     1      37.863  18.958  16.052  1.00  0.00     0.168 HD
HETATM   16  N9  UNL     1      37.585  20.502  14.011  1.00  0.00    -0.175 N 
HETATM   17  C20 UNL     1      36.610  18.592  13.028  1.00  0.00     0.099 A 
HETATM   18  C14 UNL     1      37.412  21.258  12.925  1.00  0.00     0.683 A 
ATOM     19  H9  UNL     1      38.028  20.933  14.821  1.00  0.00     0.186 HD
HETATM   20  N11 UNL     1      36.816  20.648  11.859  1.00  0.00    -0.176 N 
HETATM   21  C19 UNL     1      36.419  19.364  11.881  1.00  0.00     0.132 A 
ATOM     22  H11 UNL     1      36.665  21.190  11.009  1.00  0.00     0.186 HD
BRANCH  18  23
HETATM   23  N10 UNL     1      37.807  22.613  12.840  1.00  0.00    -0.218 N 
BRANCH  23  24
HETATM   24  C15 UNL     1      39.163  23.018  13.021  1.00  0.00     0.136 C 
HETATM   25  C16 UNL     1      39.308  24.452  13.505  1.00  0.00     0.027 C 
ENDBRANCH  23  24
BRANCH  23  26
HETATM   26  C17 UNL     1      36.796  23.605  12.564  1.00  0.00     0.136 C 
HETATM   27  C18 UNL     1      35.871  23.898  13.696  1.00  0.00     0.027 C 
ENDBRANCH  23  26
ENDBRANCH  18  23
BRANCH  21  28
HETATM   28  N12 UNL     1      35.857  18.821  10.866  1.00  0.00    -0.384 N 
ATOM     29 2H12 UNL     1      34.840  18.850  10.801  1.00  0.00     0.157 HD
ATOM     30 1H12 UNL     1      36.405  18.370  10.134  1.00  0.00     0.157 HD
ENDBRANCH  21  28
ENDBRANCH   6   9
BRANCH   5  31
HETATM   31  N4  UNL     1      33.799  15.847  13.269  1.00  0.00    -0.350 N 
ATOM     32  H4  UNL     1      34.017  16.694  13.794  1.00  0.00     0.166 HD
BRANCH  31  33
HETATM   33  C9  UNL     1      32.858  15.181  14.004  1.00  0.00     0.089 C 
BRANCH  33  34
HETATM   34  C10 UNL     1      33.414  14.285  15.114  1.00  0.00     0.274 C 
BRANCH  34  35
HETATM   35  N5  UNL     1      32.433  14.201  16.186  1.00  0.00    -0.075 N 
ATOM     36  H53 UNL     1      32.768  13.652  16.977  1.00  0.00     0.274 HD
ATOM     37  H52 UNL     1      32.310  15.089  16.673  1.00  0.00     0.274 HD
ATOM     38  H51 UNL     1      31.558  13.842  15.805  1.00  0.00     0.274 HD
ENDBRANCH  34  35
ENDBRANCH  33  34
ENDBRANCH  31  33
ENDBRANCH   5  31
BRANCH   4  39
HETATM   39  N3  UNL     1      32.903  14.448  11.286  1.00  0.00    -0.285 N 
HETATM   40  C6  UNL     1      32.845  13.088  10.886  1.00  0.00     0.365 C 
HETATM   41  O1  UNL     1      33.249  12.205  11.701  1.00  0.00    -0.238 OA
ATOM     42  H3  UNL     1      32.072  14.904  11.661  1.00  0.00     0.172 HD
BRANCH  40  43
HETATM   43  O2  UNL     1      32.370  12.684   9.654  1.00  0.00    -0.309 OA
HETATM   44  C7  UNL     1      32.587  13.494   8.499  1.00  0.00     0.215 C 
ENDBRANCH  40  43
ENDBRANCH   4  39
BRANCH   1  45
HETATM   45  N1  UNL     1      36.463  15.653   8.749  1.00  0.00    -0.225 N 
ATOM     46  H1  UNL     1      37.072  14.841   8.646  1.00  0.00     0.177 HD
BRANCH  45  47
HETATM   47  C3  UNL     1      36.411  16.516   7.627  1.00  0.00     0.138 C 
BRANCH  47  48
HETATM   48  C2  UNL     1      35.388  17.638   7.778  1.00  0.00     0.016 C 
HETATM   49  C1  UNL     1      35.231  18.328   6.448  1.00  0.00     0.006 C 
ENDBRANCH  47  48
ENDBRANCH  45  47
ENDBRANCH   1  45
TORSDOF 14
ENDMDL
MODEL 2
REMARK VINA RESULT: -2.632878657      0.049      1.035
REMARK  14 active torsions:
REMARK  status: ('A' for Active; 'I' for Inactive)
REMARK    1  A    between atoms: C2_2  and  C3_3 
REMARK    2  A    between atoms: C3_3  and  N1_4 
REMARK    3  A    between atoms: N1_4  and  C4_6 
REMARK    4  A    between atoms: C5_9  and  N3_10 
REMARK       I    between atoms: N3_10  and  C6_12 
REMARK    5  A    between atoms: C6_12  and  O2_14 
REMARK    6  A    between atoms: C8_16  and  N4_17 
REMARK    7  A    between atoms: N4_17  and  C9_19 
REMARK    8  A    between atoms: C9_19  and  C10_20 
REMARK    9  A    between atoms: C10_20  and  N5_21 
REMARK   10  A    between atoms: N6_25  and  C11_26 
REMARK   11  A    between atoms: C14_35  and  N10_36 
REMARK   12  A    between atoms: N10_36  and  C15_37 
REMARK   13  A    between atoms: N10_36  and  C17_39 
REMARK   14  A    between atoms: C19_43  and  N12_44 
ROOT
HETATM    1  C4  UNL     1      35.863  15.753   9.861  1.00  0.00     0.695 A 
HETATM    2  N2  UNL     1      34.695  15.069  10.026  1.00  0.00    -0.172 N 
ATOM      3  H2  UNL     1      34.336  14.507   9.254  1.00  0.00     0.186 HD
HETATM    4  C5  UNL     1      34.010  15.114  11.170  1.00  0.00     0.171 A 
HETATM    5  C8  UNL     1      34.500  15.892  12.258  1.00  0.00     0.174 A 
HETATM    6  N6  UNL     1      35.633  16.549  12.078  1.00  0.00    -0.204 N 
HETATM    7  N13 UNL     1      36.255  16.460  10.925  1.00  0.00    -0.122 N 
ATOM      8  H13 UNL     1      37.126  16.983  10.832  1.00  0.00     0.206 HD
ENDROOT
BRANCH   6   9
HETATM    9  C11 UNL     1      36.221  17.296  13.109  1.00  0.00     0.148 A 
HETATM   10  N7  UNL     1      36.440  16.632  14.278  1.00  0.00    -0.336 N 
HETATM   11  C12 UNL     1      37.018  17.261  15.290  1.00  0.00     0.183 A 
ATOM     12  H7  UNL     1      36.159  15.657  14.374  1.00  0.00     0.168 HD
HETATM   13  N8  UNL     1      37.413  18.540  15.236  1.00  0.00    -0.337 N 
HETATM   14  C13 UNL     1      37.216  19.227  14.102  1.00  0.00     0.139 A 
ATOM     15  H8  UNL     1      37.856  18.982  16.041  1.00  0.00     0.168 HD
HETATM   16  N9  UNL     1      37.585  20.519  13.994  1.00  0.00    -0.175 N 
HETATM   17  C20 UNL     1      36.611  18.606  13.015  1.00  0.00     0.099 A 
HETATM   18  C14 UNL     1      37.415  21.272  12.905  1.00  0.00     0.683 A 
ATOM     19  H9  UNL     1      38.026  20.953  14.804  1.00  0.00     0.186 HD
HETATM   20  N11 UNL     1      36.821  20.658  11.840  1.00  0.00    -0.176 N 
HETATM   21  C19 UNL     1      36.423  19.375  11.865  1.00  0.00     0.132 A 
ATOM     22  H11 UNL     1      36.673  21.198  10.987  1.00  0.00     0.186 HD
BRANCH  18  23
HETATM   23  N10 UNL     1      37.811  22.626  12.817  1.00  0.00    -0.218 N 
BRANCH  23  24
HETATM   24  C15 UNL     1      36.875  23.672  12.560  1.00  0.00     0.136 C 
HETATM   25  C16 UNL     1      35.911  23.918  13.710  1.00  0.00     0.027 C 
ENDBRANCH  23  24
BRANCH  23  26
HETATM   26  C17 UNL     1      39.207  22.945  12.992  1.00  0.00     0.136 C 
HETATM   27  C18 UNL     1      39.486  24.336  13.447  1.00  0.00     0.027 C 
ENDBRANCH  23  26
ENDBRANCH  18  23
BRANCH  21  28
HETATM   28  N12 UNL     1      35.864  18.829  10.850  1.00  0.00    -0.384 N 
ATOM     29 2H12 UNL     1      36.373  18.810   9.967  1.00  0.00     0.157 HD
ATOM     30 1H12 UNL     1      34.933  18.418  10.914  1.00  0.00     0.157 HD
ENDBRANCH  21  28
ENDBRANCH   6   9
BRANCH   5  31
HETATM   31  N4  UNL     1      33.803  15.855  13.260  1.00  0.00    -0.350 N 
ATOM     32  H4  UNL     1      34.029  16.696  13.791  1.00  0.00     0.166 HD
BRANCH  31  33
HETATM   33  C9  UNL     1      32.856  15.193  13.990  1.00  0.00     0.089 C 
BRANCH  33  34
HETATM   34  C10 UNL     1      33.401  14.310  15.115  1.00  0.00     0.274 C 
BRANCH  34  35
HETATM   35  N5  UNL     1      32.405  14.224  16.172  1.00  0.00    -0.075 N 
ATOM     36  H53 UNL     1      32.679  14.741  17.007  1.00  0.00     0.274 HD
ATOM     37  H52 UNL     1      31.558  14.748  15.953  1.00  0.00     0.274 HD
ATOM     38  H51 UNL     1      32.215  13.241  16.368  1.00  0.00     0.274 HD
ENDBRANCH  34  35
ENDBRANCH  33  34
ENDBRANCH  31  33
ENDBRANCH   5  31
BRANCH   4  39
HETATM   39  N3  UNL     1      32.911  14.452  11.279  1.00  0.00    -0.285 N 
HETATM   40  C6  UNL     1      32.861  13.086  10.896  1.00  0.00     0.365 C 
HETATM   41  O1  UNL     1      33.263  12.215  11.724  1.00  0.00    -0.238 OA
ATOM     42  H3  UNL     1      32.075  14.909  11.642  1.00  0.00     0.172 HD
BRANCH  40  43
HETATM   43  O2  UNL     1      32.397  12.665   9.666  1.00  0.00    -0.309 OA
HETATM   44  C7  UNL     1      32.595  13.474   8.507  1.00  0.00     0.215 C 
ENDBRANCH  40  43
ENDBRANCH   4  39
BRANCH   1  45
HETATM   45  N1  UNL     1      36.468  15.664   8.740  1.00  0.00    -0.225 N 
ATOM     46  H1  UNL     1      37.079  14.854   8.639  1.00  0.00     0.177 HD
BRANCH  45  47
HETATM   47  C3  UNL     1      36.413  16.525   7.617  1.00  0.00     0.138 C 
BRANCH  47  48
HETATM   48  C2  UNL     1      35.414  17.666   7.782  1.00  0.00     0.016 C 
HETATM   49  C1  UNL     1      35.232  18.343   6.449  1.00  0.00     0.006 C 
ENDBRANCH  47  48
ENDBRANCH  45  47
ENDBRANCH   1  45
TORSDOF 14
ENDMDL
MODEL 3
REMARK VINA RESULT: -2.224962131      1.423      4.286
REMARK  14 active torsions:
REMARK  status: ('A' for Active; 'I' for Inactive)
REMARK    1  A    between atoms: C2_2  and  C3_3 
REMARK    2  A    between atoms: C3_3  and  N1_4 
REMARK    3  A    between atoms: N1_4  and  C4_6 
REMARK    4  A    between atoms: C5_9  and  N3_10 
REMARK       I    between atoms: N3_10  and  C6_12 
REMARK    5  A    between atoms: C6_12  and  O2_14 
REMARK    6  A    between atoms: C8_16  and  N4_17 
REMARK    7  A    between atoms: N4_17  and  C9_19 
REMARK    8  A    between atoms: C9_19  and  C10_20 
REMARK    9  A    between atoms: C10_20  and  N5_21 
REMARK   10  A    between atoms: N6_25  and  C11_26 
REMARK   11  A    between atoms: C14_35  and  N10_36 
REMARK   12  A    between atoms: N10_36  and  C15_37 
REMARK   13  A    between atoms: N10_36  and  C17_39 
REMARK   14  A    between atoms: C19_43  and  N12_44 
ROOT
HETATM    1  C4  UNL     1      33.365  15.328  12.788  1.00  0.00     0.695 A 
HETATM    2  N2  UNL     1      33.577  14.964  11.491  1.00  0.00    -0.172 N 
ATOM      3  H2  UNL     1      32.861  14.426  11.003  1.00  0.00     0.186 HD
HETATM    4  C5  UNL     1      34.696  15.294  10.843  1.00  0.00     0.171 A 
HETATM    5  C8  UNL     1      35.704  16.048  11.511  1.00  0.00     0.174 A 
HETATM    6  N6  UNL     1      35.479  16.389  12.767  1.00  0.00    -0.204 N 
HETATM    7  N13 UNL     1      34.355  16.030  13.344  1.00  0.00    -0.122 N 
ATOM      8  H13 UNL     1      34.226  16.317  14.314  1.00  0.00     0.206 HD
ENDROOT
BRANCH   6   9
HETATM    9  C11 UNL     1      36.389  17.177  13.488  1.00  0.00     0.148 A 
HETATM   10  N7  UNL     1      37.098  16.535  14.458  1.00  0.00    -0.336 N 
HETATM   11  C12 UNL     1      37.998  17.204  15.163  1.00  0.00     0.183 A 
ATOM     12  H7  UNL     1      36.936  15.545  14.641  1.00  0.00     0.168 HD
HETATM   13  N8  UNL     1      38.264  18.504  14.977  1.00  0.00    -0.337 N 
HETATM   14  C13 UNL     1      37.588  19.170  14.031  1.00  0.00     0.139 A 
ATOM     15  H8  UNL     1      38.968  18.976  15.543  1.00  0.00     0.168 HD
HETATM   16  N9  UNL     1      37.808  20.481  13.807  1.00  0.00    -0.175 N 
HETATM   17  C20 UNL     1      36.633  18.508  13.268  1.00  0.00     0.099 A 
HETATM   18  C14 UNL     1      37.171  21.215  12.892  1.00  0.00     0.683 A 
ATOM     19  H9  UNL     1      38.512  20.946  14.378  1.00  0.00     0.186 HD
HETATM   20  N11 UNL     1      36.235  20.561  12.145  1.00  0.00    -0.176 N 
HETATM   21  C19 UNL     1      35.954  19.256  12.305  1.00  0.00     0.132 A 
ATOM     22  H11 UNL     1      35.725  21.084  11.434  1.00  0.00     0.186 HD
BRANCH  18  23
HETATM   23  N10 UNL     1      37.420  22.590  12.676  1.00  0.00    -0.218 N 
BRANCH  23  24
HETATM   24  C15 UNL     1      36.362  23.531  12.498  1.00  0.00     0.136 C 
HETATM   25  C16 UNL     1      35.728  23.984  13.804  1.00  0.00     0.027 C 
ENDBRANCH  23  24
BRANCH  23  26
HETATM   26  C17 UNL     1      38.790  23.040  12.635  1.00  0.00     0.136 C 
HETATM   27  C18 UNL     1      39.091  24.230  13.481  1.00  0.00     0.027 C 
ENDBRANCH  23  26
ENDBRANCH  18  23
BRANCH  21  28
HETATM   28  N12 UNL     1      35.066  18.671  11.592  1.00  0.00    -0.384 N 
ATOM     29 2H12 UNL     1      34.135  18.538  11.988  1.00  0.00     0.157 HD
ATOM     30 1H12 UNL     1      35.272  18.345  10.648  1.00  0.00     0.157 HD
ENDBRANCH  21  28
ENDBRANCH   6   9
BRANCH   5  31
HETATM   31  N4  UNL     1      36.681  16.305  10.823  1.00  0.00    -0.350 N 
ATOM     32  H4  UNL     1      37.493  16.018  11.371  1.00  0.00     0.166 HD
BRANCH  31  33
HETATM   33  C9  UNL     1      37.175  16.803   9.651  1.00  0.00     0.089 C 
BRANCH  33  34
HETATM   34  C10 UNL     1      36.369  17.954   9.042  1.00  0.00     0.274 C 
BRANCH  34  35
HETATM   35  N5  UNL     1      35.886  17.548   7.731  1.00  0.00    -0.075 N 
ATOM     36  H53 UNL     1      35.585  16.574   7.712  1.00  0.00     0.274 HD
ATOM     37  H52 UNL     1      34.991  17.977   7.495  1.00  0.00     0.274 HD
ATOM     38  H51 UNL     1      36.608  17.747   7.037  1.00  0.00     0.274 HD
ENDBRANCH  34  35
ENDBRANCH  33  34
ENDBRANCH  31  33
ENDBRANCH   5  31
BRANCH   4  39
HETATM   39  N3  UNL     1      34.853  14.928   9.619  1.00  0.00    -0.285 N 
HETATM   40  C6  UNL     1      33.765  14.992   8.710  1.00  0.00     0.365 C 
HETATM   41  O1  UNL     1      33.507  16.105   8.160  1.00  0.00    -0.238 OA
ATOM     42  H3  UNL     1      35.761  14.590   9.301  1.00  0.00     0.172 HD
BRANCH  40  43
HETATM   43  O2  UNL     1      32.975  13.902   8.401  1.00  0.00    -0.309 OA
HETATM   44  C7  UNL     1      32.097  13.946   7.277  1.00  0.00     0.215 C 
ENDBRANCH  40  43
ENDBRANCH   4  39
BRANCH   1  45
HETATM   45  N1  UNL     1      32.271  14.980  13.346  1.00  0.00    -0.225 N 
ATOM     46  H1  UNL     1      31.451  15.524  13.075  1.00  0.00     0.177 HD
BRANCH  45  47
HETATM   47  C3  UNL     1      32.028  13.948  14.286  1.00  0.00     0.138 C 
BRANCH  47  48
HETATM   48  C2  UNL     1      32.211  14.398  15.732  1.00  0.00     0.016 C 
HETATM   49  C1  UNL     1      33.492  13.808  16.261  1.00  0.00     0.006 C 
ENDBRANCH  47  48
ENDBRANCH  45  47
ENDBRANCH   1  45
TORSDOF 14
ENDMDL
MODEL 4
REMARK VINA RESULT: -2.224440365      0.760      1.132
REMARK  14 active torsions:
REMARK  status: ('A' for Active; 'I' for Inactive)
REMARK    1  A    between atoms: C2_2  and  C3_3 
REMARK    2  A    between atoms: C3_3  and  N1_4 
REMARK    3  A    between atoms: N1_4  and  C4_6 
REMARK    4  A    between atoms: C5_9  and  N3_10 
REMARK       I    between atoms: N3_10  and  C6_12 
REMARK    5  A    between atoms: C6_12  and  O2_14 
REMARK    6  A    between atoms: C8_16  and  N4_17 
REMARK    7  A    between atoms: N4_17  and  C9_19 
REMARK    8  A    between atoms: C9_19  and  C10_20 
REMARK    9  A    between atoms: C10_20  and  N5_21 
REMARK   10  A    between atoms: N6_25  and  C11_26 
REMARK   11  A    between atoms: C14_35  and  N10_36 
REMARK   12  A    between atoms: N10_36  and  C15_37 
REMARK   13  A    between atoms: N10_36  and  C17_39 
REMARK   14  A    between atoms: C19_43  and  N12_44 
ROOT
HETATM    1  C4  UNL     1      34.863  16.492   9.854  1.00  0.00     0.695 A 
HETATM    2  N2  UNL     1      33.902  15.577  10.168  1.00  0.00    -0.172 N 
ATOM      3  H2  UNL     1      33.407  15.099   9.416  1.00  0.00     0.186 HD
HETATM    4  C5  UNL     1      33.593  15.289  11.434  1.00  0.00     0.171 A 
HETATM    5  C8  UNL     1      34.277  15.948  12.497  1.00  0.00     0.174 A 
HETATM    6  N6  UNL     1      35.204  16.832  12.171  1.00  0.00    -0.204 N 
HETATM    7  N13 UNL     1      35.457  17.066  10.904  1.00  0.00    -0.122 N 
ATOM      8  H13 UNL     1      36.181  17.756  10.701  1.00  0.00     0.206 HD
ENDROOT
BRANCH   6   9
HETATM    9  C11 UNL     1      35.968  17.489  13.147  1.00  0.00     0.148 A 
HETATM   10  N7  UNL     1      36.291  16.753  14.247  1.00  0.00    -0.336 N 
HETATM   11  C12 UNL     1      37.035  17.293  15.200  1.00  0.00     0.183 A 
ATOM     12  H7  UNL     1      35.961  15.793  14.337  1.00  0.00     0.168 HD
HETATM   13  N8  UNL     1      37.504  18.547  15.150  1.00  0.00    -0.337 N 
HETATM   14  C13 UNL     1      37.208  19.303  14.084  1.00  0.00     0.139 A 
ATOM     15  H8  UNL     1      38.075  18.920  15.909  1.00  0.00     0.168 HD
HETATM   16  N9  UNL     1      37.644  20.574  13.984  1.00  0.00    -0.175 N 
HETATM   17  C20 UNL     1      36.429  18.776  13.060  1.00  0.00     0.099 A 
HETATM   18  C14 UNL     1      37.386  21.391  12.960  1.00  0.00     0.683 A 
ATOM     19  H9  UNL     1      38.214  20.938  14.746  1.00  0.00     0.186 HD
HETATM   20  N11 UNL     1      36.621  20.869  11.957  1.00  0.00    -0.176 N 
HETATM   21  C19 UNL     1      36.145  19.613  11.978  1.00  0.00     0.132 A 
ATOM     22  H11 UNL     1      36.400  21.460  11.156  1.00  0.00     0.186 HD
BRANCH  18  23
HETATM   23  N10 UNL     1      37.856  22.721  12.880  1.00  0.00    -0.218 N 
BRANCH  23  24
HETATM   24  C15 UNL     1      39.242  23.043  12.998  1.00  0.00     0.136 C 
HETATM   25  C16 UNL     1      39.496  24.477  13.435  1.00  0.00     0.027 C 
ENDBRANCH  23  24
BRANCH  23  26
HETATM   26  C17 UNL     1      36.894  23.776  12.674  1.00  0.00     0.136 C 
HETATM   27  C18 UNL     1      35.830  23.874  13.713  1.00  0.00     0.027 C 
ENDBRANCH  23  26
ENDBRANCH  18  23
BRANCH  21  28
HETATM   28  N12 UNL     1      35.425  19.155  11.024  1.00  0.00    -0.384 N 
ATOM     29 2H12 UNL     1      34.417  19.304  11.061  1.00  0.00     0.157 HD
ATOM     30 1H12 UNL     1      35.840  18.653  10.239  1.00  0.00     0.157 HD
ENDBRANCH  21  28
ENDBRANCH   6   9
BRANCH   5  31
HETATM   31  N4  UNL     1      33.925  15.603  13.615  1.00  0.00    -0.350 N 
ATOM     32  H4  UNL     1      33.776  16.464  14.140  1.00  0.00     0.166 HD
BRANCH  31  33
HETATM   33  C9  UNL     1      33.640  14.582  14.478  1.00  0.00     0.089 C 
BRANCH  33  34
HETATM   34  C10 UNL     1      32.225  14.600  15.062  1.00  0.00     0.274 C 
BRANCH  34  35
HETATM   35  N5  UNL     1      32.291  14.229  16.467  1.00  0.00    -0.075 N 
ATOM     36  H53 UNL     1      33.240  14.276  16.838  1.00  0.00     0.274 HD
ATOM     37  H52 UNL     1      31.867  14.930  17.075  1.00  0.00     0.274 HD
ATOM     38  H51 UNL     1      31.872  13.306  16.585  1.00  0.00     0.274 HD
ENDBRANCH  34  35
ENDBRANCH  33  34
ENDBRANCH  31  33
ENDBRANCH   5  31
BRANCH   4  39
HETATM   39  N3  UNL     1      32.677  14.419  11.683  1.00  0.00    -0.285 N 
HETATM   40  C6  UNL     1      32.791  13.100  11.172  1.00  0.00     0.365 C 
HETATM   41  O1  UNL     1      33.508  12.270  11.809  1.00  0.00    -0.238 OA
ATOM     42  H3  UNL     1      31.869  14.678  12.248  1.00  0.00     0.172 HD
BRANCH  40  43
HETATM   43  O2  UNL     1      32.160  12.681  10.018  1.00  0.00    -0.309 OA
HETATM   44  C7  UNL     1      32.603  13.151   8.745  1.00  0.00     0.215 C 
ENDBRANCH  40  43
ENDBRANCH   4  39
BRANCH   1  45
HETATM   45  N1  UNL     1      35.109  16.717   8.622  1.00  0.00    -0.225 N 
ATOM     46  H1  UNL     1      34.388  17.237   8.122  1.00  0.00     0.177 HD
BRANCH  45  47
HETATM   47  C3  UNL     1      36.237  16.351   7.849  1.00  0.00     0.138 C 
BRANCH  47  48
HETATM   48  C2  UNL     1      37.505  16.177   8.680  1.00  0.00     0.016 C 
HETATM   49  C1  UNL     1      37.363  14.935   9.520  1.00  0.00     0.006 C 
ENDBRANCH  47  48
ENDBRANCH  45  47
ENDBRANCH   1  45
TORSDOF 14
ENDMDL
MODEL 5
REMARK VINA RESULT: 0.165501033      1.340      1.942
REMARK  14 active torsions:
REMARK  status: ('A' for Active; 'I' for Inactive)
REMARK    1  A    between atoms: C2_2  and  C3_3 
REMARK    2  A    between atoms: C3_3  and  N1_4 
REMARK    3  A    between atoms: N1_4  and  C4_6 
REMARK    4  A    between atoms: C5_9  and  N3_10 
REMARK       I    between atoms: N3_10  and  C6_12 
REMARK    5  A    between atoms: C6_12  and  O2_14 
REMARK    6  A    between atoms: C8_16  and  N4_17 
REMARK    7  A    between atoms: N4_17  and  C9_19 
REMARK    8  A    between atoms: C9_19  and  C10_20 
REMARK    9  A    between atoms: C10_20  and  N5_21 
REMARK   10  A    between atoms: N6_25  and  C11_26 
REMARK   11  A    between atoms: C14_35  and  N10_36 
REMARK   12  A    between atoms: N10_36  and  C15_37 
REMARK   13  A    between atoms: N10_36  and  C17_39 
REMARK   14  A    between atoms: C19_43  and  N12_44 
ROOT
HETATM    1  C4  UNL     1      36.609  16.104   9.359  1.00  0.00     0.695 A 
HETATM    2  N2  UNL     1      35.375  15.536   9.251  1.00  0.00    -0.172 N 
ATOM      3  H2  UNL     1      35.140  15.015   8.406  1.00  0.00     0.186 HD
HETATM    4  C5  UNL     1      34.465  15.641  10.223  1.00  0.00     0.171 A 
HETATM    5  C8  UNL     1      34.779  16.363  11.410  1.00  0.00     0.174 A 
HETATM    6  N6  UNL     1      35.980  16.907  11.495  1.00  0.00    -0.204 N 
HETATM    7  N13 UNL     1      36.826  16.764  10.500  1.00  0.00    -0.122 N 
ATOM      8  H13 UNL     1      37.741  17.201  10.611  1.00  0.00     0.206 HD
ENDROOT
BRANCH   6   9
HETATM    9  C11 UNL     1      36.398  17.589  12.647  1.00  0.00     0.148 A 
HETATM   10  N7  UNL     1      36.447  16.853  13.792  1.00  0.00    -0.336 N 
HETATM   11  C12 UNL     1      36.860  17.417  14.916  1.00  0.00     0.183 A 
ATOM     12  H7  UNL     1      36.166  15.873  13.784  1.00  0.00     0.168 HD
HETATM   13  N8  UNL     1      37.244  18.698  15.002  1.00  0.00    -0.337 N 
HETATM   14  C13 UNL     1      37.211  19.455  13.897  1.00  0.00     0.139 A 
ATOM     15  H8  UNL     1      37.556  19.089  15.891  1.00  0.00     0.168 HD
HETATM   16  N9  UNL     1      37.577  20.752  13.926  1.00  0.00    -0.175 N 
HETATM   17  C20 UNL     1      36.783  18.904  12.695  1.00  0.00     0.099 A 
HETATM   18  C14 UNL     1      37.564  21.572  12.873  1.00  0.00     0.683 A 
ATOM     19  H9  UNL     1      37.887  21.135  14.818  1.00  0.00     0.186 HD
HETATM   20  N11 UNL     1      37.144  21.026  11.695  1.00  0.00    -0.176 N 
HETATM   21  C19 UNL     1      36.761  19.743  11.579  1.00  0.00     0.132 A 
ATOM     22  H11 UNL     1      37.119  21.618  10.865  1.00  0.00     0.186 HD
BRANCH  18  23
HETATM   23  N10 UNL     1      37.953  22.930  12.930  1.00  0.00    -0.218 N 
BRANCH  23  24
HETATM   24  C15 UNL     1      37.003  23.992  12.850  1.00  0.00     0.136 C 
HETATM   25  C16 UNL     1      35.691  23.686  13.554  1.00  0.00     0.027 C 
ENDBRANCH  23  24
BRANCH  23  26
HETATM   26  C17 UNL     1      39.356  23.236  13.071  1.00  0.00     0.136 C 
HETATM   27  C18 UNL     1      39.661  24.638  13.473  1.00  0.00     0.027 C 
ENDBRANCH  23  26
ENDBRANCH  18  23
BRANCH  21  28
HETATM   28  N12 UNL     1      36.366  19.261  10.460  1.00  0.00    -0.384 N 
ATOM     29 2H12 UNL     1      36.783  19.621   9.602  1.00  0.00     0.157 HD
ATOM     30 1H12 UNL     1      35.655  18.532  10.417  1.00  0.00     0.157 HD
ENDBRANCH  21  28
ENDBRANCH   6   9
BRANCH   5  31
HETATM   31  N4  UNL     1      33.881  16.389  12.238  1.00  0.00    -0.350 N 
ATOM     32  H4  UNL     1      33.158  16.994  11.849  1.00  0.00     0.166 HD
BRANCH  31  33
HETATM   33  C9  UNL     1      33.409  15.971  13.450  1.00  0.00     0.089 C 
BRANCH  33  34
HETATM   34  C10 UNL     1      33.055  14.483  13.533  1.00  0.00     0.274 C 
BRANCH  34  35
HETATM   35  N5  UNL     1      32.355  14.235  14.785  1.00  0.00    -0.075 N 
ATOM     36  H53 UNL     1      32.327  15.059  15.385  1.00  0.00     0.274 HD
ATOM     37  H52 UNL     1      31.350  14.121  14.654  1.00  0.00     0.274 HD
ATOM     38  H51 UNL     1      32.781  13.431  15.247  1.00  0.00     0.274 HD
ENDBRANCH  34  35
ENDBRANCH  33  34
ENDBRANCH  31  33
ENDBRANCH   5  31
BRANCH   4  39
HETATM   39  N3  UNL     1      33.312  15.088  10.076  1.00  0.00    -0.285 N 
HETATM   40  C6  UNL     1      33.218  13.713   9.738  1.00  0.00     0.365 C 
HETATM   41  O1  UNL     1      33.314  12.859  10.669  1.00  0.00    -0.238 OA
ATOM     42  H3  UNL     1      32.463  15.640  10.202  1.00  0.00     0.172 HD
BRANCH  40  43
HETATM   43  O2  UNL     1      33.030  13.265   8.445  1.00  0.00    -0.309 OA
HETATM   44  C7  UNL     1      32.452  14.124   7.463  1.00  0.00     0.215 C 
ENDBRANCH  40  43
ENDBRANCH   4  39
BRANCH   1  45
HETATM   45  N1  UNL     1      37.431  15.962   8.393  1.00  0.00    -0.225 N 
ATOM     46  H1  UNL     1      37.262  15.154   7.793  1.00  0.00     0.177 HD
BRANCH  45  47
HETATM   47  C3  UNL     1      38.542  16.762   8.032  1.00  0.00     0.138 C 
BRANCH  47  48
HETATM   48  C2  UNL     1      39.872  16.207   8.534  1.00  0.00     0.016 C 
HETATM   49  C1  UNL     1      40.916  16.422   7.469  1.00  0.00     0.006 C 
ENDBRANCH  47  48
ENDBRANCH  45  47
ENDBRANCH   1  45
TORSDOF 14
ENDMDL
