MODEL 1
REMARK VINA RESULT: -9.261360871      0.000      0.000
REMARK  13 active torsions:
REMARK  status: ('A' for Active; 'I' for Inactive)
REMARK    1  A    between atoms: C4_7  and  N3_8 
REMARK    2  A    between atoms: N3_8  and  C5_10 
REMARK    3  A    between atoms: N6_20  and  C11_21 
REMARK    4  A    between atoms: C11_21  and  C12_22 
REMARK    5  A    between atoms: C12_22  and  N7_23 
REMARK    6  A    between atoms: N7_23  and  C13_25 
REMARK    7  A    between atoms: C13_25  and  C14_26 
REMARK    8  A    between atoms: C14_26  and  O1_27 
REMARK    9  A    between atoms: O1_27  and  C15_28 
REMARK   10  A    between atoms: N9_30  and  N10_32 
REMARK   11  A    between atoms: C16_34  and  C17_35 
REMARK   12  A    between atoms: C20_38  and  O2_39 
REMARK   13  A    between atoms: C21_41  and  O3_42 
ROOT
HETATM    1  C12 UNL     1      37.542  23.810  12.996  1.00  0.00     0.134 C 
ENDROOT
BRANCH   1   2
HETATM    2  C11 UNL     1      38.815  24.340  13.537  1.00  0.00     0.149 C 
BRANCH   2   3
HETATM    3  N6  UNL     1      39.377  25.448  12.787  1.00  0.00    -0.341 N 
HETATM    4  C7  UNL     1      40.605  25.979  12.864  1.00  0.00     0.122 A 
HETATM    5  N5  UNL     1      41.638  25.649  13.641  1.00  0.00    -0.338 N 
HETATM    6  C8  UNL     1      40.776  27.025  11.982  1.00  0.00     0.054 A 
HETATM    7  C6  UNL     1      42.796  26.328  13.549  1.00  0.00     0.183 A 
ATOM      8  H5  UNL     1      41.550  24.880  14.306  1.00  0.00     0.168 HD
HETATM    9  N4  UNL     1      42.990  27.352  12.698  1.00  0.00    -0.337 N 
HETATM   10  C5  UNL     1      41.963  27.717  11.893  1.00  0.00     0.136 A 
ATOM     11  H4  UNL     1      43.884  27.840  12.662  1.00  0.00     0.168 HD
HETATM   12  C9  UNL     1      39.560  27.136  11.323  1.00  0.00     0.036 A 
HETATM   13  C10 UNL     1      38.731  26.159  11.838  1.00  0.00     0.094 A 
BRANCH  10  14
HETATM   14  N3  UNL     1      42.127  28.694  11.067  1.00  0.00    -0.176 N 
ATOM     15  H3  UNL     1      41.775  29.618  11.317  1.00  0.00     0.186 HD
BRANCH  14  16
HETATM   16  C4  UNL     1      42.785  28.518   9.817  1.00  0.00     0.677 C 
HETATM   17  N1  UNL     1      42.397  29.130   8.599  1.00  0.00    -0.221 N 
HETATM   18  C1  UNL     1      41.096  29.663   8.224  1.00  0.00     0.168 C 
HETATM   19  C2  UNL     1      43.576  29.132   7.754  1.00  0.00     0.161 C 
HETATM   20  C3  UNL     1      44.234  27.831   8.225  1.00  0.00     0.158 C 
HETATM   21  N2  UNL     1      43.818  27.780   9.629  1.00  0.00    -0.225 N 
ATOM     22  H2  UNL     1      44.284  27.235  10.354  1.00  0.00     0.177 HD
ENDBRANCH  14  16
ENDBRANCH  10  14
ENDBRANCH   2   3
ENDBRANCH   1   2
BRANCH   1  23
HETATM   23  N7  UNL     1      37.217  22.456  13.299  1.00  0.00    -0.418 N 
ATOM     24  H7  UNL     1      36.819  22.183  14.197  1.00  0.00     0.153 HD
BRANCH  23  25
HETATM   25  C13 UNL     1      37.482  21.512  12.274  1.00  0.00     0.140 C 
BRANCH  25  26
HETATM   26  C14 UNL     1      36.833  20.172  12.538  1.00  0.00     0.197 C 
BRANCH  26  27
HETATM   27  O1  UNL     1      35.927  19.807  11.501  1.00  0.00    -0.322 OA
BRANCH  27  28
HETATM   28  C15 UNL     1      36.065  18.606  10.817  1.00  0.00     0.246 C 
HETATM   29  N8  UNL     1      37.308  18.013  10.586  1.00  0.00    -0.055 NA
HETATM   30  N9  UNL     1      34.965  18.054  10.397  1.00  0.00    -0.268 N 
ATOM     31  H9  UNL     1      34.072  18.509  10.582  1.00  0.00     0.190 HD
BRANCH  30  32
HETATM   32  N10 UNL     1      34.989  16.885   9.720  1.00  0.00    -0.308 N 
HETATM   33  C16 UNL     1      34.633  15.710   9.957  1.00  0.00     0.118 C 
ATOM     34  H10 UNL     1      35.395  16.986   8.790  1.00  0.00     0.186 HD
BRANCH  33  35
HETATM   35  C17 UNL     1      34.026  15.141  11.125  1.00  0.00    -0.017 A 
HETATM   36  C18 UNL     1      34.069  15.851  12.321  1.00  0.00     0.016 A 
HETATM   37  C19 UNL     1      33.510  15.379  13.488  1.00  0.00     0.040 A 
HETATM   38  C20 UNL     1      32.877  14.158  13.505  1.00  0.00     0.098 A 
HETATM   39  C21 UNL     1      32.813  13.422  12.344  1.00  0.00     0.099 A 
HETATM   40  C22 UNL     1      33.386  13.926  11.182  1.00  0.00     0.052 A 
BRANCH  38  41
HETATM   41  O2  UNL     1      32.321  13.701  14.689  1.00  0.00    -0.358 OA
ATOM     42  H2  UNL     1      31.884  12.858  14.702  1.00  0.00     0.217 HD
ENDBRANCH  38  41
BRANCH  39  43
HETATM   43  O3  UNL     1      32.179  12.207  12.370  1.00  0.00    -0.358 OA
ATOM     44  H3  UNL     1      31.573  11.993  11.670  1.00  0.00     0.217 HD
ENDBRANCH  39  43
ENDBRANCH  33  35
ENDBRANCH  30  32
ENDBRANCH  27  28
ENDBRANCH  26  27
ENDBRANCH  25  26
ENDBRANCH  23  25
ENDBRANCH   1  23
TORSDOF 13
ENDMDL
MODEL 2
REMARK VINA RESULT: -9.232890163      1.343      2.283
REMARK  13 active torsions:
REMARK  status: ('A' for Active; 'I' for Inactive)
REMARK    1  A    between atoms: C4_7  and  N3_8 
REMARK    2  A    between atoms: N3_8  and  C5_10 
REMARK    3  A    between atoms: N6_20  and  C11_21 
REMARK    4  A    between atoms: C11_21  and  C12_22 
REMARK    5  A    between atoms: C12_22  and  N7_23 
REMARK    6  A    between atoms: N7_23  and  C13_25 
REMARK    7  A    between atoms: C13_25  and  C14_26 
REMARK    8  A    between atoms: C14_26  and  O1_27 
REMARK    9  A    between atoms: O1_27  and  C15_28 
REMARK   10  A    between atoms: N9_30  and  N10_32 
REMARK   11  A    between atoms: C16_34  and  C17_35 
REMARK   12  A    between atoms: C20_38  and  O2_39 
REMARK   13  A    between atoms: C21_41  and  O3_42 
ROOT
HETATM    1  C12 UNL     1      37.531  22.854  13.340  1.00  0.00     0.134 C 
ENDROOT
BRANCH   1   2
HETATM    2  C11 UNL     1      37.528  24.288  12.967  1.00  0.00     0.149 C 
BRANCH   2   3
HETATM    3  N6  UNL     1      38.842  24.899  12.899  1.00  0.00    -0.341 N 
HETATM    4  C7  UNL     1      39.217  26.021  12.268  1.00  0.00     0.122 A 
HETATM    5  N5  UNL     1      38.501  26.875  11.535  1.00  0.00    -0.338 N 
HETATM    6  C8  UNL     1      40.558  26.289  12.437  1.00  0.00     0.054 A 
HETATM    7  C6  UNL     1      39.091  27.955  10.989  1.00  0.00     0.183 A 
ATOM      8  H5  UNL     1      37.505  26.711  11.388  1.00  0.00     0.168 HD
HETATM    9  N4  UNL     1      40.397  28.240  11.137  1.00  0.00    -0.337 N 
HETATM   10  C5  UNL     1      41.157  27.395  11.875  1.00  0.00     0.136 A 
ATOM     11  H4  UNL     1      40.804  29.069  10.704  1.00  0.00     0.168 HD
HETATM   12  C9  UNL     1      41.031  25.251  13.227  1.00  0.00     0.036 A 
HETATM   13  C10 UNL     1      39.959  24.423  13.491  1.00  0.00     0.094 A 
BRANCH  10  14
HETATM   14  N3  UNL     1      42.411  27.650  12.033  1.00  0.00    -0.176 N 
ATOM     15  H3  UNL     1      42.698  28.283  12.778  1.00  0.00     0.186 HD
BRANCH  14  16
HETATM   16  C4  UNL     1      43.406  27.071  11.195  1.00  0.00     0.677 C 
HETATM   17  N1  UNL     1      44.313  26.055  11.588  1.00  0.00    -0.221 N 
HETATM   18  C1  UNL     1      44.752  25.700  12.928  1.00  0.00     0.168 C 
HETATM   19  C2  UNL     1      44.746  25.405  10.366  1.00  0.00     0.161 C 
HETATM   20  C3  UNL     1      44.708  26.601   9.408  1.00  0.00     0.158 C 
HETATM   21  N2  UNL     1      43.612  27.394   9.969  1.00  0.00    -0.225 N 
ATOM     22  H2  UNL     1      43.086  28.103   9.458  1.00  0.00     0.177 HD
ENDBRANCH  14  16
ENDBRANCH  10  14
ENDBRANCH   2   3
ENDBRANCH   1   2
BRANCH   1  23
HETATM   23  N7  UNL     1      37.292  21.909  12.301  1.00  0.00    -0.418 N 
ATOM     24  H7  UNL     1      36.901  22.183  11.400  1.00  0.00     0.153 HD
BRANCH  23  25
HETATM   25  C13 UNL     1      37.631  20.564  12.597  1.00  0.00     0.140 C 
BRANCH  25  26
HETATM   26  C14 UNL     1      36.453  19.626  12.467  1.00  0.00     0.197 C 
BRANCH  26  27
HETATM   27  O1  UNL     1      36.046  19.467  11.111  1.00  0.00    -0.322 OA
BRANCH  27  28
HETATM   28  C15 UNL     1      36.092  18.225  10.489  1.00  0.00     0.246 C 
HETATM   29  N8  UNL     1      37.285  17.525  10.298  1.00  0.00    -0.055 NA
HETATM   30  N9  UNL     1      34.953  17.740  10.091  1.00  0.00    -0.268 N 
ATOM     31  H9  UNL     1      34.098  18.273  10.246  1.00  0.00     0.190 HD
BRANCH  30  32
HETATM   32  N10 UNL     1      34.886  16.540   9.474  1.00  0.00    -0.308 N 
HETATM   33  C16 UNL     1      34.490  15.397   9.789  1.00  0.00     0.118 C 
ATOM     34  H10 UNL     1      35.247  16.575   8.521  1.00  0.00     0.186 HD
BRANCH  33  35
HETATM   35  C17 UNL     1      33.920  14.915  11.013  1.00  0.00    -0.017 A 
HETATM   36  C18 UNL     1      34.038  15.691  12.163  1.00  0.00     0.016 A 
HETATM   37  C19 UNL     1      33.518  15.305  13.378  1.00  0.00     0.040 A 
HETATM   38  C20 UNL     1      32.851  14.109  13.495  1.00  0.00     0.098 A 
HETATM   39  C21 UNL     1      32.712  13.310  12.383  1.00  0.00     0.099 A 
HETATM   40  C22 UNL     1      33.247  13.727  11.170  1.00  0.00     0.052 A 
BRANCH  38  41
HETATM   41  O2  UNL     1      32.335  13.739  14.727  1.00  0.00    -0.358 OA
ATOM     42  H2  UNL     1      31.950  12.877  14.829  1.00  0.00     0.217 HD
ENDBRANCH  38  41
BRANCH  39  43
HETATM   43  O3  UNL     1      32.044  12.119  12.508  1.00  0.00    -0.358 OA
ATOM     44  H3  UNL     1      31.104  12.136  12.644  1.00  0.00     0.217 HD
ENDBRANCH  39  43
ENDBRANCH  33  35
ENDBRANCH  30  32
ENDBRANCH  27  28
ENDBRANCH  26  27
ENDBRANCH  25  26
ENDBRANCH  23  25
ENDBRANCH   1  23
TORSDOF 13
ENDMDL
MODEL 3
REMARK VINA RESULT: -8.967459208      1.548      2.687
REMARK  13 active torsions:
REMARK  status: ('A' for Active; 'I' for Inactive)
REMARK    1  A    between atoms: C4_7  and  N3_8 
REMARK    2  A    between atoms: N3_8  and  C5_10 
REMARK    3  A    between atoms: N6_20  and  C11_21 
REMARK    4  A    between atoms: C11_21  and  C12_22 
REMARK    5  A    between atoms: C12_22  and  N7_23 
REMARK    6  A    between atoms: N7_23  and  C13_25 
REMARK    7  A    between atoms: C13_25  and  C14_26 
REMARK    8  A    between atoms: C14_26  and  O1_27 
REMARK    9  A    between atoms: O1_27  and  C15_28 
REMARK   10  A    between atoms: N9_30  and  N10_32 
REMARK   11  A    between atoms: C16_34  and  C17_35 
REMARK   12  A    between atoms: C20_38  and  O2_39 
REMARK   13  A    between atoms: C21_41  and  O3_42 
ROOT
HETATM    1  C12 UNL     1      37.364  22.652  13.304  1.00  0.00     0.134 C 
ENDROOT
BRANCH   1   2
HETATM    2  C11 UNL     1      37.342  24.099  12.983  1.00  0.00     0.149 C 
BRANCH   2   3
HETATM    3  N6  UNL     1      38.648  24.728  12.935  1.00  0.00    -0.341 N 
HETATM    4  C7  UNL     1      39.024  25.838  12.283  1.00  0.00     0.122 A 
HETATM    5  N5  UNL     1      38.317  26.660  11.506  1.00  0.00    -0.338 N 
HETATM    6  C8  UNL     1      40.356  26.132  12.482  1.00  0.00     0.054 A 
HETATM    7  C6  UNL     1      38.906  27.732  10.946  1.00  0.00     0.183 A 
ATOM      8  H5  UNL     1      37.328  26.475  11.336  1.00  0.00     0.168 HD
HETATM    9  N4  UNL     1      40.203  28.042  11.122  1.00  0.00    -0.337 N 
HETATM   10  C5  UNL     1      40.954  27.230  11.905  1.00  0.00     0.136 A 
ATOM     11  H4  UNL     1      40.610  28.864  10.678  1.00  0.00     0.168 HD
HETATM   12  C9  UNL     1      40.821  25.124  13.315  1.00  0.00     0.036 A 
HETATM   13  C10 UNL     1      39.755  24.286  13.571  1.00  0.00     0.094 A 
BRANCH  10  14
HETATM   14  N3  UNL     1      42.199  27.509  12.091  1.00  0.00    -0.176 N 
ATOM     15  H3  UNL     1      42.453  28.191  12.805  1.00  0.00     0.186 HD
BRANCH  14  16
HETATM   16  C4  UNL     1      43.228  26.891  11.326  1.00  0.00     0.677 C 
HETATM   17  N1  UNL     1      44.149  25.933  11.821  1.00  0.00    -0.221 N 
HETATM   18  C1  UNL     1      44.560  25.696  13.196  1.00  0.00     0.168 C 
HETATM   19  C2  UNL     1      44.629  25.199  10.666  1.00  0.00     0.161 C 
HETATM   20  C3  UNL     1      44.588  26.314   9.616  1.00  0.00     0.158 C 
HETATM   21  N2  UNL     1      43.459  27.121  10.085  1.00  0.00    -0.225 N 
ATOM     22  H2  UNL     1      42.931  27.774   9.505  1.00  0.00     0.177 HD
ENDBRANCH  14  16
ENDBRANCH  10  14
ENDBRANCH   2   3
ENDBRANCH   1   2
BRANCH   1  23
HETATM   23  N7  UNL     1      37.244  21.741  12.215  1.00  0.00    -0.418 N 
ATOM     24  H7  UNL     1      36.983  22.048  11.279  1.00  0.00     0.153 HD
BRANCH  23  25
HETATM   25  C13 UNL     1      37.509  20.380  12.515  1.00  0.00     0.140 C 
BRANCH  25  26
HETATM   26  C14 UNL     1      36.464  19.447  11.948  1.00  0.00     0.197 C 
BRANCH  26  27
HETATM   27  O1  UNL     1      36.575  19.320  10.533  1.00  0.00    -0.322 OA
BRANCH  27  28
HETATM   28  C15 UNL     1      36.516  18.076   9.917  1.00  0.00     0.246 C 
HETATM   29  N8  UNL     1      37.553  17.145  10.006  1.00  0.00    -0.055 NA
HETATM   30  N9  UNL     1      35.433  17.819   9.245  1.00  0.00    -0.268 N 
ATOM     31  H9  UNL     1      34.691  18.517   9.199  1.00  0.00     0.190 HD
BRANCH  30  32
HETATM   32  N10 UNL     1      35.275  16.638   8.607  1.00  0.00    -0.308 N 
HETATM   33  C16 UNL     1      34.806  15.518   8.907  1.00  0.00     0.118 C 
ATOM     34  H10 UNL     1      35.622  16.668   7.648  1.00  0.00     0.186 HD
BRANCH  33  35
HETATM   35  C17 UNL     1      34.225  15.052  10.132  1.00  0.00    -0.017 A 
HETATM   36  C18 UNL     1      33.613  13.802  10.155  1.00  0.00     0.016 A 
HETATM   37  C19 UNL     1      33.033  13.278  11.289  1.00  0.00     0.040 A 
HETATM   38  C20 UNL     1      33.041  13.994  12.462  1.00  0.00     0.098 A 
HETATM   39  C21 UNL     1      33.635  15.235  12.484  1.00  0.00     0.099 A 
HETATM   40  C22 UNL     1      34.212  15.737  11.323  1.00  0.00     0.052 A 
BRANCH  38  41
HETATM   41  O2  UNL     1      32.451  13.449  13.592  1.00  0.00    -0.358 OA
ATOM     42  H2  UNL     1      32.980  12.932  14.188  1.00  0.00     0.217 HD
ENDBRANCH  38  41
BRANCH  39  43
HETATM   43  O3  UNL     1      33.639  15.942  13.659  1.00  0.00    -0.358 OA
ATOM     44  H3  UNL     1      33.825  16.873  13.630  1.00  0.00     0.217 HD
ENDBRANCH  39  43
ENDBRANCH  33  35
ENDBRANCH  30  32
ENDBRANCH  27  28
ENDBRANCH  26  27
ENDBRANCH  25  26
ENDBRANCH  23  25
ENDBRANCH   1  23
TORSDOF 13
ENDMDL
MODEL 4
REMARK VINA RESULT: -8.946727984      1.603      2.196
REMARK  13 active torsions:
REMARK  status: ('A' for Active; 'I' for Inactive)
REMARK    1  A    between atoms: C4_7  and  N3_8 
REMARK    2  A    between atoms: N3_8  and  C5_10 
REMARK    3  A    between atoms: N6_20  and  C11_21 
REMARK    4  A    between atoms: C11_21  and  C12_22 
REMARK    5  A    between atoms: C12_22  and  N7_23 
REMARK    6  A    between atoms: N7_23  and  C13_25 
REMARK    7  A    between atoms: C13_25  and  C14_26 
REMARK    8  A    between atoms: C14_26  and  O1_27 
REMARK    9  A    between atoms: O1_27  and  C15_28 
REMARK   10  A    between atoms: N9_30  and  N10_32 
REMARK   11  A    between atoms: C16_34  and  C17_35 
REMARK   12  A    between atoms: C20_38  and  O2_39 
REMARK   13  A    between atoms: C21_41  and  O3_42 
ROOT
HETATM    1  C12 UNL     1      37.574  23.844  13.019  1.00  0.00     0.134 C 
ENDROOT
BRANCH   1   2
HETATM    2  C11 UNL     1      38.862  24.367  13.534  1.00  0.00     0.149 C 
BRANCH   2   3
HETATM    3  N6  UNL     1      39.406  25.481  12.781  1.00  0.00    -0.341 N 
HETATM    4  C7  UNL     1      40.630  26.025  12.849  1.00  0.00     0.122 A 
HETATM    5  N5  UNL     1      41.672  25.703  13.617  1.00  0.00    -0.338 N 
HETATM    6  C8  UNL     1      40.783  27.074  11.968  1.00  0.00     0.054 A 
HETATM    7  C6  UNL     1      42.823  26.393  13.516  1.00  0.00     0.183 A 
ATOM      8  H5  UNL     1      41.597  24.932  14.281  1.00  0.00     0.168 HD
HETATM    9  N4  UNL     1      42.999  27.421  12.666  1.00  0.00    -0.337 N 
HETATM   10  C5  UNL     1      41.963  27.777  11.870  1.00  0.00     0.136 A 
ATOM     11  H4  UNL     1      43.889  27.918  12.623  1.00  0.00     0.168 HD
HETATM   12  C9  UNL     1      39.560  27.174  11.319  1.00  0.00     0.036 A 
HETATM   13  C10 UNL     1      38.745  26.188  11.839  1.00  0.00     0.094 A 
BRANCH  10  14
HETATM   14  N3  UNL     1      42.110  28.758  11.045  1.00  0.00    -0.176 N 
ATOM     15  H3  UNL     1      41.741  29.675  11.294  1.00  0.00     0.186 HD
BRANCH  14  16
HETATM   16  C4  UNL     1      42.772  28.594   9.796  1.00  0.00     0.677 C 
HETATM   17  N1  UNL     1      42.389  29.218   8.582  1.00  0.00    -0.221 N 
HETATM   18  C1  UNL     1      41.089  29.754   8.208  1.00  0.00     0.168 C 
HETATM   19  C2  UNL     1      43.571  29.228   7.742  1.00  0.00     0.161 C 
HETATM   20  C3  UNL     1      44.227  27.922   8.202  1.00  0.00     0.158 C 
HETATM   21  N2  UNL     1      43.806  27.858   9.604  1.00  0.00    -0.225 N 
ATOM     22  H2  UNL     1      44.270  27.306  10.326  1.00  0.00     0.177 HD
ENDBRANCH  14  16
ENDBRANCH  10  14
ENDBRANCH   2   3
ENDBRANCH   1   2
BRANCH   1  23
HETATM   23  N7  UNL     1      37.182  22.542  13.444  1.00  0.00    -0.418 N 
ATOM     24  H7  UNL     1      36.552  22.397  14.232  1.00  0.00     0.153 HD
BRANCH  23  25
HETATM   25  C13 UNL     1      37.722  21.461  12.702  1.00  0.00     0.140 C 
BRANCH  25  26
HETATM   26  C14 UNL     1      36.938  21.172  11.442  1.00  0.00     0.197 C 
BRANCH  26  27
HETATM   27  O1  UNL     1      36.702  19.778  11.270  1.00  0.00    -0.322 OA
BRANCH  27  28
HETATM   28  C15 UNL     1      35.784  19.101  12.064  1.00  0.00     0.246 C 
HETATM   29  N8  UNL     1      34.532  19.632  12.382  1.00  0.00    -0.055 NA
HETATM   30  N9  UNL     1      36.153  17.934  12.501  1.00  0.00    -0.268 N 
ATOM     31  H9  UNL     1      37.073  17.571  12.251  1.00  0.00     0.190 HD
BRANCH  30  32
HETATM   32  N10 UNL     1      35.336  17.194  13.282  1.00  0.00    -0.308 N 
HETATM   33  C16 UNL     1      34.540  16.248  13.095  1.00  0.00     0.118 C 
ATOM     34  H10 UNL     1      35.378  17.475  14.262  1.00  0.00     0.186 HD
BRANCH  33  35
HETATM   35  C17 UNL     1      34.183  15.558  11.889  1.00  0.00    -0.017 A 
HETATM   36  C18 UNL     1      33.546  14.324  11.982  1.00  0.00     0.016 A 
HETATM   37  C19 UNL     1      33.168  13.597  10.875  1.00  0.00     0.040 A 
HETATM   38  C20 UNL     1      33.415  14.082   9.613  1.00  0.00     0.098 A 
HETATM   39  C21 UNL     1      34.044  15.299   9.476  1.00  0.00     0.099 A 
HETATM   40  C22 UNL     1      34.413  16.009  10.612  1.00  0.00     0.052 A 
BRANCH  38  41
HETATM   41  O2  UNL     1      33.026  13.335   8.512  1.00  0.00    -0.358 OA
ATOM     42  H2  UNL     1      33.037  13.736   7.652  1.00  0.00     0.217 HD
ENDBRANCH  38  41
BRANCH  39  43
HETATM   43  O3  UNL     1      34.286  15.775   8.213  1.00  0.00    -0.358 OA
ATOM     44  H3  UNL     1      35.166  15.708   7.862  1.00  0.00     0.217 HD
ENDBRANCH  39  43
ENDBRANCH  33  35
ENDBRANCH  30  32
ENDBRANCH  27  28
ENDBRANCH  26  27
ENDBRANCH  25  26
ENDBRANCH  23  25
ENDBRANCH   1  23
TORSDOF 13
ENDMDL
MODEL 5
REMARK VINA RESULT: -8.849328216      1.321      2.325
REMARK  13 active torsions:
REMARK  status: ('A' for Active; 'I' for Inactive)
REMARK    1  A    between atoms: C4_7  and  N3_8 
REMARK    2  A    between atoms: N3_8  and  C5_10 
REMARK    3  A    between atoms: N6_20  and  C11_21 
REMARK    4  A    between atoms: C11_21  and  C12_22 
REMARK    5  A    between atoms: C12_22  and  N7_23 
REMARK    6  A    between atoms: N7_23  and  C13_25 
REMARK    7  A    between atoms: C13_25  and  C14_26 
REMARK    8  A    between atoms: C14_26  and  O1_27 
REMARK    9  A    between atoms: O1_27  and  C15_28 
REMARK   10  A    between atoms: N9_30  and  N10_32 
REMARK   11  A    between atoms: C16_34  and  C17_35 
REMARK   12  A    between atoms: C20_38  and  O2_39 
REMARK   13  A    between atoms: C21_41  and  O3_42 
ROOT
HETATM    1  C12 UNL     1      37.393  22.775  13.271  1.00  0.00     0.134 C 
ENDROOT
BRANCH   1   2
HETATM    2  C11 UNL     1      37.414  24.227  12.974  1.00  0.00     0.149 C 
BRANCH   2   3
HETATM    3  N6  UNL     1      38.740  24.807  12.883  1.00  0.00    -0.341 N 
HETATM    4  C7  UNL     1      39.125  25.938  12.274  1.00  0.00     0.122 A 
HETATM    5  N5  UNL     1      38.409  26.831  11.589  1.00  0.00    -0.338 N 
HETATM    6  C8  UNL     1      40.477  26.168  12.409  1.00  0.00     0.054 A 
HETATM    7  C6  UNL     1      39.010  27.911  11.057  1.00  0.00     0.183 A 
ATOM      8  H5  UNL     1      37.405  26.696  11.468  1.00  0.00     0.168 HD
HETATM    9  N4  UNL     1      40.327  28.160  11.172  1.00  0.00    -0.337 N 
HETATM   10  C5  UNL     1      41.087  27.275  11.861  1.00  0.00     0.136 A 
ATOM     11  H4  UNL     1      40.742  28.991  10.752  1.00  0.00     0.168 HD
HETATM   12  C9  UNL     1      40.947  25.095  13.154  1.00  0.00     0.036 A 
HETATM   13  C10 UNL     1      39.863  24.286  13.426  1.00  0.00     0.094 A 
BRANCH  10  14
HETATM   14  N3  UNL     1      42.351  27.494  11.987  1.00  0.00    -0.176 N 
ATOM     15  H3  UNL     1      42.678  28.092  12.746  1.00  0.00     0.186 HD
BRANCH  14  16
HETATM   16  C4  UNL     1      43.304  26.923  11.097  1.00  0.00     0.677 C 
HETATM   17  N1  UNL     1      43.826  27.561   9.944  1.00  0.00    -0.221 N 
HETATM   18  C1  UNL     1      43.251  28.651   9.171  1.00  0.00     0.168 C 
HETATM   19  C2  UNL     1      45.089  26.908   9.657  1.00  0.00     0.161 C 
HETATM   20  C3  UNL     1      44.761  25.489  10.133  1.00  0.00     0.158 C 
HETATM   21  N2  UNL     1      43.817  25.753  11.222  1.00  0.00    -0.225 N 
ATOM     22  H2  UNL     1      43.599  25.099  11.973  1.00  0.00     0.177 HD
ENDBRANCH  14  16
ENDBRANCH  10  14
ENDBRANCH   2   3
ENDBRANCH   1   2
BRANCH   1  23
HETATM   23  N7  UNL     1      37.019  21.898  12.213  1.00  0.00    -0.418 N 
ATOM     24  H7  UNL     1      36.371  22.182  11.479  1.00  0.00     0.153 HD
BRANCH  23  25
HETATM   25  C13 UNL     1      37.603  20.607  12.244  1.00  0.00     0.140 C 
BRANCH  25  26
HETATM   26  C14 UNL     1      37.417  19.917  13.577  1.00  0.00     0.197 C 
BRANCH  26  27
HETATM   27  O1  UNL     1      36.346  18.979  13.546  1.00  0.00    -0.322 OA
BRANCH  27  28
HETATM   28  C15 UNL     1      35.688  18.679  12.359  1.00  0.00     0.246 C 
HETATM   29  N8  UNL     1      34.593  19.415  11.902  1.00  0.00    -0.055 NA
HETATM   30  N9  UNL     1      36.150  17.667  11.686  1.00  0.00    -0.268 N 
ATOM     31  H9  UNL     1      36.952  17.149  12.044  1.00  0.00     0.190 HD
BRANCH  30  32
HETATM   32  N10 UNL     1      35.583  17.291  10.519  1.00  0.00    -0.308 N 
HETATM   33  C16 UNL     1      34.760  16.417  10.169  1.00  0.00     0.118 C 
ATOM     34  H10 UNL     1      35.903  17.857   9.733  1.00  0.00     0.186 HD
BRANCH  33  35
HETATM   35  C17 UNL     1      34.072  15.425  10.942  1.00  0.00    -0.017 A 
HETATM   36  C18 UNL     1      33.700  14.232  10.330  1.00  0.00     0.016 A 
HETATM   37  C19 UNL     1      33.039  13.226  11.000  1.00  0.00     0.040 A 
HETATM   38  C20 UNL     1      32.718  13.376  12.328  1.00  0.00     0.098 A 
HETATM   39  C21 UNL     1      33.068  14.541  12.972  1.00  0.00     0.099 A 
HETATM   40  C22 UNL     1      33.734  15.538  12.269  1.00  0.00     0.052 A 
BRANCH  38  41
HETATM   41  O2  UNL     1      32.053  12.352  12.984  1.00  0.00    -0.358 OA
ATOM     42  H2  UNL     1      32.510  11.536  13.153  1.00  0.00     0.217 HD
ENDBRANCH  38  41
BRANCH  39  43
HETATM   43  O3  UNL     1      32.745  14.682  14.297  1.00  0.00    -0.358 OA
ATOM     44  H3  UNL     1      33.416  14.521  14.950  1.00  0.00     0.217 HD
ENDBRANCH  39  43
ENDBRANCH  33  35
ENDBRANCH  30  32
ENDBRANCH  27  28
ENDBRANCH  26  27
ENDBRANCH  25  26
ENDBRANCH  23  25
ENDBRANCH   1  23
TORSDOF 13
ENDMDL
