MODEL 1
REMARK VINA RESULT: 1.789652683      0.000      0.000
REMARK  14 active torsions:
REMARK  status: ('A' for Active; 'I' for Inactive)
REMARK    1  A    between atoms: C2_2  and  C4_4 
REMARK    2  A    between atoms: C2_2  and  N9_37 
REMARK    3  A    between atoms: C4_4  and  C5_5 
REMARK    4  A    between atoms: C5_5  and  C6_6 
REMARK    5  A    between atoms: N2_10  and  C8_12 
REMARK    6  A    between atoms: C8_12  and  C9_13 
REMARK    7  A    between atoms: C8_12  and  C10_16 
REMARK    8  A    between atoms: C9_13  and  O1_14 
REMARK    9  A    between atoms: C10_16  and  O2_17 
REMARK   10  A    between atoms: C14_25  and  N5_26 
REMARK       I    between atoms: N9_37  and  C20_39 
REMARK   11  A    between atoms: C20_39  and  C21_41 
REMARK   12  A    between atoms: C21_41  and  C22_42 
REMARK   13  A    between atoms: C22_42  and  C23_43 
REMARK   14  A    between atoms: C23_43  and  N10_44 
ROOT
HETATM    1  C6  UNL     1      40.170  22.683  12.296  1.00  0.00     0.103 A 
HETATM    2  N1  UNL     1      41.457  22.218  12.119  1.00  0.00    -0.334 N 
ATOM      3  H1  UNL     1      41.611  21.209  12.123  1.00  0.00     0.168 HD
HETATM    4  C7  UNL     1      42.510  23.014  11.943  1.00  0.00     0.126 A 
HETATM    5  N2  UNL     1      43.711  22.610  11.777  1.00  0.00    -0.366 N 
ATOM      6  H2  UNL     1      44.419  23.333  11.653  1.00  0.00     0.161 HD
HETATM    7  C11 UNL     1      42.265  24.365  11.945  1.00  0.00     0.116 A 
HETATM    8  C12 UNL     1      43.350  25.298  11.761  1.00  0.00     0.105 C 
HETATM    9  N3  UNL     1      44.225  26.041  11.600  1.00  0.00    -0.191 NA
HETATM   10  C13 UNL     1      40.997  24.917  12.117  1.00  0.00     0.073 A 
HETATM   11  N4  UNL     1      40.798  26.224  12.113  1.00  0.00    -0.340 N 
ATOM     12  H4  UNL     1      41.585  26.859  11.980  1.00  0.00     0.167 HD
HETATM   13  C14 UNL     1      39.560  26.715  12.283  1.00  0.00     0.115 A 
HETATM   14  C17 UNL     1      38.477  25.889  12.464  1.00  0.00     0.076 A 
HETATM   15  C18 UNL     1      38.646  24.487  12.475  1.00  0.00     0.065 A 
HETATM   16  N8  UNL     1      37.490  23.703  12.665  1.00  0.00    -0.101 NA
HETATM   17  C19 UNL     1      39.922  24.025  12.299  1.00  0.00     0.052 A 
ENDROOT
BRANCH   5  18
HETATM   18  C8  UNL     1      44.167  21.265  11.744  1.00  0.00     0.130 C 
BRANCH  18  19
HETATM   19  C9  UNL     1      45.063  21.118  10.505  1.00  0.00     0.191 C 
BRANCH  19  20
HETATM   20  O1  UNL     1      44.317  21.091   9.348  1.00  0.00    -0.399 OA
ATOM     21  H1  UNL     1      43.893  20.249   9.231  1.00  0.00     0.209 HD
ENDBRANCH  19  20
ENDBRANCH  18  19
BRANCH  18  22
HETATM   22  C10 UNL     1      45.116  21.080  12.936  1.00  0.00     0.191 C 
BRANCH  22  23
HETATM   23  O2  UNL     1      45.116  22.308  13.634  1.00  0.00    -0.399 OA
ATOM     24  H2  UNL     1      45.785  22.232  14.304  1.00  0.00     0.209 HD
ENDBRANCH  22  23
ENDBRANCH  18  22
ENDBRANCH   5  18
BRANCH   1  25
HETATM   25  C5  UNL     1      39.137  21.694  12.474  1.00  0.00    -0.045 C 
BRANCH  25  26
HETATM   26  C4  UNL     1      38.284  20.810  12.584  1.00  0.00    -0.069 C 
BRANCH  26  27
HETATM   27  C2  UNL     1      37.265  19.770  12.738  1.00  0.00     0.089 C 
HETATM   28  C1  UNL     1      35.865  20.373  12.722  1.00  0.00     0.053 C 
HETATM   29  C3  UNL     1      37.455  19.191  14.126  1.00  0.00     0.053 C 
BRANCH  27  30
HETATM   30  N9  UNL     1      37.357  18.783  11.710  1.00  0.00    -0.342 N 
HETATM   31  C20 UNL     1      36.675  17.532  11.746  1.00  0.00     0.218 C 
HETATM   32  O3  UNL     1      35.962  17.325  12.755  1.00  0.00    -0.274 OA
ATOM     33  H9  UNL     1      37.946  18.986  10.902  1.00  0.00     0.164 HD
BRANCH  31  34
HETATM   34  C21 UNL     1      36.770  16.525  10.696  1.00  0.00     0.104 C 
BRANCH  34  35
HETATM   35  C22 UNL     1      35.518  15.801  10.349  1.00  0.00     0.036 C 
BRANCH  35  36
HETATM   36  C23 UNL     1      34.461  16.616   9.679  1.00  0.00     0.230 C 
BRANCH  36  37
HETATM   37  N10 UNL     1      34.235  16.192   8.302  1.00  0.00    -0.079 N 
ATOM     38 3H10 UNL     1      35.025  15.655   7.945  1.00  0.00     0.274 HD
ATOM     39 2H10 UNL     1      33.515  15.471   8.250  1.00  0.00     0.274 HD
ATOM     40 1H10 UNL     1      34.017  16.978   7.691  1.00  0.00     0.274 HD
ENDBRANCH  36  37
ENDBRANCH  35  36
ENDBRANCH  34  35
ENDBRANCH  31  34
ENDBRANCH  27  30
ENDBRANCH  26  27
ENDBRANCH  25  26
ENDBRANCH   1  25
BRANCH  13  41
HETATM   41  N5  UNL     1      39.331  28.117  12.280  1.00  0.00    -0.287 N 
HETATM   42  C15 UNL     1      38.447  28.757  13.057  1.00  0.00     0.207 A 
HETATM   43  N6  UNL     1      38.514  30.068  12.772  1.00  0.00    -0.295 N 
HETATM   44  N7  UNL     1      39.421  30.280  11.831  1.00  0.00    -0.295 N 
ATOM     45  H6  UNL     1      37.949  30.793  13.216  1.00  0.00     0.187 HD
HETATM   46  C16 UNL     1      39.919  29.070  11.534  1.00  0.00     0.207 A 
ATOM     47  H7  UNL     1      39.685  31.175  11.418  1.00  0.00     0.187 HD
ENDBRANCH  13  41
TORSDOF 14
ENDMDL
MODEL 2
REMARK VINA RESULT: 2.299834446      3.976     12.208
REMARK  14 active torsions:
REMARK  status: ('A' for Active; 'I' for Inactive)
REMARK    1  A    between atoms: C2_2  and  C4_4 
REMARK    2  A    between atoms: C2_2  and  N9_37 
REMARK    3  A    between atoms: C4_4  and  C5_5 
REMARK    4  A    between atoms: C5_5  and  C6_6 
REMARK    5  A    between atoms: N2_10  and  C8_12 
REMARK    6  A    between atoms: C8_12  and  C9_13 
REMARK    7  A    between atoms: C8_12  and  C10_16 
REMARK    8  A    between atoms: C9_13  and  O1_14 
REMARK    9  A    between atoms: C10_16  and  O2_17 
REMARK   10  A    between atoms: C14_25  and  N5_26 
REMARK       I    between atoms: N9_37  and  C20_39 
REMARK   11  A    between atoms: C20_39  and  C21_41 
REMARK   12  A    between atoms: C21_41  and  C22_42 
REMARK   13  A    between atoms: C22_42  and  C23_43 
REMARK   14  A    between atoms: C23_43  and  N10_44 
ROOT
HETATM    1  C6  UNL     1      34.819  16.262  12.843  1.00  0.00     0.103 A 
HETATM    2  N1  UNL     1      34.402  15.549  13.948  1.00  0.00    -0.334 N 
ATOM      3  H1  UNL     1      34.744  15.838  14.866  1.00  0.00     0.168 HD
HETATM    4  C7  UNL     1      33.579  14.505  13.883  1.00  0.00     0.126 A 
HETATM    5  N2  UNL     1      33.177  13.828  14.890  1.00  0.00    -0.366 N 
ATOM      6  H2  UNL     1      32.546  13.052  14.692  1.00  0.00     0.161 HD
HETATM    7  C11 UNL     1      33.141  14.146  12.632  1.00  0.00     0.116 A 
HETATM    8  C12 UNL     1      32.246  13.026  12.473  1.00  0.00     0.105 C 
HETATM    9  N3  UNL     1      31.517  12.132  12.354  1.00  0.00    -0.191 NA
HETATM   10  C13 UNL     1      33.513  14.811  11.467  1.00  0.00     0.073 A 
HETATM   11  N4  UNL     1      33.071  14.437  10.278  1.00  0.00    -0.340 N 
ATOM     12  H4  UNL     1      32.439  13.642  10.196  1.00  0.00     0.167 HD
HETATM   13  C14 UNL     1      33.455  15.106   9.178  1.00  0.00     0.115 A 
HETATM   14  C17 UNL     1      34.305  16.183   9.251  1.00  0.00     0.076 A 
HETATM   15  C18 UNL     1      34.800  16.615  10.501  1.00  0.00     0.065 A 
HETATM   16  N8  UNL     1      35.666  17.726  10.498  1.00  0.00    -0.101 NA
HETATM   17  C19 UNL     1      34.387  15.909  11.598  1.00  0.00     0.052 A 
ENDROOT
BRANCH   5  18
HETATM   18  C8  UNL     1      33.513  14.038  16.255  1.00  0.00     0.130 C 
BRANCH  18  19
HETATM   19  C9  UNL     1      32.300  14.698  16.926  1.00  0.00     0.191 C 
BRANCH  19  20
HETATM   20  O1  UNL     1      31.241  14.804  16.051  1.00  0.00    -0.399 OA
ATOM     21  H1  UNL     1      30.847  15.668  16.089  1.00  0.00     0.209 HD
ENDBRANCH  19  20
ENDBRANCH  18  19
BRANCH  18  22
HETATM   22  C10 UNL     1      33.618  12.655  16.913  1.00  0.00     0.191 C 
BRANCH  22  23
HETATM   23  O2  UNL     1      32.292  12.199  17.084  1.00  0.00    -0.399 OA
ATOM     24  H2  UNL     1      31.735  12.964  16.990  1.00  0.00     0.209 HD
ENDBRANCH  22  23
ENDBRANCH  18  22
ENDBRANCH   5  18
BRANCH   1  25
HETATM   25  C5  UNL     1      35.713  17.368  13.078  1.00  0.00    -0.045 C 
BRANCH  25  26
HETATM   26  C4  UNL     1      36.529  18.273  13.271  1.00  0.00    -0.069 C 
BRANCH  26  27
HETATM   27  C2  UNL     1      37.514  19.334  13.485  1.00  0.00     0.089 C 
HETATM   28  C1  UNL     1      38.536  19.365  12.355  1.00  0.00     0.053 C 
HETATM   29  C3  UNL     1      38.284  18.953  14.735  1.00  0.00     0.053 C 
BRANCH  27  30
HETATM   30  N9  UNL     1      36.895  20.617  13.587  1.00  0.00    -0.342 N 
HETATM   31  C20 UNL     1      37.485  21.824  13.109  1.00  0.00     0.218 C 
HETATM   32  O3  UNL     1      38.612  21.709  12.575  1.00  0.00    -0.274 OA
ATOM     33  H9  UNL     1      35.977  20.673  14.028  1.00  0.00     0.164 HD
BRANCH  31  34
HETATM   34  C21 UNL     1      36.853  23.133  13.214  1.00  0.00     0.104 C 
BRANCH  34  35
HETATM   35  C22 UNL     1      37.692  24.311  12.862  1.00  0.00     0.036 C 
BRANCH  35  36
HETATM   36  C23 UNL     1      38.893  24.532  13.722  1.00  0.00     0.230 C 
BRANCH  36  37
HETATM   37  N10 UNL     1      39.840  25.457  13.110  1.00  0.00    -0.079 N 
ATOM     38 3H10 UNL     1      39.371  26.295  12.767  1.00  0.00     0.274 HD
ATOM     39 2H10 UNL     1      40.444  25.887  13.812  1.00  0.00     0.274 HD
ATOM     40 1H10 UNL     1      40.387  25.012  12.374  1.00  0.00     0.274 HD
ENDBRANCH  36  37
ENDBRANCH  35  36
ENDBRANCH  34  35
ENDBRANCH  31  34
ENDBRANCH  27  30
ENDBRANCH  26  27
ENDBRANCH  25  26
ENDBRANCH   1  25
BRANCH  13  41
HETATM   41  N5  UNL     1      32.988  14.716   7.894  1.00  0.00    -0.287 N 
HETATM   42  C15 UNL     1      32.628  15.556   6.915  1.00  0.00     0.207 A 
HETATM   43  N6  UNL     1      32.243  14.823   5.857  1.00  0.00    -0.295 N 
HETATM   44  N7  UNL     1      32.350  13.534   6.139  1.00  0.00    -0.295 N 
ATOM     45  H6  UNL     1      31.917  15.204   4.968  1.00  0.00     0.187 HD
HETATM   46  C16 UNL     1      32.810  13.478   7.398  1.00  0.00     0.207 A 
ATOM     47  H7  UNL     1      32.129  12.748   5.527  1.00  0.00     0.187 HD
ENDBRANCH  13  41
TORSDOF 14
ENDMDL
MODEL 3
REMARK VINA RESULT: 2.446224292      4.889      8.362
REMARK  14 active torsions:
REMARK  status: ('A' for Active; 'I' for Inactive)
REMARK    1  A    between atoms: C2_2  and  C4_4 
REMARK    2  A    between atoms: C2_2  and  N9_37 
REMARK    3  A    between atoms: C4_4  and  C5_5 
REMARK    4  A    between atoms: C5_5  and  C6_6 
REMARK    5  A    between atoms: N2_10  and  C8_12 
REMARK    6  A    between atoms: C8_12  and  C9_13 
REMARK    7  A    between atoms: C8_12  and  C10_16 
REMARK    8  A    between atoms: C9_13  and  O1_14 
REMARK    9  A    between atoms: C10_16  and  O2_17 
REMARK   10  A    between atoms: C14_25  and  N5_26 
REMARK       I    between atoms: N9_37  and  C20_39 
REMARK   11  A    between atoms: C20_39  and  C21_41 
REMARK   12  A    between atoms: C21_41  and  C22_42 
REMARK   13  A    between atoms: C22_42  and  C23_43 
REMARK   14  A    between atoms: C23_43  and  N10_44 
ROOT
HETATM    1  C6  UNL     1      35.870  17.528  11.678  1.00  0.00     0.103 A 
HETATM    2  N1  UNL     1      35.433  16.668  12.665  1.00  0.00    -0.334 N 
ATOM      3  H1  UNL     1      35.017  15.781  12.382  1.00  0.00     0.168 HD
HETATM    4  C7  UNL     1      35.525  16.934  13.967  1.00  0.00     0.126 A 
HETATM    5  N2  UNL     1      35.129  16.156  14.900  1.00  0.00    -0.366 N 
ATOM      6  H2  UNL     1      35.262  16.488  15.855  1.00  0.00     0.161 HD
HETATM    7  C11 UNL     1      36.089  18.138  14.309  1.00  0.00     0.116 A 
HETATM    8  C12 UNL     1      36.227  18.503  15.698  1.00  0.00     0.105 C 
HETATM    9  N3  UNL     1      36.345  18.785  16.816  1.00  0.00    -0.191 NA
HETATM   10  C13 UNL     1      36.555  19.062  13.377  1.00  0.00     0.073 A 
HETATM   11  N4  UNL     1      37.095  20.212  13.743  1.00  0.00    -0.340 N 
ATOM     12  H4  UNL     1      37.179  20.443  14.733  1.00  0.00     0.167 HD
HETATM   13  C14 UNL     1      37.531  21.076  12.813  1.00  0.00     0.115 A 
HETATM   14  C17 UNL     1      37.434  20.797  11.470  1.00  0.00     0.076 A 
HETATM   15  C18 UNL     1      36.865  19.579  11.036  1.00  0.00     0.065 A 
HETATM   16  N8  UNL     1      36.799  19.362   9.646  1.00  0.00    -0.101 NA
HETATM   17  C19 UNL     1      36.432  18.726  12.014  1.00  0.00     0.052 A 
ENDROOT
BRANCH   5  18
HETATM   18  C8  UNL     1      34.524  14.878  14.754  1.00  0.00     0.130 C 
BRANCH  18  19
HETATM   19  C9  UNL     1      34.244  14.343  16.166  1.00  0.00     0.191 C 
BRANCH  19  20
HETATM   20  O1  UNL     1      32.894  14.161  16.373  1.00  0.00    -0.399 OA
ATOM     21  H1  UNL     1      32.652  14.374  17.267  1.00  0.00     0.209 HD
ENDBRANCH  19  20
ENDBRANCH  18  19
BRANCH  18  22
HETATM   22  C10 UNL     1      33.135  15.103  14.139  1.00  0.00     0.191 C 
BRANCH  22  23
HETATM   23  O2  UNL     1      32.688  13.835  13.704  1.00  0.00    -0.399 OA
ATOM     24  H2  UNL     1      32.247  13.981  12.875  1.00  0.00     0.209 HD
ENDBRANCH  22  23
ENDBRANCH  18  22
ENDBRANCH   5  18
BRANCH   1  25
HETATM   25  C5  UNL     1      35.700  17.098  10.314  1.00  0.00    -0.045 C 
BRANCH  25  26
HETATM   26  C4  UNL     1      35.615  16.700   9.149  1.00  0.00    -0.069 C 
BRANCH  26  27
HETATM   27  C2  UNL     1      35.499  16.208   7.775  1.00  0.00     0.089 C 
HETATM   28  C1  UNL     1      36.871  15.891   7.192  1.00  0.00     0.053 C 
HETATM   29  C3  UNL     1      34.952  17.361   6.956  1.00  0.00     0.053 C 
BRANCH  27  30
HETATM   30  N9  UNL     1      34.681  15.040   7.700  1.00  0.00    -0.342 N 
HETATM   31  C20 UNL     1      33.256  15.063   7.743  1.00  0.00     0.218 C 
HETATM   32  O3  UNL     1      32.730  16.195   7.853  1.00  0.00    -0.274 OA
ATOM     33  H9  UNL     1      35.144  14.135   7.610  1.00  0.00     0.164 HD
BRANCH  31  34
HETATM   34  C21 UNL     1      32.422  13.870   7.667  1.00  0.00     0.104 C 
BRANCH  34  35
HETATM   35  C22 UNL     1      32.399  12.993   8.868  1.00  0.00     0.036 C 
BRANCH  35  36
HETATM   36  C23 UNL     1      33.134  13.508  10.062  1.00  0.00     0.230 C 
BRANCH  36  37
HETATM   37  N10 UNL     1      32.893  12.692  11.247  1.00  0.00    -0.079 N 
ATOM     38 3H10 UNL     1      32.196  11.970  11.063  1.00  0.00     0.274 HD
ATOM     39 2H10 UNL     1      33.693  12.094  11.453  1.00  0.00     0.274 HD
ATOM     40 1H10 UNL     1      32.635  13.258  12.055  1.00  0.00     0.274 HD
ENDBRANCH  36  37
ENDBRANCH  35  36
ENDBRANCH  34  35
ENDBRANCH  31  34
ENDBRANCH  27  30
ENDBRANCH  26  27
ENDBRANCH  25  26
ENDBRANCH   1  25
BRANCH  13  41
HETATM   41  N5  UNL     1      38.113  22.316  13.191  1.00  0.00    -0.287 N 
HETATM   42  C15 UNL     1      37.466  23.319  13.798  1.00  0.00     0.207 A 
HETATM   43  N6  UNL     1      38.339  24.321  13.994  1.00  0.00    -0.295 N 
HETATM   44  N7  UNL     1      39.530  23.979  13.527  1.00  0.00    -0.295 N 
ATOM     45  H6  UNL     1      38.118  25.212  14.438  1.00  0.00     0.187 HD
HETATM   46  C16 UNL     1      39.380  22.740  13.033  1.00  0.00     0.207 A 
ATOM     47  H7  UNL     1      40.382  24.539  13.539  1.00  0.00     0.187 HD
ENDBRANCH  13  41
TORSDOF 14
ENDMDL
MODEL 4
REMARK VINA RESULT: 2.564968900      3.677     11.206
REMARK  14 active torsions:
REMARK  status: ('A' for Active; 'I' for Inactive)
REMARK    1  A    between atoms: C2_2  and  C4_4 
REMARK    2  A    between atoms: C2_2  and  N9_37 
REMARK    3  A    between atoms: C4_4  and  C5_5 
REMARK    4  A    between atoms: C5_5  and  C6_6 
REMARK    5  A    between atoms: N2_10  and  C8_12 
REMARK    6  A    between atoms: C8_12  and  C9_13 
REMARK    7  A    between atoms: C8_12  and  C10_16 
REMARK    8  A    between atoms: C9_13  and  O1_14 
REMARK    9  A    between atoms: C10_16  and  O2_17 
REMARK   10  A    between atoms: C14_25  and  N5_26 
REMARK       I    between atoms: N9_37  and  C20_39 
REMARK   11  A    between atoms: C20_39  and  C21_41 
REMARK   12  A    between atoms: C21_41  and  C22_42 
REMARK   13  A    between atoms: C22_42  and  C23_43 
REMARK   14  A    between atoms: C23_43  and  N10_44 
ROOT
HETATM    1  C6  UNL     1      35.696  18.258  10.536  1.00  0.00     0.103 A 
HETATM    2  N1  UNL     1      35.707  18.324   9.158  1.00  0.00    -0.334 N 
ATOM      3  H1  UNL     1      36.214  19.091   8.715  1.00  0.00     0.168 HD
HETATM    4  C7  UNL     1      35.090  17.442   8.373  1.00  0.00     0.126 A 
HETATM    5  N2  UNL     1      35.084  17.480   7.096  1.00  0.00    -0.366 N 
ATOM      6  H2  UNL     1      34.570  16.738   6.623  1.00  0.00     0.161 HD
HETATM    7  C11 UNL     1      34.417  16.425   9.005  1.00  0.00     0.116 A 
HETATM    8  C12 UNL     1      33.722  15.427   8.229  1.00  0.00     0.105 C 
HETATM    9  N3  UNL     1      33.176  14.621   7.599  1.00  0.00    -0.191 NA
HETATM   10  C13 UNL     1      34.357  16.286  10.389  1.00  0.00     0.073 A 
HETATM   11  N4  UNL     1      33.699  15.292  10.963  1.00  0.00    -0.340 N 
ATOM     12  H4  UNL     1      33.217  14.601  10.388  1.00  0.00     0.167 HD
HETATM   13  C14 UNL     1      33.666  15.194  12.301  1.00  0.00     0.115 A 
HETATM   14  C17 UNL     1      34.303  16.107  13.106  1.00  0.00     0.076 A 
HETATM   15  C18 UNL     1      35.018  17.182  12.534  1.00  0.00     0.065 A 
HETATM   16  N8  UNL     1      35.647  18.078  13.421  1.00  0.00    -0.101 NA
HETATM   17  C19 UNL     1      35.028  17.249  11.167  1.00  0.00     0.052 A 
ENDROOT
BRANCH   5  18
HETATM   18  C8  UNL     1      35.715  18.443   6.263  1.00  0.00     0.130 C 
BRANCH  18  19
HETATM   19  C9  UNL     1      34.966  18.446   4.923  1.00  0.00     0.191 C 
BRANCH  19  20
HETATM   20  O1  UNL     1      33.620  18.681   5.102  1.00  0.00    -0.399 OA
ATOM     21  H1  UNL     1      33.443  19.609   5.202  1.00  0.00     0.209 HD
ENDBRANCH  19  20
ENDBRANCH  18  19
BRANCH  18  22
HETATM   22  C10 UNL     1      35.433  19.823   6.871  1.00  0.00     0.191 C 
BRANCH  22  23
HETATM   23  O2  UNL     1      35.368  20.726   5.786  1.00  0.00    -0.399 OA
ATOM     24  H2  UNL     1      34.943  20.257   5.077  1.00  0.00     0.209 HD
ENDBRANCH  22  23
ENDBRANCH  18  22
ENDBRANCH   5  18
BRANCH   1  25
HETATM   25  C5  UNL     1      36.411  19.289  11.245  1.00  0.00    -0.045 C 
BRANCH  25  26
HETATM   26  C4  UNL     1      37.009  20.139  11.909  1.00  0.00    -0.069 C 
BRANCH  26  27
HETATM   27  C2  UNL     1      37.719  21.132  12.717  1.00  0.00     0.089 C 
HETATM   28  C1  UNL     1      39.202  20.796  12.816  1.00  0.00     0.053 C 
HETATM   29  C3  UNL     1      37.168  21.006  14.125  1.00  0.00     0.053 C 
BRANCH  27  30
HETATM   30  N9  UNL     1      37.575  22.449  12.183  1.00  0.00    -0.342 N 
HETATM   31  C20 UNL     1      37.874  23.638  12.911  1.00  0.00     0.218 C 
HETATM   32  O3  UNL     1      38.284  23.475  14.083  1.00  0.00    -0.274 OA
ATOM     33  H9  UNL     1      37.240  22.543  11.225  1.00  0.00     0.164 HD
BRANCH  31  34
HETATM   34  C21 UNL     1      37.726  24.982  12.365  1.00  0.00     0.104 C 
BRANCH  34  35
HETATM   35  C22 UNL     1      38.963  25.804  12.270  1.00  0.00     0.036 C 
BRANCH  35  36
HETATM   36  C23 UNL     1      38.816  27.120  11.580  1.00  0.00     0.230 C 
BRANCH  36  37
HETATM   37  N10 UNL     1      39.429  28.206  12.336  1.00  0.00    -0.079 N 
ATOM     38 3H10 UNL     1      39.700  27.899  13.270  1.00  0.00     0.274 HD
ATOM     39 2H10 UNL     1      40.352  28.438  11.969  1.00  0.00     0.274 HD
ATOM     40 1H10 UNL     1      38.829  29.029  12.377  1.00  0.00     0.274 HD
ENDBRANCH  36  37
ENDBRANCH  35  36
ENDBRANCH  34  35
ENDBRANCH  31  34
ENDBRANCH  27  30
ENDBRANCH  26  27
ENDBRANCH  25  26
ENDBRANCH   1  25
BRANCH  13  41
HETATM   41  N5  UNL     1      32.963  14.131  12.932  1.00  0.00    -0.287 N 
HETATM   42  C15 UNL     1      32.629  14.089  14.228  1.00  0.00     0.207 A 
HETATM   43  N6  UNL     1      31.977  12.936  14.453  1.00  0.00    -0.295 N 
HETATM   44  N7  UNL     1      31.888  12.241  13.329  1.00  0.00    -0.295 N 
ATOM     45  H6  UNL     1      31.607  12.639  15.356  1.00  0.00     0.187 HD
HETATM   46  C16 UNL     1      32.499  12.988  12.396  1.00  0.00     0.207 A 
ATOM     47  H7  UNL     1      31.448  11.330  13.199  1.00  0.00     0.187 HD
ENDBRANCH  13  41
TORSDOF 14
ENDMDL
MODEL 5
REMARK VINA RESULT: 2.785247962      3.737     10.923
REMARK  14 active torsions:
REMARK  status: ('A' for Active; 'I' for Inactive)
REMARK    1  A    between atoms: C2_2  and  C4_4 
REMARK    2  A    between atoms: C2_2  and  N9_37 
REMARK    3  A    between atoms: C4_4  and  C5_5 
REMARK    4  A    between atoms: C5_5  and  C6_6 
REMARK    5  A    between atoms: N2_10  and  C8_12 
REMARK    6  A    between atoms: C8_12  and  C9_13 
REMARK    7  A    between atoms: C8_12  and  C10_16 
REMARK    8  A    between atoms: C9_13  and  O1_14 
REMARK    9  A    between atoms: C10_16  and  O2_17 
REMARK   10  A    between atoms: C14_25  and  N5_26 
REMARK       I    between atoms: N9_37  and  C20_39 
REMARK   11  A    between atoms: C20_39  and  C21_41 
REMARK   12  A    between atoms: C21_41  and  C22_42 
REMARK   13  A    between atoms: C22_42  and  C23_43 
REMARK   14  A    between atoms: C23_43  and  N10_44 
ROOT
HETATM    1  C6  UNL     1      35.795  18.541  11.160  1.00  0.00     0.103 A 
HETATM    2  N1  UNL     1      35.755  18.410   9.787  1.00  0.00    -0.334 N 
ATOM      3  H1  UNL     1      36.198  19.133   9.220  1.00  0.00     0.168 HD
HETATM    4  C7  UNL     1      35.170  17.389   9.162  1.00  0.00     0.126 A 
HETATM    5  N2  UNL     1      35.120  17.243   7.894  1.00  0.00    -0.366 N 
ATOM      6  H2  UNL     1      34.639  16.411   7.552  1.00  0.00     0.161 HD
HETATM    7  C11 UNL     1      34.586  16.436   9.958  1.00  0.00     0.116 A 
HETATM    8  C12 UNL     1      33.931  15.298   9.361  1.00  0.00     0.105 C 
HETATM    9  N3  UNL     1      33.417  14.379   8.875  1.00  0.00    -0.191 NA
HETATM   10  C13 UNL     1      34.581  16.493  11.350  1.00  0.00     0.073 A 
HETATM   11  N4  UNL     1      34.007  15.555  12.086  1.00  0.00    -0.340 N 
ATOM     12  H4  UNL     1      33.552  14.762  11.636  1.00  0.00     0.167 HD
HETATM   13  C14 UNL     1      34.025  15.649  13.425  1.00  0.00     0.115 A 
HETATM   14  C17 UNL     1      34.630  16.704  14.065  1.00  0.00     0.076 A 
HETATM   15  C18 UNL     1      35.254  17.726  13.317  1.00  0.00     0.065 A 
HETATM   16  N8  UNL     1      35.854  18.775  14.041  1.00  0.00    -0.101 NA
HETATM   17  C19 UNL     1      35.215  17.596  11.956  1.00  0.00     0.052 A 
ENDROOT
BRANCH   5  18
HETATM   18  C8  UNL     1      35.660  18.111   6.907  1.00  0.00     0.130 C 
BRANCH  18  19
HETATM   19  C9  UNL     1      36.635  17.284   6.057  1.00  0.00     0.191 C 
BRANCH  19  20
HETATM   20  O1  UNL     1      37.083  16.177   6.745  1.00  0.00    -0.399 OA
ATOM     21  H1  UNL     1      37.880  15.832   6.360  1.00  0.00     0.209 HD
ENDBRANCH  19  20
ENDBRANCH  18  19
BRANCH  18  22
HETATM   22  C10 UNL     1      34.517  18.474   5.948  1.00  0.00     0.191 C 
BRANCH  22  23
HETATM   23  O2  UNL     1      34.869  19.711   5.366  1.00  0.00    -0.399 OA
ATOM     24  H2  UNL     1      35.261  19.506   4.525  1.00  0.00     0.209 HD
ENDBRANCH  22  23
ENDBRANCH  18  22
ENDBRANCH   5  18
BRANCH   1  25
HETATM   25  C5  UNL     1      36.466  19.703  11.686  1.00  0.00    -0.045 C 
BRANCH  25  26
HETATM   26  C4  UNL     1      36.986  20.711  12.172  1.00  0.00    -0.069 C 
BRANCH  26  27
HETATM   27  C2  UNL     1      37.582  21.910  12.764  1.00  0.00     0.089 C 
HETATM   28  C1  UNL     1      37.370  21.936  14.273  1.00  0.00     0.053 C 
HETATM   29  C3  UNL     1      36.802  23.088  12.212  1.00  0.00     0.053 C 
BRANCH  27  30
HETATM   30  N9  UNL     1      38.980  21.996  12.490  1.00  0.00    -0.342 N 
HETATM   31  C20 UNL     1      39.805  23.084  12.899  1.00  0.00     0.218 C 
HETATM   32  O3  UNL     1      39.231  23.999  13.534  1.00  0.00    -0.274 OA
ATOM     33  H9  UNL     1      39.415  21.233  11.971  1.00  0.00     0.164 HD
BRANCH  31  34
HETATM   34  C21 UNL     1      41.233  23.171  12.618  1.00  0.00     0.104 C 
BRANCH  34  35
HETATM   35  C22 UNL     1      41.910  24.444  12.988  1.00  0.00     0.036 C 
BRANCH  35  36
HETATM   36  C23 UNL     1      41.680  25.594  12.063  1.00  0.00     0.230 C 
BRANCH  36  37
HETATM   37  N10 UNL     1      40.810  26.605  12.655  1.00  0.00    -0.079 N 
ATOM     38 3H10 UNL     1      39.827  26.387  12.495  1.00  0.00     0.274 HD
ATOM     39 2H10 UNL     1      40.823  26.554  13.673  1.00  0.00     0.274 HD
ATOM     40 1H10 UNL     1      41.038  27.544  12.328  1.00  0.00     0.274 HD
ENDBRANCH  36  37
ENDBRANCH  35  36
ENDBRANCH  34  35
ENDBRANCH  31  34
ENDBRANCH  27  30
ENDBRANCH  26  27
ENDBRANCH  25  26
ENDBRANCH   1  25
BRANCH  13  41
HETATM   41  N5  UNL     1      33.413  14.649  14.228  1.00  0.00    -0.287 N 
HETATM   42  C15 UNL     1      32.623  13.668  13.772  1.00  0.00     0.207 A 
HETATM   43  N6  UNL     1      32.235  12.924  14.821  1.00  0.00    -0.295 N 
HETATM   44  N7  UNL     1      32.760  13.407  15.936  1.00  0.00    -0.295 N 
ATOM     45  H6  UNL     1      31.625  12.107  14.766  1.00  0.00     0.187 HD
HETATM   46  C16 UNL     1      33.486  14.471  15.560  1.00  0.00     0.207 A 
ATOM     47  H7  UNL     1      32.639  13.046  16.883  1.00  0.00     0.187 HD
ENDBRANCH  13  41
TORSDOF 14
ENDMDL
