MODEL 1
REMARK VINA RESULT: -4.906745728      0.000      0.000
REMARK  9 active torsions:
REMARK  status: ('A' for Active; 'I' for Inactive)
REMARK    1  A    between atoms: C2_2  and  N1_3 
REMARK    2  A    between atoms: N1_3  and  C4_5 
REMARK    3  A    between atoms: C4_5  and  C5_6 
REMARK    4  A    between atoms: C4_5  and  C6_15 
REMARK    5  A    between atoms: C8_19  and  N7_20 
REMARK    6  A    between atoms: N7_20  and  C9_22 
REMARK    7  A    between atoms: C9_22  and  C10_23 
REMARK    8  A    between atoms: C13_31  and  N11_32 
REMARK    9  A    between atoms: N11_32  and  C14_34 
ROOT
HETATM    1  C6  UNL     1      34.952  16.147  13.618  1.00  0.00     0.133 A 
HETATM    2  N6  UNL     1      34.894  17.141  12.709  1.00  0.00    -0.336 N 
ATOM      3  H6  UNL     1      34.237  17.034  11.936  1.00  0.00     0.168 HD
HETATM    4  C7  UNL     1      35.627  18.251  12.741  1.00  0.00     0.110 A 
HETATM    5  C8  UNL     1      35.460  19.190  11.745  1.00  0.00     0.146 A 
HETATM    6  N10 UNL     1      36.214  20.289  11.821  1.00  0.00    -0.175 N 
ATOM      7  H10 UNL     1      36.128  21.013  11.108  1.00  0.00     0.186 HD
HETATM    8  C13 UNL     1      37.101  20.450  12.849  1.00  0.00     0.680 A 
HETATM    9  N12 UNL     1      37.261  19.537  13.818  1.00  0.00    -0.186 N 
ATOM     10  H12 UNL     1      37.932  19.692  14.571  1.00  0.00     0.184 HD
HETATM   11  C19 UNL     1      36.525  18.419  13.781  1.00  0.00     0.123 A 
HETATM   12  C20 UNL     1      36.615  17.443  14.718  1.00  0.00     0.130 A 
HETATM   13  N13 UNL     1      37.417  17.516  15.711  1.00  0.00    -0.384 N 
ATOM     14 1H13 UNL     1      37.485  16.782  16.416  1.00  0.00     0.157 HD
ATOM     15 2H13 UNL     1      38.007  18.344  15.793  1.00  0.00     0.157 HD
HETATM   16  N14 UNL     1      35.822  16.330  14.609  1.00  0.00    -0.325 N 
ATOM     17  H14 UNL     1      35.904  15.607  15.323  1.00  0.00     0.169 HD
ENDROOT
BRANCH   1  18
HETATM   18  C4  UNL     1      34.101  14.900  13.499  1.00  0.00     0.102 C 
BRANCH  18  19
HETATM   19  N1  UNL     1      33.485  14.776  12.210  1.00  0.00    -0.282 NA
HETATM   20  C3  UNL     1      32.753  13.465  12.292  1.00  0.00     0.117 C 
BRANCH  19  21
HETATM   21  C2  UNL     1      34.290  14.774  11.050  1.00  0.00     0.091 C 
HETATM   22  C1  UNL     1      33.702  14.103   9.840  1.00  0.00     0.021 C 
ENDBRANCH  19  21
ENDBRANCH  18  19
BRANCH  18  23
HETATM   23  C5  UNL     1      33.334  14.652  14.700  1.00  0.00     0.162 A 
HETATM   24  N2  UNL     1      32.060  15.025  14.981  1.00  0.00    -0.267 N 
HETATM   25  N3  UNL     1      31.657  14.595  16.140  1.00  0.00    -0.227 N 
ATOM     26  H2  UNL     1      31.481  15.582  14.352  1.00  0.00     0.190 HD
HETATM   27  N4  UNL     1      32.677  13.912  16.669  1.00  0.00    -0.227 N 
ATOM     28  H3  UNL     1      30.742  14.750  16.564  1.00  0.00     0.210 HD
HETATM   29  N5  UNL     1      33.676  13.944  15.816  1.00  0.00    -0.267 N 
ATOM     30  H4  UNL     1      32.679  13.448  17.577  1.00  0.00     0.210 HD
ATOM     31  H5  UNL     1      34.582  13.500  15.966  1.00  0.00     0.190 HD
ENDBRANCH  18  23
ENDBRANCH   1  18
BRANCH   5  32
HETATM   32  N7  UNL     1      34.621  19.014  10.805  1.00  0.00    -0.372 N 
ATOM     33  H7  UNL     1      33.974  19.781  10.621  1.00  0.00     0.161 HD
BRANCH  32  34
HETATM   34  C9  UNL     1      34.488  17.849   9.973  1.00  0.00     0.144 C 
BRANCH  34  35
HETATM   35  C10 UNL     1      35.707  17.789   9.063  1.00  0.00     0.121 C 
HETATM   36  C11 UNL     1      35.505  16.753   7.977  1.00  0.00     0.070 C 
HETATM   37  C12 UNL     1      36.793  16.011   7.984  1.00  0.00     0.078 C 
HETATM   38  N8  UNL     1      37.474  16.341   9.020  1.00  0.00    -0.319 N 
HETATM   39  N9  UNL     1      36.821  17.277   9.815  1.00  0.00    -0.135 NA
ATOM     40  H8  UNL     1      38.395  15.959   9.237  1.00  0.00     0.181 HD
ENDBRANCH  34  35
ENDBRANCH  32  34
ENDBRANCH   5  32
BRANCH   8  41
HETATM   41  N11 UNL     1      37.822  21.514  12.895  1.00  0.00    -0.221 N 
ATOM     42  H11 UNL     1      38.816  21.417  12.692  1.00  0.00     0.178 HD
BRANCH  41  43
HETATM   43  C14 UNL     1      37.341  22.825  13.209  1.00  0.00     0.103 C 
HETATM   44  C15 UNL     1      38.255  23.450  14.259  1.00  0.00     0.052 C 
HETATM   45  C16 UNL     1      39.491  24.006  13.592  1.00  0.00     0.169 C 
HETATM   46  O1  UNL     1      39.194  25.133  12.828  1.00  0.00    -0.391 OA
HETATM   47  C17 UNL     1      37.865  25.118  12.408  1.00  0.00     0.169 C 
HETATM   48  C18 UNL     1      37.424  23.735  11.992  1.00  0.00     0.052 C 
ENDBRANCH  41  43
ENDBRANCH   8  41
TORSDOF 9
ENDMDL
MODEL 2
REMARK VINA RESULT: -4.831164311      6.175     12.718
REMARK  9 active torsions:
REMARK  status: ('A' for Active; 'I' for Inactive)
REMARK    1  A    between atoms: C2_2  and  N1_3 
REMARK    2  A    between atoms: N1_3  and  C4_5 
REMARK    3  A    between atoms: C4_5  and  C5_6 
REMARK    4  A    between atoms: C4_5  and  C6_15 
REMARK    5  A    between atoms: C8_19  and  N7_20 
REMARK    6  A    between atoms: N7_20  and  C9_22 
REMARK    7  A    between atoms: C9_22  and  C10_23 
REMARK    8  A    between atoms: C13_31  and  N11_32 
REMARK    9  A    between atoms: N11_32  and  C14_34 
ROOT
HETATM    1  C6  UNL     1      43.080  26.718  12.613  1.00  0.00     0.133 A 
HETATM    2  N6  UNL     1      41.741  26.806  12.481  1.00  0.00    -0.336 N 
ATOM      3  H6  UNL     1      41.353  27.714  12.228  1.00  0.00     0.168 HD
HETATM    4  C7  UNL     1      40.887  25.801  12.656  1.00  0.00     0.110 A 
HETATM    5  C8  UNL     1      39.539  26.033  12.483  1.00  0.00     0.146 A 
HETATM    6  N10 UNL     1      38.721  24.995  12.665  1.00  0.00    -0.175 N 
ATOM      7  H10 UNL     1      37.715  25.116  12.549  1.00  0.00     0.186 HD
HETATM    8  C13 UNL     1      39.223  23.769  13.006  1.00  0.00     0.680 A 
HETATM    9  N12 UNL     1      40.534  23.544  13.172  1.00  0.00    -0.186 N 
ATOM     10  H12 UNL     1      40.873  22.616  13.425  1.00  0.00     0.184 HD
HETATM   11  C19 UNL     1      41.392  24.559  12.999  1.00  0.00     0.123 A 
HETATM   12  C20 UNL     1      42.733  24.425  13.141  1.00  0.00     0.130 A 
HETATM   13  N13 UNL     1      43.284  23.314  13.456  1.00  0.00    -0.384 N 
ATOM     14 1H13 UNL     1      44.293  23.214  13.562  1.00  0.00     0.157 HD
ATOM     15 2H13 UNL     1      42.682  22.504  13.603  1.00  0.00     0.157 HD
HETATM   16  N14 UNL     1      43.542  25.513  12.943  1.00  0.00    -0.325 N 
ATOM     17  H14 UNL     1      44.549  25.394  13.054  1.00  0.00     0.169 HD
ENDROOT
BRANCH   1  18
HETATM   18  C4  UNL     1      43.987  27.916  12.420  1.00  0.00     0.102 C 
BRANCH  18  19
HETATM   19  N1  UNL     1      43.623  29.019  13.260  1.00  0.00    -0.282 NA
HETATM   20  C3  UNL     1      43.033  30.015  12.301  1.00  0.00     0.117 C 
BRANCH  19  21
HETATM   21  C2  UNL     1      44.616  29.666  14.029  1.00  0.00     0.091 C 
HETATM   22  C1  UNL     1      44.397  29.672  15.517  1.00  0.00     0.021 C 
ENDBRANCH  19  21
ENDBRANCH  18  19
BRANCH  18  23
HETATM   23  C5  UNL     1      44.306  28.134  11.027  1.00  0.00     0.162 A 
HETATM   24  N2  UNL     1      44.929  29.198  10.459  1.00  0.00    -0.267 N 
HETATM   25  N3  UNL     1      45.102  29.051   9.179  1.00  0.00    -0.227 N 
ATOM     26  H2  UNL     1      45.227  30.023  10.980  1.00  0.00     0.190 HD
HETATM   27  N4  UNL     1      44.588  27.861   8.858  1.00  0.00    -0.227 N 
ATOM     28  H3  UNL     1      45.544  29.716   8.544  1.00  0.00     0.210 HD
HETATM   29  N5  UNL     1      44.113  27.312   9.955  1.00  0.00    -0.267 N 
ATOM     30  H4  UNL     1      44.567  27.450   7.925  1.00  0.00     0.210 HD
ATOM     31  H5  UNL     1      43.663  26.398   9.998  1.00  0.00     0.190 HD
ENDBRANCH  18  23
ENDBRANCH   1  18
BRANCH   5  32
HETATM   32  N7  UNL     1      39.103  27.184  12.159  1.00  0.00    -0.372 N 
ATOM     33  H7  UNL     1      38.093  27.273  12.046  1.00  0.00     0.161 HD
BRANCH  32  34
HETATM   34  C9  UNL     1      39.881  28.372  11.937  1.00  0.00     0.144 C 
BRANCH  34  35
HETATM   35  C10 UNL     1      39.704  28.775  10.479  1.00  0.00     0.121 C 
HETATM   36  C11 UNL     1      40.709  28.056   9.606  1.00  0.00     0.070 C 
HETATM   37  C12 UNL     1      41.234  29.143   8.740  1.00  0.00     0.078 C 
HETATM   38  N8  UNL     1      40.845  30.279   9.192  1.00  0.00    -0.319 N 
HETATM   39  N9  UNL     1      40.063  30.161  10.336  1.00  0.00    -0.135 NA
ATOM     40  H8  UNL     1      41.084  31.172   8.759  1.00  0.00     0.181 HD
ENDBRANCH  34  35
ENDBRANCH  32  34
ENDBRANCH   5  32
BRANCH   8  41
HETATM   41  N11 UNL     1      38.413  22.786  13.184  1.00  0.00    -0.221 N 
ATOM     42  H11 UNL     1      38.023  22.663  14.118  1.00  0.00     0.178 HD
BRANCH  41  43
HETATM   43  C14 UNL     1      38.014  21.852  12.177  1.00  0.00     0.103 C 
HETATM   44  C15 UNL     1      38.285  20.436  12.679  1.00  0.00     0.052 C 
HETATM   45  C16 UNL     1      37.170  20.000  13.600  1.00  0.00     0.169 C 
HETATM   46  O1  UNL     1      35.985  19.785  12.897  1.00  0.00    -0.391 OA
HETATM   47  C17 UNL     1      35.952  20.539  11.726  1.00  0.00     0.169 C 
HETATM   48  C18 UNL     1      36.513  21.925  11.936  1.00  0.00     0.052 C 
ENDBRANCH  41  43
ENDBRANCH   8  41
TORSDOF 9
ENDMDL
MODEL 3
REMARK VINA RESULT: -4.584489751      0.977      1.156
REMARK  9 active torsions:
REMARK  status: ('A' for Active; 'I' for Inactive)
REMARK    1  A    between atoms: C2_2  and  N1_3 
REMARK    2  A    between atoms: N1_3  and  C4_5 
REMARK    3  A    between atoms: C4_5  and  C5_6 
REMARK    4  A    between atoms: C4_5  and  C6_15 
REMARK    5  A    between atoms: C8_19  and  N7_20 
REMARK    6  A    between atoms: N7_20  and  C9_22 
REMARK    7  A    between atoms: C9_22  and  C10_23 
REMARK    8  A    between atoms: C13_31  and  N11_32 
REMARK    9  A    between atoms: N11_32  and  C14_34 
ROOT
HETATM    1  C6  UNL     1      34.711  15.923  13.419  1.00  0.00     0.133 A 
HETATM    2  N6  UNL     1      34.871  16.656  12.299  1.00  0.00    -0.336 N 
ATOM      3  H6  UNL     1      34.363  16.359  11.466  1.00  0.00     0.168 HD
HETATM    4  C7  UNL     1      35.638  17.738  12.196  1.00  0.00     0.110 A 
HETATM    5  C8  UNL     1      35.705  18.396  10.986  1.00  0.00     0.146 A 
HETATM    6  N10 UNL     1      36.485  19.478  10.931  1.00  0.00    -0.175 N 
ATOM      7  H10 UNL     1      36.568  19.999  10.059  1.00  0.00     0.186 HD
HETATM    8  C13 UNL     1      37.175  19.891  12.038  1.00  0.00     0.680 A 
HETATM    9  N12 UNL     1      37.107  19.252  13.214  1.00  0.00    -0.186 N 
ATOM     10  H12 UNL     1      37.634  19.590  14.019  1.00  0.00     0.184 HD
HETATM   11  C19 UNL     1      36.337  18.161  13.314  1.00  0.00     0.123 A 
HETATM   12  C20 UNL     1      36.204  17.452  14.462  1.00  0.00     0.130 A 
HETATM   13  N13 UNL     1      36.811  17.772  15.541  1.00  0.00    -0.384 N 
ATOM     14 1H13 UNL     1      36.711  17.239  16.405  1.00  0.00     0.157 HD
ATOM     15 2H13 UNL     1      37.416  18.593  15.527  1.00  0.00     0.157 HD
HETATM   16  N14 UNL     1      35.391  16.349  14.482  1.00  0.00    -0.325 N 
ATOM     17  H14 UNL     1      35.303  15.829  15.354  1.00  0.00     0.169 HD
ENDROOT
BRANCH   1  18
HETATM   18  C4  UNL     1      33.835  14.687  13.452  1.00  0.00     0.102 C 
BRANCH  18  19
HETATM   19  N1  UNL     1      33.073  14.523  12.249  1.00  0.00    -0.282 NA
HETATM   20  C3  UNL     1      32.302  13.255  12.488  1.00  0.00     0.117 C 
BRANCH  19  21
HETATM   21  C2  UNL     1      33.742  14.418  11.009  1.00  0.00     0.091 C 
HETATM   22  C1  UNL     1      33.089  13.538   9.979  1.00  0.00     0.021 C 
ENDBRANCH  19  21
ENDBRANCH  18  19
BRANCH  18  23
HETATM   23  C5  UNL     1      33.209  14.502  14.742  1.00  0.00     0.162 A 
HETATM   24  N2  UNL     1      31.999  14.947  15.167  1.00  0.00    -0.267 N 
HETATM   25  N3  UNL     1      31.720  14.560  16.376  1.00  0.00    -0.227 N 
ATOM     26  H2  UNL     1      31.377  15.524  14.599  1.00  0.00     0.190 HD
HETATM   27  N4  UNL     1      32.760  13.832  16.793  1.00  0.00    -0.227 N 
ATOM     28  H3  UNL     1      30.873  14.770  16.903  1.00  0.00     0.210 HD
HETATM   29  N5  UNL     1      33.649  13.795  15.824  1.00  0.00    -0.267 N 
ATOM     30  H4  UNL     1      32.849  13.384  17.705  1.00  0.00     0.210 HD
ATOM     31  H5  UNL     1      34.542  13.306  15.874  1.00  0.00     0.190 HD
ENDBRANCH  18  23
ENDBRANCH   1  18
BRANCH   5  32
HETATM   32  N7  UNL     1      35.046  17.990   9.975  1.00  0.00    -0.372 N 
ATOM     33  H7  UNL     1      34.116  17.616  10.158  1.00  0.00     0.161 HD
BRANCH  32  34
HETATM   34  C9  UNL     1      35.475  18.004   8.603  1.00  0.00     0.144 C 
BRANCH  34  35
HETATM   35  C10 UNL     1      36.378  16.796   8.390  1.00  0.00     0.121 C 
HETATM   36  C11 UNL     1      35.618  15.514   8.655  1.00  0.00     0.070 C 
HETATM   37  C12 UNL     1      36.561  14.738   9.501  1.00  0.00     0.078 C 
HETATM   38  N8  UNL     1      37.522  15.498   9.883  1.00  0.00    -0.319 N 
HETATM   39  N9  UNL     1      37.400  16.798   9.403  1.00  0.00    -0.135 NA
ATOM     40  H8  UNL     1      38.291  15.184  10.475  1.00  0.00     0.181 HD
ENDBRANCH  34  35
ENDBRANCH  32  34
ENDBRANCH   5  32
BRANCH   8  41
HETATM   41  N11 UNL     1      37.926  20.932  11.956  1.00  0.00    -0.221 N 
ATOM     42  H11 UNL     1      38.925  20.780  11.820  1.00  0.00     0.178 HD
BRANCH  41  43
HETATM   43  C14 UNL     1      37.473  22.286  12.040  1.00  0.00     0.103 C 
HETATM   44  C15 UNL     1      36.600  22.440  13.282  1.00  0.00     0.052 C 
HETATM   45  C16 UNL     1      37.474  22.601  14.503  1.00  0.00     0.169 C 
HETATM   46  O1  UNL     1      38.120  23.836  14.507  1.00  0.00    -0.391 OA
HETATM   47  C17 UNL     1      38.271  24.328  13.212  1.00  0.00     0.169 C 
HETATM   48  C18 UNL     1      38.645  23.236  12.239  1.00  0.00     0.052 C 
ENDBRANCH  41  43
ENDBRANCH   8  41
TORSDOF 9
ENDMDL
MODEL 4
REMARK VINA RESULT: -4.401859146      6.110     12.496
REMARK  9 active torsions:
REMARK  status: ('A' for Active; 'I' for Inactive)
REMARK    1  A    between atoms: C2_2  and  N1_3 
REMARK    2  A    between atoms: N1_3  and  C4_5 
REMARK    3  A    between atoms: C4_5  and  C5_6 
REMARK    4  A    between atoms: C4_5  and  C6_15 
REMARK    5  A    between atoms: C8_19  and  N7_20 
REMARK    6  A    between atoms: N7_20  and  C9_22 
REMARK    7  A    between atoms: C9_22  and  C10_23 
REMARK    8  A    between atoms: C13_31  and  N11_32 
REMARK    9  A    between atoms: N11_32  and  C14_34 
ROOT
HETATM    1  C6  UNL     1      41.393  28.140  11.752  1.00  0.00     0.133 A 
HETATM    2  N6  UNL     1      41.691  26.966  12.343  1.00  0.00    -0.336 N 
ATOM      3  H6  UNL     1      42.653  26.826  12.652  1.00  0.00     0.168 HD
HETATM    4  C7  UNL     1      40.830  25.975  12.555  1.00  0.00     0.110 A 
HETATM    5  C8  UNL     1      41.272  24.827  13.177  1.00  0.00     0.146 A 
HETATM    6  N10 UNL     1      40.371  23.861  13.372  1.00  0.00    -0.175 N 
ATOM      7  H10 UNL     1      40.650  22.993  13.828  1.00  0.00     0.186 HD
HETATM    8  C13 UNL     1      39.077  24.030  12.963  1.00  0.00     0.680 A 
HETATM    9  N12 UNL     1      38.647  25.147  12.361  1.00  0.00    -0.186 N 
ATOM     10  H12 UNL     1      37.673  25.239  12.071  1.00  0.00     0.184 HD
HETATM   11  C19 UNL     1      39.518  26.142  12.145  1.00  0.00     0.123 A 
HETATM   12  C20 UNL     1      39.174  27.309  11.547  1.00  0.00     0.130 A 
HETATM   13  N13 UNL     1      37.986  27.547  11.138  1.00  0.00    -0.384 N 
ATOM     14 1H13 UNL     1      37.727  28.425  10.687  1.00  0.00     0.157 HD
ATOM     15 2H13 UNL     1      37.278  26.826  11.271  1.00  0.00     0.157 HD
HETATM   16  N14 UNL     1      40.125  28.279  11.367  1.00  0.00    -0.325 N 
ATOM     17  H14 UNL     1      39.848  29.150  10.915  1.00  0.00     0.169 HD
ENDROOT
BRANCH   1  18
HETATM   18  C4  UNL     1      42.437  29.213  11.525  1.00  0.00     0.102 C 
BRANCH  18  19
HETATM   19  N1  UNL     1      42.898  29.251  10.168  1.00  0.00    -0.282 NA
HETATM   20  C3  UNL     1      43.374  27.847   9.915  1.00  0.00     0.117 C 
BRANCH  19  21
HETATM   21  C2  UNL     1      43.927  30.149   9.806  1.00  0.00     0.091 C 
HETATM   22  C1  UNL     1      44.956  29.621   8.845  1.00  0.00     0.021 C 
ENDBRANCH  19  21
ENDBRANCH  18  19
BRANCH  18  23
HETATM   23  C5  UNL     1      43.381  29.289  12.617  1.00  0.00     0.162 A 
HETATM   24  N2  UNL     1      43.270  29.973  13.785  1.00  0.00    -0.267 N 
HETATM   25  N3  UNL     1      44.287  29.785  14.573  1.00  0.00    -0.227 N 
ATOM     26  H2  UNL     1      42.475  30.569  14.018  1.00  0.00     0.190 HD
HETATM   27  N4  UNL     1      45.116  28.955  13.934  1.00  0.00    -0.227 N 
ATOM     28  H3  UNL     1      44.424  30.193  15.498  1.00  0.00     0.210 HD
HETATM   29  N5  UNL     1      44.582  28.658  12.770  1.00  0.00    -0.267 N 
ATOM     30  H4  UNL     1      46.010  28.613  14.289  1.00  0.00     0.210 HD
ATOM     31  H5  UNL     1      45.005  28.040  12.078  1.00  0.00     0.190 HD
ENDBRANCH  18  23
ENDBRANCH   1  18
BRANCH   5  32
HETATM   32  N7  UNL     1      42.482  24.702  13.552  1.00  0.00    -0.372 N 
ATOM     33  H7  UNL     1      42.723  23.837  14.034  1.00  0.00     0.161 HD
BRANCH  32  34
HETATM   34  C9  UNL     1      43.545  25.652  13.367  1.00  0.00     0.144 C 
BRANCH  34  35
HETATM   35  C10 UNL     1      44.757  24.893  12.843  1.00  0.00     0.121 C 
HETATM   36  C11 UNL     1      44.561  24.525  11.387  1.00  0.00     0.070 C 
HETATM   37  C12 UNL     1      44.977  23.099  11.347  1.00  0.00     0.078 C 
HETATM   38  N8  UNL     1      45.107  22.654  12.543  1.00  0.00    -0.319 N 
HETATM   39  N9  UNL     1      44.826  23.618  13.506  1.00  0.00    -0.135 NA
ATOM     40  H8  UNL     1      45.386  21.698  12.765  1.00  0.00     0.181 HD
ENDBRANCH  34  35
ENDBRANCH  32  34
ENDBRANCH   5  32
BRANCH   8  41
HETATM   41  N11 UNL     1      38.230  23.081  13.155  1.00  0.00    -0.221 N 
ATOM     42  H11 UNL     1      37.799  23.015  14.077  1.00  0.00     0.178 HD
BRANCH  41  43
HETATM   43  C14 UNL     1      37.842  22.110  12.178  1.00  0.00     0.103 C 
HETATM   44  C15 UNL     1      38.348  20.738  12.615  1.00  0.00     0.052 C 
HETATM   45  C16 UNL     1      37.411  20.154  13.646  1.00  0.00     0.169 C 
HETATM   46  O1  UNL     1      36.191  19.792  13.077  1.00  0.00    -0.391 OA
HETATM   47  C17 UNL     1      35.928  20.544  11.933  1.00  0.00     0.169 C 
HETATM   48  C18 UNL     1      36.327  21.989  12.109  1.00  0.00     0.052 C 
ENDBRANCH  41  43
ENDBRANCH   8  41
TORSDOF 9
ENDMDL
MODEL 5
REMARK VINA RESULT: -4.254870315      0.964      1.074
REMARK  9 active torsions:
REMARK  status: ('A' for Active; 'I' for Inactive)
REMARK    1  A    between atoms: C2_2  and  N1_3 
REMARK    2  A    between atoms: N1_3  and  C4_5 
REMARK    3  A    between atoms: C4_5  and  C5_6 
REMARK    4  A    between atoms: C4_5  and  C6_15 
REMARK    5  A    between atoms: C8_19  and  N7_20 
REMARK    6  A    between atoms: N7_20  and  C9_22 
REMARK    7  A    between atoms: C9_22  and  C10_23 
REMARK    8  A    between atoms: C13_31  and  N11_32 
REMARK    9  A    between atoms: N11_32  and  C14_34 
ROOT
HETATM    1  C6  UNL     1      34.804  15.918  13.605  1.00  0.00     0.133 A 
HETATM    2  N6  UNL     1      34.829  16.736  12.533  1.00  0.00    -0.336 N 
ATOM      3  H6  UNL     1      34.243  16.486  11.736  1.00  0.00     0.168 HD
HETATM    4  C7  UNL     1      35.557  17.845  12.433  1.00  0.00     0.110 A 
HETATM    5  C8  UNL     1      35.482  18.591  11.277  1.00  0.00     0.146 A 
HETATM    6  N10 UNL     1      36.228  19.697  11.223  1.00  0.00    -0.175 N 
ATOM      7  H10 UNL     1      36.207  20.283  10.389  1.00  0.00     0.186 HD
HETATM    8  C13 UNL     1      37.020  20.049  12.281  1.00  0.00     0.680 A 
HETATM    9  N12 UNL     1      37.091  19.324  13.406  1.00  0.00    -0.186 N 
ATOM     10  H12 UNL     1      37.692  19.618  14.176  1.00  0.00     0.184 HD
HETATM   11  C19 UNL     1      36.359  18.206  13.502  1.00  0.00     0.123 A 
HETATM   12  C20 UNL     1      36.364  17.412  14.601  1.00  0.00     0.130 A 
HETATM   13  N13 UNL     1      37.074  17.670  15.633  1.00  0.00    -0.384 N 
ATOM     14 1H13 UNL     1      37.077  17.072  16.459  1.00  0.00     0.157 HD
ATOM     15 2H13 UNL     1      37.655  18.508  15.618  1.00  0.00     0.157 HD
HETATM   16  N14 UNL     1      35.582  16.286  14.621  1.00  0.00    -0.325 N 
ATOM     17  H14 UNL     1      35.598  15.701  15.456  1.00  0.00     0.169 HD
ENDROOT
BRANCH   1  18
HETATM   18  C4  UNL     1      33.964  14.658  13.633  1.00  0.00     0.102 C 
BRANCH  18  19
HETATM   19  N1  UNL     1      33.268  14.434  12.400  1.00  0.00    -0.282 NA
HETATM   20  C3  UNL     1      32.190  13.455  12.775  1.00  0.00     0.117 C 
BRANCH  19  21
HETATM   21  C2  UNL     1      33.971  13.928  11.285  1.00  0.00     0.091 C 
HETATM   22  C1  UNL     1      33.135  13.282  10.215  1.00  0.00     0.021 C 
ENDBRANCH  19  21
ENDBRANCH  18  19
BRANCH  18  23
HETATM   23  C5  UNL     1      33.280  14.493  14.897  1.00  0.00     0.162 A 
HETATM   24  N2  UNL     1      32.051  14.942  15.258  1.00  0.00    -0.267 N 
HETATM   25  N3  UNL     1      31.718  14.574  16.460  1.00  0.00    -0.227 N 
ATOM     26  H2  UNL     1      31.454  15.506  14.653  1.00  0.00     0.190 HD
HETATM   27  N4  UNL     1      32.739  13.857  16.936  1.00  0.00    -0.227 N 
ATOM     28  H3  UNL     1      30.846  14.791  16.944  1.00  0.00     0.210 HD
HETATM   29  N5  UNL     1      33.671  13.806  16.010  1.00  0.00    -0.267 N 
ATOM     30  H4  UNL     1      32.788  13.424  17.859  1.00  0.00     0.210 HD
ATOM     31  H5  UNL     1      34.562  13.321  16.109  1.00  0.00     0.190 HD
ENDBRANCH  18  23
ENDBRANCH   1  18
BRANCH   5  32
HETATM   32  N7  UNL     1      34.730  18.241  10.311  1.00  0.00    -0.372 N 
ATOM     33  H7  UNL     1      34.596  18.924   9.566  1.00  0.00     0.161 HD
BRANCH  32  34
HETATM   34  C9  UNL     1      34.050  16.984  10.159  1.00  0.00     0.144 C 
BRANCH  34  35
HETATM   35  C10 UNL     1      34.641  16.282   8.943  1.00  0.00     0.121 C 
HETATM   36  C11 UNL     1      35.983  15.672   9.286  1.00  0.00     0.070 C 
HETATM   37  C12 UNL     1      36.837  16.083   8.142  1.00  0.00     0.078 C 
HETATM   38  N8  UNL     1      36.222  16.966   7.442  1.00  0.00    -0.319 N 
HETATM   39  N9  UNL     1      34.964  17.272   7.951  1.00  0.00    -0.135 NA
ATOM     40  H8  UNL     1      36.614  17.397   6.604  1.00  0.00     0.181 HD
ENDBRANCH  34  35
ENDBRANCH  32  34
ENDBRANCH   5  32
BRANCH   8  41
HETATM   41  N11 UNL     1      37.736  21.115  12.202  1.00  0.00    -0.221 N 
ATOM     42  H11 UNL     1      38.744  20.997  12.105  1.00  0.00     0.178 HD
BRANCH  41  43
HETATM   43  C14 UNL     1      37.231  22.453  12.237  1.00  0.00     0.103 C 
HETATM   44  C15 UNL     1      36.695  22.743  13.636  1.00  0.00     0.052 C 
HETATM   45  C16 UNL     1      37.839  23.093  14.558  1.00  0.00     0.169 C 
HETATM   46  O1  UNL     1      38.382  24.338  14.245  1.00  0.00    -0.391 OA
HETATM   47  C17 UNL     1      38.165  24.657  12.906  1.00  0.00     0.169 C 
HETATM   48  C18 UNL     1      38.350  23.458  12.007  1.00  0.00     0.052 C 
ENDBRANCH  41  43
ENDBRANCH   8  41
TORSDOF 9
ENDMDL
