MODEL 1
REMARK VINA RESULT: -6.827228281      0.000      0.000
REMARK  14 active torsions:
REMARK  status: ('A' for Active; 'I' for Inactive)
REMARK    1  A    between atoms: O1_1  and  C1_3 
REMARK    2  A    between atoms: C1_3  and  C2_4 
REMARK    3  A    between atoms: C2_4  and  O2_5 
REMARK    4  A    between atoms: C2_4  and  C3_7 
REMARK    5  A    between atoms: C3_7  and  O3_8 
REMARK    6  A    between atoms: C3_7  and  C4_10 
REMARK    7  A    between atoms: S1_13  and  C7_14 
REMARK    8  A    between atoms: C7_14  and  C8_15 
REMARK    9  A    between atoms: C8_15  and  O4_16 
REMARK   10  A    between atoms: C8_15  and  C9_18 
REMARK   11  A    between atoms: C9_18  and  O5_19 
REMARK   12  A    between atoms: C9_18  and  N1_21 
REMARK   13  A    between atoms: N1_21  and  C10_23 
REMARK   14  A    between atoms: C10_23  and  C11_24 
ROOT
HETATM    1  C4  UNL     1      16.113  -8.402  17.407  1.00  0.00     0.069 C 
HETATM    2  C5  UNL     1      16.719  -9.735  17.536  1.00  0.00     0.026 C 
HETATM    3  C6  UNL     1      17.850  -9.033  18.348  1.00  0.00     0.065 C 
HETATM    4  S1  UNL     1      16.488  -8.123  19.119  1.00  0.00    -0.210 SA
ENDROOT
BRANCH   4   5
HETATM    5  C7  UNL     1      17.079  -6.482  19.471  1.00  0.00     0.100 C 
BRANCH   5   6
HETATM    6  C8  UNL     1      16.356  -6.042  20.751  1.00  0.00     0.175 C 
BRANCH   6   7
HETATM    7  O4  UNL     1      15.135  -6.681  20.836  1.00  0.00    -0.390 OA
ATOM      8  H4  UNL     1      15.085  -7.164  21.653  1.00  0.00     0.210 HD
ENDBRANCH   6   7
BRANCH   6   9
HETATM    9  C9  UNL     1      16.186  -4.564  20.811  1.00  0.00     0.246 C 
BRANCH   9  10
HETATM   10  O5  UNL     1      15.593  -4.139  19.613  1.00  0.00    -0.374 OA
ATOM     11  H5  UNL     1      15.823  -3.228  19.472  1.00  0.00     0.212 HD
ENDBRANCH   9  10
BRANCH   9  12
HETATM   12  N1  UNL     1      15.576  -4.047  21.959  1.00  0.00    -0.374 N 
ATOM     13  H1  UNL     1      15.059  -4.681  22.570  1.00  0.00     0.161 HD
BRANCH  12  14
HETATM   14  C10 UNL     1      15.648  -2.690  22.300  1.00  0.00     0.062 C 
BRANCH  14  15
HETATM   15  C11 UNL     1      14.368  -2.074  22.800  1.00  0.00     0.024 A 
HETATM   16  C12 UNL     1      14.067  -0.733  22.108  1.00  0.00     0.010 A 
HETATM   17  C13 UNL     1      14.289  -0.841  23.580  1.00  0.00     0.010 A 
ENDBRANCH  14  15
ENDBRANCH  12  14
ENDBRANCH   9  12
ENDBRANCH   6   9
ENDBRANCH   5   6
ENDBRANCH   4   5
BRANCH   1  18
HETATM   18  C3  UNL     1      14.779  -8.121  16.914  1.00  0.00     0.162 C 
BRANCH  18  19
HETATM   19  C2  UNL     1      13.700  -7.630  17.789  1.00  0.00     0.171 C 
BRANCH  19  20
HETATM   20  C1  UNL     1      12.336  -7.500  17.108  1.00  0.00     0.198 C 
BRANCH  20  21
HETATM   21  O1  UNL     1      11.575  -8.616  17.085  1.00  0.00    -0.398 OA
ATOM     22  H1  UNL     1      10.821  -8.595  16.508  1.00  0.00     0.209 HD
ENDBRANCH  20  21
ENDBRANCH  19  20
BRANCH  19  23
HETATM   23  O2  UNL     1      14.005  -6.242  18.050  1.00  0.00    -0.391 OA
ATOM     24  H2  UNL     1      14.001  -6.234  19.000  1.00  0.00     0.210 HD
ENDBRANCH  19  23
ENDBRANCH  18  19
BRANCH  18  25
HETATM   25  O3  UNL     1      14.270  -9.077  16.036  1.00  0.00    -0.392 OA
ATOM     26  H3  UNL     1      13.819  -9.754  16.528  1.00  0.00     0.210 HD
ENDBRANCH  18  25
ENDBRANCH   1  18
TORSDOF 14
ENDMDL
MODEL 2
REMARK VINA RESULT: -6.533288442      1.229      1.802
REMARK  14 active torsions:
REMARK  status: ('A' for Active; 'I' for Inactive)
REMARK    1  A    between atoms: O1_1  and  C1_3 
REMARK    2  A    between atoms: C1_3  and  C2_4 
REMARK    3  A    between atoms: C2_4  and  O2_5 
REMARK    4  A    between atoms: C2_4  and  C3_7 
REMARK    5  A    between atoms: C3_7  and  O3_8 
REMARK    6  A    between atoms: C3_7  and  C4_10 
REMARK    7  A    between atoms: S1_13  and  C7_14 
REMARK    8  A    between atoms: C7_14  and  C8_15 
REMARK    9  A    between atoms: C8_15  and  O4_16 
REMARK   10  A    between atoms: C8_15  and  C9_18 
REMARK   11  A    between atoms: C9_18  and  O5_19 
REMARK   12  A    between atoms: C9_18  and  N1_21 
REMARK   13  A    between atoms: N1_21  and  C10_23 
REMARK   14  A    between atoms: C10_23  and  C11_24 
ROOT
HETATM    1  C4  UNL     1      16.114  -8.441  17.397  1.00  0.00     0.069 C 
HETATM    2  C5  UNL     1      16.699  -9.783  17.528  1.00  0.00     0.026 C 
HETATM    3  C6  UNL     1      17.835  -9.099  18.350  1.00  0.00     0.065 C 
HETATM    4  S1  UNL     1      16.481  -8.170  19.113  1.00  0.00    -0.210 SA
ENDROOT
BRANCH   4   5
HETATM    5  C7  UNL     1      17.093  -6.539  19.472  1.00  0.00     0.100 C 
BRANCH   5   6
HETATM    6  C8  UNL     1      16.370  -6.093  20.750  1.00  0.00     0.175 C 
BRANCH   6   7
HETATM    7  O4  UNL     1      15.144  -6.721  20.832  1.00  0.00    -0.390 OA
ATOM      8  H4  UNL     1      15.248  -7.647  20.647  1.00  0.00     0.210 HD
ENDBRANCH   6   7
BRANCH   6   9
HETATM    9  C9  UNL     1      16.214  -4.613  20.810  1.00  0.00     0.246 C 
BRANCH   9  10
HETATM   10  O5  UNL     1      15.599  -4.186  19.624  1.00  0.00    -0.374 OA
ATOM     11  H5  UNL     1      15.440  -4.948  19.079  1.00  0.00     0.212 HD
ENDBRANCH   9  10
BRANCH   9  12
HETATM   12  N1  UNL     1      15.632  -4.088  21.970  1.00  0.00    -0.374 N 
ATOM     13  H1  UNL     1      14.684  -4.374  22.217  1.00  0.00     0.161 HD
BRANCH  12  14
HETATM   14  C10 UNL     1      16.305  -3.186  22.803  1.00  0.00     0.062 C 
BRANCH  14  15
HETATM   15  C11 UNL     1      17.558  -3.709  23.455  1.00  0.00     0.024 A 
HETATM   16  C12 UNL     1      17.541  -3.503  24.980  1.00  0.00     0.010 A 
HETATM   17  C13 UNL     1      18.569  -2.875  24.099  1.00  0.00     0.010 A 
ENDBRANCH  14  15
ENDBRANCH  12  14
ENDBRANCH   9  12
ENDBRANCH   6   9
ENDBRANCH   5   6
ENDBRANCH   4   5
BRANCH   1  18
HETATM   18  C3  UNL     1      14.787  -8.140  16.896  1.00  0.00     0.162 C 
BRANCH  18  19
HETATM   19  C2  UNL     1      13.704  -7.652  17.768  1.00  0.00     0.171 C 
BRANCH  19  20
HETATM   20  C1  UNL     1      12.341  -7.531  17.084  1.00  0.00     0.198 C 
BRANCH  20  21
HETATM   21  O1  UNL     1      11.583  -8.648  17.068  1.00  0.00    -0.398 OA
ATOM     22  H1  UNL     1      11.262  -8.948  17.910  1.00  0.00     0.209 HD
ENDBRANCH  20  21
ENDBRANCH  19  20
BRANCH  19  23
HETATM   23  O2  UNL     1      14.002  -6.262  18.025  1.00  0.00    -0.391 OA
ATOM     24  H2  UNL     1      14.571  -6.339  18.782  1.00  0.00     0.210 HD
ENDBRANCH  19  23
ENDBRANCH  18  19
BRANCH  18  25
HETATM   25  O3  UNL     1      14.278  -9.078  15.998  1.00  0.00    -0.392 OA
ATOM     26  H3  UNL     1      13.409  -9.346  16.275  1.00  0.00     0.210 HD
ENDBRANCH  18  25
ENDBRANCH   1  18
TORSDOF 14
ENDMDL
MODEL 3
REMARK VINA RESULT: -6.452058953      2.225      2.928
REMARK  14 active torsions:
REMARK  status: ('A' for Active; 'I' for Inactive)
REMARK    1  A    between atoms: O1_1  and  C1_3 
REMARK    2  A    between atoms: C1_3  and  C2_4 
REMARK    3  A    between atoms: C2_4  and  O2_5 
REMARK    4  A    between atoms: C2_4  and  C3_7 
REMARK    5  A    between atoms: C3_7  and  O3_8 
REMARK    6  A    between atoms: C3_7  and  C4_10 
REMARK    7  A    between atoms: S1_13  and  C7_14 
REMARK    8  A    between atoms: C7_14  and  C8_15 
REMARK    9  A    between atoms: C8_15  and  O4_16 
REMARK   10  A    between atoms: C8_15  and  C9_18 
REMARK   11  A    between atoms: C9_18  and  O5_19 
REMARK   12  A    between atoms: C9_18  and  N1_21 
REMARK   13  A    between atoms: N1_21  and  C10_23 
REMARK   14  A    between atoms: C10_23  and  C11_24 
ROOT
HETATM    1  C4  UNL     1      15.696  -8.243  17.935  1.00  0.00     0.069 C 
HETATM    2  C5  UNL     1      15.957  -9.593  18.454  1.00  0.00     0.026 C 
HETATM    3  C6  UNL     1      17.127  -8.950  19.260  1.00  0.00     0.065 C 
HETATM    4  S1  UNL     1      15.940  -7.620  19.580  1.00  0.00    -0.210 SA
ENDROOT
BRANCH   4   5
HETATM    5  C7  UNL     1      16.856  -6.096  19.647  1.00  0.00     0.100 C 
BRANCH   5   6
HETATM    6  C8  UNL     1      15.872  -5.039  20.166  1.00  0.00     0.175 C 
BRANCH   6   7
HETATM    7  O4  UNL     1      15.546  -4.169  19.145  1.00  0.00    -0.390 OA
ATOM      8  H4  UNL     1      15.636  -3.274  19.448  1.00  0.00     0.210 HD
ENDBRANCH   6   7
BRANCH   6   9
HETATM    9  C9  UNL     1      16.419  -4.302  21.337  1.00  0.00     0.246 C 
BRANCH   9  10
HETATM   10  O5  UNL     1      15.378  -4.097  22.255  1.00  0.00    -0.374 OA
ATOM     11  H5  UNL     1      15.250  -4.900  22.746  1.00  0.00     0.212 HD
ENDBRANCH   9  10
BRANCH   9  12
HETATM   12  N1  UNL     1      17.588  -4.815  21.913  1.00  0.00    -0.374 N 
ATOM     13  H1  UNL     1      18.012  -5.649  21.507  1.00  0.00     0.161 HD
BRANCH  12  14
HETATM   14  C10 UNL     1      18.196  -4.223  23.028  1.00  0.00     0.062 C 
BRANCH  14  15
HETATM   15  C11 UNL     1      19.679  -3.988  22.914  1.00  0.00     0.024 A 
HETATM   16  C12 UNL     1      20.438  -4.492  24.154  1.00  0.00     0.010 A 
HETATM   17  C13 UNL     1      20.439  -3.057  23.744  1.00  0.00     0.010 A 
ENDBRANCH  14  15
ENDBRANCH  12  14
ENDBRANCH   9  12
ENDBRANCH   6   9
ENDBRANCH   5   6
ENDBRANCH   4   5
BRANCH   1  18
HETATM   18  C3  UNL     1      14.525  -7.834  17.184  1.00  0.00     0.162 C 
BRANCH  18  19
HETATM   19  C2  UNL     1      13.326  -7.275  17.833  1.00  0.00     0.171 C 
BRANCH  19  20
HETATM   20  C1  UNL     1      12.044  -7.384  17.005  1.00  0.00     0.198 C 
BRANCH  20  21
HETATM   21  O1  UNL     1      11.425  -8.584  17.023  1.00  0.00    -0.398 OA
ATOM     22  H1  UNL     1      10.504  -8.583  16.793  1.00  0.00     0.209 HD
ENDBRANCH  20  21
ENDBRANCH  19  20
BRANCH  19  23
HETATM   23  O2  UNL     1      13.518  -5.843  17.846  1.00  0.00    -0.391 OA
ATOM     24  H2  UNL     1      12.790  -5.571  18.392  1.00  0.00     0.210 HD
ENDBRANCH  19  23
ENDBRANCH  18  19
BRANCH  18  25
HETATM   25  O3  UNL     1      14.142  -8.720  16.178  1.00  0.00    -0.392 OA
ATOM     26  H3  UNL     1      14.611  -9.541  16.280  1.00  0.00     0.210 HD
ENDBRANCH  18  25
ENDBRANCH   1  18
TORSDOF 14
ENDMDL
MODEL 4
REMARK VINA RESULT: -6.378680724      3.007      5.792
REMARK  14 active torsions:
REMARK  status: ('A' for Active; 'I' for Inactive)
REMARK    1  A    between atoms: O1_1  and  C1_3 
REMARK    2  A    between atoms: C1_3  and  C2_4 
REMARK    3  A    between atoms: C2_4  and  O2_5 
REMARK    4  A    between atoms: C2_4  and  C3_7 
REMARK    5  A    between atoms: C3_7  and  O3_8 
REMARK    6  A    between atoms: C3_7  and  C4_10 
REMARK    7  A    between atoms: S1_13  and  C7_14 
REMARK    8  A    between atoms: C7_14  and  C8_15 
REMARK    9  A    between atoms: C8_15  and  O4_16 
REMARK   10  A    between atoms: C8_15  and  C9_18 
REMARK   11  A    between atoms: C9_18  and  O5_19 
REMARK   12  A    between atoms: C9_18  and  N1_21 
REMARK   13  A    between atoms: N1_21  and  C10_23 
REMARK   14  A    between atoms: C10_23  and  C11_24 
ROOT
HETATM    1  C4  UNL     1      16.738  -8.553  20.399  1.00  0.00     0.069 C 
HETATM    2  C5  UNL     1      17.818  -8.772  21.372  1.00  0.00     0.026 C 
HETATM    3  C6  UNL     1      17.983 -10.180  20.721  1.00  0.00     0.065 C 
HETATM    4  S1  UNL     1      17.776  -9.287  19.160  1.00  0.00    -0.210 SA
ENDROOT
BRANCH   4   5
HETATM    5  C7  UNL     1      16.912 -10.367  18.041  1.00  0.00     0.100 C 
BRANCH   5   6
HETATM    6  C8  UNL     1      16.618  -9.528  16.791  1.00  0.00     0.175 C 
BRANCH   6   7
HETATM    7  O4  UNL     1      17.016  -8.223  17.005  1.00  0.00    -0.390 OA
ATOM      8  H4  UNL     1      17.736  -8.010  16.422  1.00  0.00     0.210 HD
ENDBRANCH   6   7
BRANCH   6   9
HETATM    9  C9  UNL     1      15.181  -9.589  16.409  1.00  0.00     0.246 C 
BRANCH   9  10
HETATM   10  O5  UNL     1      15.050 -10.469  15.324  1.00  0.00    -0.374 OA
ATOM     11  H5  UNL     1      14.357 -10.146  14.760  1.00  0.00     0.212 HD
ENDBRANCH   9  10
BRANCH   9  12
HETATM   12  N1  UNL     1      14.265  -9.823  17.441  1.00  0.00    -0.374 N 
ATOM     13  H1  UNL     1      14.177 -10.768  17.816  1.00  0.00     0.161 HD
BRANCH  12  14
HETATM   14  C10 UNL     1      13.465  -8.806  17.978  1.00  0.00     0.062 C 
BRANCH  14  15
HETATM   15  C11 UNL     1      13.195  -7.638  17.066  1.00  0.00     0.024 A 
HETATM   16  C12 UNL     1      13.504  -6.294  17.747  1.00  0.00     0.010 A 
HETATM   17  C13 UNL     1      12.136  -6.653  17.269  1.00  0.00     0.010 A 
ENDBRANCH  14  15
ENDBRANCH  12  14
ENDBRANCH   9  12
ENDBRANCH   6   9
ENDBRANCH   5   6
ENDBRANCH   4   5
BRANCH   1  18
HETATM   18  C3  UNL     1      16.087  -7.287  20.125  1.00  0.00     0.162 C 
BRANCH  18  19
HETATM   19  C2  UNL     1      16.836  -6.024  19.999  1.00  0.00     0.171 C 
BRANCH  19  20
HETATM   20  C1  UNL     1      16.067  -4.779  20.445  1.00  0.00     0.198 C 
BRANCH  20  21
HETATM   21  O1  UNL     1      15.811  -4.681  21.767  1.00  0.00    -0.398 OA
ATOM     22  H1  UNL     1      14.938  -4.390  22.003  1.00  0.00     0.209 HD
ENDBRANCH  20  21
ENDBRANCH  19  20
BRANCH  19  23
HETATM   23  O2  UNL     1      16.952  -5.776  18.579  1.00  0.00    -0.391 OA
ATOM     24  H2  UNL     1      16.411  -6.474  18.232  1.00  0.00     0.210 HD
ENDBRANCH  19  23
ENDBRANCH  18  19
BRANCH  18  25
HETATM   25  O3  UNL     1      14.917  -7.065  20.852  1.00  0.00    -0.392 OA
ATOM     26  H3  UNL     1      15.078  -7.232  21.773  1.00  0.00     0.210 HD
ENDBRANCH  18  25
ENDBRANCH   1  18
TORSDOF 14
ENDMDL
MODEL 5
REMARK VINA RESULT: -6.334895568      1.114      1.627
REMARK  14 active torsions:
REMARK  status: ('A' for Active; 'I' for Inactive)
REMARK    1  A    between atoms: O1_1  and  C1_3 
REMARK    2  A    between atoms: C1_3  and  C2_4 
REMARK    3  A    between atoms: C2_4  and  O2_5 
REMARK    4  A    between atoms: C2_4  and  C3_7 
REMARK    5  A    between atoms: C3_7  and  O3_8 
REMARK    6  A    between atoms: C3_7  and  C4_10 
REMARK    7  A    between atoms: S1_13  and  C7_14 
REMARK    8  A    between atoms: C7_14  and  C8_15 
REMARK    9  A    between atoms: C8_15  and  O4_16 
REMARK   10  A    between atoms: C8_15  and  C9_18 
REMARK   11  A    between atoms: C9_18  and  O5_19 
REMARK   12  A    between atoms: C9_18  and  N1_21 
REMARK   13  A    between atoms: N1_21  and  C10_23 
REMARK   14  A    between atoms: C10_23  and  C11_24 
ROOT
HETATM    1  C4  UNL     1      14.974  -8.712  17.061  1.00  0.00     0.069 C 
HETATM    2  C5  UNL     1      15.785  -9.831  16.559  1.00  0.00     0.026 C 
HETATM    3  C6  UNL     1      17.016  -8.891  16.739  1.00  0.00     0.065 C 
HETATM    4  S1  UNL     1      16.217  -8.436  18.298  1.00  0.00    -0.210 SA
ENDROOT
BRANCH   4   5
HETATM    5  C7  UNL     1      16.573  -6.718  18.595  1.00  0.00     0.100 C 
BRANCH   5   6
HETATM    6  C8  UNL     1      16.181  -6.456  20.055  1.00  0.00     0.175 C 
BRANCH   6   7
HETATM    7  O4  UNL     1      14.944  -7.014  20.310  1.00  0.00    -0.390 OA
ATOM      8  H4  UNL     1      15.030  -7.958  20.383  1.00  0.00     0.210 HD
ENDBRANCH   6   7
BRANCH   6   9
HETATM    9  C9  UNL     1      16.183  -5.002  20.376  1.00  0.00     0.246 C 
BRANCH   9  10
HETATM   10  O5  UNL     1      15.548  -4.318  19.328  1.00  0.00    -0.374 OA
ATOM     11  H5  UNL     1      15.983  -3.481  19.211  1.00  0.00     0.212 HD
ENDBRANCH   9  10
BRANCH   9  12
HETATM   12  N1  UNL     1      15.726  -4.637  21.648  1.00  0.00    -0.374 N 
ATOM     13  H1  UNL     1      15.169  -5.306  22.181  1.00  0.00     0.161 HD
BRANCH  12  14
HETATM   14  C10 UNL     1      16.007  -3.388  22.215  1.00  0.00     0.062 C 
BRANCH  14  15
HETATM   15  C11 UNL     1      14.830  -2.459  22.364  1.00  0.00     0.024 A 
HETATM   16  C12 UNL     1      15.134  -1.055  21.814  1.00  0.00     0.010 A 
HETATM   17  C13 UNL     1      14.796  -1.297  23.248  1.00  0.00     0.010 A 
ENDBRANCH  14  15
ENDBRANCH  12  14
ENDBRANCH   9  12
ENDBRANCH   6   9
ENDBRANCH   5   6
ENDBRANCH   4   5
BRANCH   1  18
HETATM   18  C3  UNL     1      13.581  -8.783  17.454  1.00  0.00     0.162 C 
BRANCH  18  19
HETATM   19  C2  UNL     1      12.536  -7.966  16.812  1.00  0.00     0.171 C 
BRANCH  19  20
HETATM   20  C1  UNL     1      12.260  -6.627  17.500  1.00  0.00     0.198 C 
BRANCH  20  21
HETATM   21  O1  UNL     1      13.329  -6.011  18.050  1.00  0.00    -0.398 OA
ATOM     22  H1  UNL     1      13.138  -5.312  18.664  1.00  0.00     0.209 HD
ENDBRANCH  20  21
ENDBRANCH  19  20
BRANCH  19  23
HETATM   23  O2  UNL     1      11.290  -8.657  17.056  1.00  0.00    -0.391 OA
ATOM     24  H2  UNL     1      10.843  -8.028  17.610  1.00  0.00     0.210 HD
ENDBRANCH  19  23
ENDBRANCH  18  19
BRANCH  18  25
HETATM   25  O3  UNL     1      13.366  -8.818  18.832  1.00  0.00    -0.392 OA
ATOM     26  H3  UNL     1      14.091  -9.262  19.256  1.00  0.00     0.210 HD
ENDBRANCH  18  25
ENDBRANCH   1  18
TORSDOF 14
ENDMDL
