MODEL 1
REMARK VINA RESULT: -6.645181382      0.000      0.000
REMARK  11 active torsions:
REMARK  status: ('A' for Active; 'I' for Inactive)
REMARK       I    between atoms: C1_2  and  N3_15 
REMARK    1  A    between atoms: N2_3  and  C2_5 
REMARK    2  A    between atoms: C2_5  and  C3_6 
REMARK    3  A    between atoms: C3_6  and  O1_7 
REMARK    4  A    between atoms: O1_7  and  C4_8 
REMARK    5  A    between atoms: C4_8  and  C5_9 
REMARK    6  A    between atoms: C5_9  and  O2_10 
REMARK    7  A    between atoms: O2_10  and  C6_11 
REMARK    8  A    between atoms: C6_11  and  C7_12 
REMARK    9  A    between atoms: C7_12  and  O3_13 
REMARK       I    between atoms: C8_17  and  N5_19 
REMARK   10  A    between atoms: N5_19  and  C9_21 
REMARK   11  A    between atoms: C12_27  and  N7_28 
ROOT
HETATM    1  N1  UNL     1      13.416  -0.534  24.066  1.00  0.00    -0.063 NA
HETATM    2  C1  UNL     1      14.405  -1.019  23.171  1.00  0.00     0.190 C 
HETATM    3  N2  UNL     1      14.133  -1.962  22.329  1.00  0.00    -0.362 N 
ATOM      4  H2  UNL     1      13.193  -2.359  22.312  1.00  0.00     0.162 HD
HETATM    5  N3  UNL     1      15.716  -0.473  23.184  1.00  0.00    -0.305 N 
ATOM      6  H3  UNL     1      16.035   0.145  22.438  1.00  0.00     0.171 HD
HETATM    7  C8  UNL     1      16.490  -0.779  24.165  1.00  0.00     0.192 C 
HETATM    8  N4  UNL     1      16.093  -1.634  25.223  1.00  0.00    -0.063 NA
HETATM    9  N5  UNL     1      17.799  -0.236  24.184  1.00  0.00    -0.335 N 
ATOM     10  H5  UNL     1      18.491  -0.514  23.488  1.00  0.00     0.164 HD
ENDROOT
BRANCH   3  11
HETATM   11  C2  UNL     1      15.117  -2.462  21.419  1.00  0.00     0.148 C 
BRANCH  11  12
HETATM   12  C3  UNL     1      15.754  -3.748  21.947  1.00  0.00     0.187 C 
BRANCH  12  13
HETATM   13  O1  UNL     1      16.863  -3.974  21.205  1.00  0.00    -0.387 OA
BRANCH  13  14
HETATM   14  C4  UNL     1      17.715  -4.989  21.622  1.00  0.00     0.193 C 
BRANCH  14  15
HETATM   15  C5  UNL     1      17.690  -6.215  20.741  1.00  0.00     0.193 C 
BRANCH  15  16
HETATM   16  O2  UNL     1      17.394  -6.121  19.511  1.00  0.00    -0.387 OA
BRANCH  16  17
HETATM   17  C6  UNL     1      16.666  -6.241  18.496  1.00  0.00     0.193 C 
BRANCH  17  18
HETATM   18  C7  UNL     1      15.324  -5.567  18.430  1.00  0.00     0.190 C 
BRANCH  18  19
HETATM   19  O3  UNL     1      15.427  -4.217  18.459  1.00  0.00    -0.399 OA
ATOM     20  H3  UNL     1      15.591  -3.850  17.599  1.00  0.00     0.209 HD
ENDBRANCH  18  19
ENDBRANCH  17  18
ENDBRANCH  16  17
ENDBRANCH  15  16
ENDBRANCH  14  15
ENDBRANCH  13  14
ENDBRANCH  12  13
ENDBRANCH  11  12
ENDBRANCH   3  11
BRANCH   9  21
HETATM   21  C9  UNL     1      18.124   0.712  25.207  1.00  0.00     0.316 C 
HETATM   22  N6  UNL     1      16.927   1.356  25.767  1.00  0.00    -0.052 N 
HETATM   23  C10 UNL     1      17.537   2.368  26.608  1.00  0.00     0.237 C 
ATOM     24  H62 UNL     1      16.250   1.699  25.085  1.00  0.00     0.279 HD
ATOM     25  H61 UNL     1      16.269   0.732  26.234  1.00  0.00     0.279 HD
HETATM   26  C11 UNL     1      18.513   3.024  25.656  1.00  0.00     0.064 C 
HETATM   27  C12 UNL     1      18.865   1.916  24.671  1.00  0.00     0.235 C 
BRANCH  27  28
HETATM   28  N7  UNL     1      18.286   2.229  23.357  1.00  0.00    -0.071 N 
ATOM     29  H73 UNL     1      18.333   1.448  22.703  1.00  0.00     0.274 HD
ATOM     30  H72 UNL     1      17.270   2.320  23.379  1.00  0.00     0.274 HD
ATOM     31  H71 UNL     1      18.756   3.067  23.015  1.00  0.00     0.274 HD
ENDBRANCH  27  28
ENDBRANCH   9  21
TORSDOF 11
ENDMDL
MODEL 2
REMARK VINA RESULT: -6.529770230      4.106      6.541
REMARK  11 active torsions:
REMARK  status: ('A' for Active; 'I' for Inactive)
REMARK       I    between atoms: C1_2  and  N3_15 
REMARK    1  A    between atoms: N2_3  and  C2_5 
REMARK    2  A    between atoms: C2_5  and  C3_6 
REMARK    3  A    between atoms: C3_6  and  O1_7 
REMARK    4  A    between atoms: O1_7  and  C4_8 
REMARK    5  A    between atoms: C4_8  and  C5_9 
REMARK    6  A    between atoms: C5_9  and  O2_10 
REMARK    7  A    between atoms: O2_10  and  C6_11 
REMARK    8  A    between atoms: C6_11  and  C7_12 
REMARK    9  A    between atoms: C7_12  and  O3_13 
REMARK       I    between atoms: C8_17  and  N5_19 
REMARK   10  A    between atoms: N5_19  and  C9_21 
REMARK   11  A    between atoms: C12_27  and  N7_28 
ROOT
HETATM    1  N1  UNL     1      16.896  -8.616  21.260  1.00  0.00    -0.063 NA
HETATM    2  C1  UNL     1      15.962  -7.969  20.409  1.00  0.00     0.190 C 
HETATM    3  N2  UNL     1      15.452  -8.585  19.393  1.00  0.00    -0.362 N 
ATOM      4  H2  UNL     1      15.728  -9.549  19.204  1.00  0.00     0.162 HD
HETATM    5  N3  UNL     1      15.569  -6.628  20.663  1.00  0.00    -0.305 N 
ATOM      6  H3  UNL     1      14.645  -6.413  21.037  1.00  0.00     0.171 HD
HETATM    7  C8  UNL     1      16.413  -5.691  20.407  1.00  0.00     0.192 C 
HETATM    8  N4  UNL     1      17.707  -5.939  19.885  1.00  0.00    -0.063 NA
HETATM    9  N5  UNL     1      16.027  -4.351  20.659  1.00  0.00    -0.335 N 
ATOM     10  H5  UNL     1      15.292  -3.905  20.109  1.00  0.00     0.164 HD
ENDROOT
BRANCH   3  11
HETATM   11  C2  UNL     1      14.509  -7.948  18.526  1.00  0.00     0.148 C 
BRANCH  11  12
HETATM   12  C3  UNL     1      15.147  -7.591  17.184  1.00  0.00     0.187 C 
BRANCH  12  13
HETATM   13  O1  UNL     1      14.577  -8.386  16.249  1.00  0.00    -0.387 OA
BRANCH  13  14
HETATM   14  C4  UNL     1      14.831  -9.749  16.327  1.00  0.00     0.193 C 
BRANCH  14  15
HETATM   15  C5  UNL     1      16.261 -10.127  16.022  1.00  0.00     0.193 C 
BRANCH  15  16
HETATM   16  O2  UNL     1      17.116 -10.222  16.954  1.00  0.00    -0.387 OA
BRANCH  16  17
HETATM   17  C6  UNL     1      17.920 -10.814  17.715  1.00  0.00     0.193 C 
BRANCH  17  18
HETATM   18  C7  UNL     1      18.746 -10.045  18.706  1.00  0.00     0.190 C 
BRANCH  18  19
HETATM   19  O3  UNL     1      18.538  -8.710  18.620  1.00  0.00    -0.399 OA
ATOM     20  H3  UNL     1      18.390  -8.426  17.726  1.00  0.00     0.209 HD
ENDBRANCH  18  19
ENDBRANCH  17  18
ENDBRANCH  16  17
ENDBRANCH  15  16
ENDBRANCH  14  15
ENDBRANCH  13  14
ENDBRANCH  12  13
ENDBRANCH  11  12
ENDBRANCH   3  11
BRANCH   9  21
HETATM   21  C9  UNL     1      16.696  -3.639  21.706  1.00  0.00     0.316 C 
HETATM   22  N6  UNL     1      17.231  -4.540  22.737  1.00  0.00    -0.052 N 
HETATM   23  C10 UNL     1      17.668  -3.579  23.731  1.00  0.00     0.237 C 
ATOM     24  H62 UNL     1      16.588  -5.259  23.070  1.00  0.00     0.279 HD
ATOM     25  H61 UNL     1      17.940  -5.200  22.419  1.00  0.00     0.279 HD
HETATM   26  C11 UNL     1      16.441  -2.707  23.889  1.00  0.00     0.064 C 
HETATM   27  C12 UNL     1      15.752  -2.796  22.534  1.00  0.00     0.235 C 
BRANCH  27  28
HETATM   28  N7  UNL     1      14.502  -3.557  22.669  1.00  0.00    -0.071 N 
ATOM     29  H73 UNL     1      14.162  -3.599  23.629  1.00  0.00     0.274 HD
ATOM     30  H72 UNL     1      13.696  -3.078  22.266  1.00  0.00     0.274 HD
ATOM     31  H71 UNL     1      14.666  -4.477  22.262  1.00  0.00     0.274 HD
ENDBRANCH  27  28
ENDBRANCH   9  21
TORSDOF 11
ENDMDL
MODEL 3
REMARK VINA RESULT: -6.506650750      4.412      7.098
REMARK  11 active torsions:
REMARK  status: ('A' for Active; 'I' for Inactive)
REMARK       I    between atoms: C1_2  and  N3_15 
REMARK    1  A    between atoms: N2_3  and  C2_5 
REMARK    2  A    between atoms: C2_5  and  C3_6 
REMARK    3  A    between atoms: C3_6  and  O1_7 
REMARK    4  A    between atoms: O1_7  and  C4_8 
REMARK    5  A    between atoms: C4_8  and  C5_9 
REMARK    6  A    between atoms: C5_9  and  O2_10 
REMARK    7  A    between atoms: O2_10  and  C6_11 
REMARK    8  A    between atoms: C6_11  and  C7_12 
REMARK    9  A    between atoms: C7_12  and  O3_13 
REMARK       I    between atoms: C8_17  and  N5_19 
REMARK   10  A    between atoms: N5_19  and  C9_21 
REMARK   11  A    between atoms: C12_27  and  N7_28 
ROOT
HETATM    1  N1  UNL     1      16.310  -5.464  20.775  1.00  0.00    -0.063 NA
HETATM    2  C1  UNL     1      16.193  -4.220  21.449  1.00  0.00     0.190 C 
HETATM    3  N2  UNL     1      15.665  -3.194  20.864  1.00  0.00    -0.362 N 
ATOM      4  H2  UNL     1      15.330  -3.287  19.905  1.00  0.00     0.162 HD
HETATM    5  N3  UNL     1      16.654  -4.081  22.785  1.00  0.00    -0.305 N 
ATOM      6  H3  UNL     1      15.998  -4.015  23.563  1.00  0.00     0.171 HD
HETATM    7  C8  UNL     1      17.924  -4.041  22.986  1.00  0.00     0.192 C 
HETATM    8  N4  UNL     1      18.874  -4.128  21.938  1.00  0.00    -0.063 NA
HETATM    9  N5  UNL     1      18.391  -3.904  24.318  1.00  0.00    -0.335 N 
ATOM     10  H5  UNL     1      18.232  -3.043  24.842  1.00  0.00     0.164 HD
ENDROOT
BRANCH   3  11
HETATM   11  C2  UNL     1      15.538  -1.934  21.529  1.00  0.00     0.148 C 
BRANCH  11  12
HETATM   12  C3  UNL     1      14.081  -1.642  21.885  1.00  0.00     0.187 C 
BRANCH  12  13
HETATM   13  O1  UNL     1      14.011  -1.559  23.234  1.00  0.00    -0.387 OA
BRANCH  13  14
HETATM   14  C4  UNL     1      13.712  -0.320  23.785  1.00  0.00     0.193 C 
BRANCH  14  15
HETATM   15  C5  UNL     1      12.475   0.327  23.210  1.00  0.00     0.193 C 
BRANCH  15  16
HETATM   16  O2  UNL     1      11.338   0.127  23.736  1.00  0.00    -0.387 OA
BRANCH  16  17
HETATM   17  C6  UNL     1      10.423  -0.551  24.264  1.00  0.00     0.193 C 
BRANCH  17  18
HETATM   18  C7  UNL     1       9.595   0.016  25.382  1.00  0.00     0.190 C 
BRANCH  18  19
HETATM   19  O3  UNL     1       9.543   1.368  25.346  1.00  0.00    -0.399 OA
ATOM     20  H3  UNL     1      10.407   1.760  25.292  1.00  0.00     0.209 HD
ENDBRANCH  18  19
ENDBRANCH  17  18
ENDBRANCH  16  17
ENDBRANCH  15  16
ENDBRANCH  14  15
ENDBRANCH  13  14
ENDBRANCH  12  13
ENDBRANCH  11  12
ENDBRANCH   3  11
BRANCH   9  21
HETATM   21  C9  UNL     1      19.091  -5.005  24.907  1.00  0.00     0.316 C 
HETATM   22  N6  UNL     1      18.709  -6.292  24.306  1.00  0.00    -0.052 N 
HETATM   23  C10 UNL     1      19.397  -7.214  25.189  1.00  0.00     0.237 C 
ATOM     24  H62 UNL     1      17.706  -6.448  24.199  1.00  0.00     0.279 HD
ATOM     25  H61 UNL     1      18.917  -6.393  23.313  1.00  0.00     0.279 HD
HETATM   26  C11 UNL     1      18.962  -6.728  26.555  1.00  0.00     0.064 C 
HETATM   27  C12 UNL     1      18.698  -5.242  26.348  1.00  0.00     0.235 C 
BRANCH  27  28
HETATM   28  N7  UNL     1      17.256  -4.983  26.449  1.00  0.00    -0.071 N 
ATOM     29  H73 UNL     1      16.965  -4.697  27.384  1.00  0.00     0.274 HD
ATOM     30  H72 UNL     1      16.965  -4.137  25.958  1.00  0.00     0.274 HD
ATOM     31  H71 UNL     1      16.777  -5.821  26.120  1.00  0.00     0.274 HD
ENDBRANCH  27  28
ENDBRANCH   9  21
TORSDOF 11
ENDMDL
MODEL 4
REMARK VINA RESULT: -6.476210856      1.460      1.730
REMARK  11 active torsions:
REMARK  status: ('A' for Active; 'I' for Inactive)
REMARK       I    between atoms: C1_2  and  N3_15 
REMARK    1  A    between atoms: N2_3  and  C2_5 
REMARK    2  A    between atoms: C2_5  and  C3_6 
REMARK    3  A    between atoms: C3_6  and  O1_7 
REMARK    4  A    between atoms: O1_7  and  C4_8 
REMARK    5  A    between atoms: C4_8  and  C5_9 
REMARK    6  A    between atoms: C5_9  and  O2_10 
REMARK    7  A    between atoms: O2_10  and  C6_11 
REMARK    8  A    between atoms: C6_11  and  C7_12 
REMARK    9  A    between atoms: C7_12  and  O3_13 
REMARK       I    between atoms: C8_17  and  N5_19 
REMARK   10  A    between atoms: N5_19  and  C9_21 
REMARK   11  A    between atoms: C12_27  and  N7_28 
ROOT
HETATM    1  N1  UNL     1      13.477  -0.873  23.826  1.00  0.00    -0.063 NA
HETATM    2  C1  UNL     1      14.535  -1.266  22.964  1.00  0.00     0.190 C 
HETATM    3  N2  UNL     1      14.365  -2.199  22.086  1.00  0.00    -0.362 N 
ATOM      4  H2  UNL     1      13.455  -2.656  22.015  1.00  0.00     0.162 HD
HETATM    5  N3  UNL     1      15.805  -0.636  23.054  1.00  0.00    -0.305 N 
ATOM      6  H3  UNL     1      16.115   0.024  22.340  1.00  0.00     0.171 HD
HETATM    7  C8  UNL     1      16.553  -0.920  24.061  1.00  0.00     0.192 C 
HETATM    8  N4  UNL     1      16.167  -1.831  25.076  1.00  0.00    -0.063 NA
HETATM    9  N5  UNL     1      17.821  -0.294  24.155  1.00  0.00    -0.335 N 
ATOM     10  H5  UNL     1      18.561  -0.505  23.485  1.00  0.00     0.164 HD
ENDROOT
BRANCH   3  11
HETATM   11  C2  UNL     1      15.419  -2.607  21.210  1.00  0.00     0.148 C 
BRANCH  11  12
HETATM   12  C3  UNL     1      16.067  -3.904  21.693  1.00  0.00     0.187 C 
BRANCH  12  13
HETATM   13  O1  UNL     1      16.732  -4.432  20.638  1.00  0.00    -0.387 OA
BRANCH  13  14
HETATM   14  C4  UNL     1      16.256  -5.626  20.114  1.00  0.00     0.193 C 
BRANCH  14  15
HETATM   15  C5  UNL     1      15.912  -5.561  18.646  1.00  0.00     0.193 C 
BRANCH  15  16
HETATM   16  O2  UNL     1      14.783  -5.962  18.228  1.00  0.00    -0.387 OA
BRANCH  16  17
HETATM   17  C6  UNL     1      13.952  -6.800  17.801  1.00  0.00     0.193 C 
BRANCH  17  18
HETATM   18  C7  UNL     1      12.548  -6.384  17.463  1.00  0.00     0.190 C 
BRANCH  18  19
HETATM   19  O3  UNL     1      11.835  -7.392  16.906  1.00  0.00    -0.399 OA
ATOM     20  H3  UNL     1      10.935  -7.143  16.734  1.00  0.00     0.209 HD
ENDBRANCH  18  19
ENDBRANCH  17  18
ENDBRANCH  16  17
ENDBRANCH  15  16
ENDBRANCH  14  15
ENDBRANCH  13  14
ENDBRANCH  12  13
ENDBRANCH  11  12
ENDBRANCH   3  11
BRANCH   9  21
HETATM   21  C9  UNL     1      18.036   0.643  25.217  1.00  0.00     0.316 C 
HETATM   22  N6  UNL     1      16.779   1.232  25.701  1.00  0.00    -0.052 N 
HETATM   23  C10 UNL     1      17.289   2.246  26.604  1.00  0.00     0.237 C 
ATOM     24  H62 UNL     1      16.141   1.566  24.978  1.00  0.00     0.279 HD
ATOM     25  H61 UNL     1      16.112   0.575  26.107  1.00  0.00     0.279 HD
HETATM   26  C11 UNL     1      18.307   2.957  25.738  1.00  0.00     0.064 C 
HETATM   27  C12 UNL     1      18.769   1.884  24.761  1.00  0.00     0.235 C 
BRANCH  27  28
HETATM   28  N7  UNL     1      18.276   2.204  23.414  1.00  0.00    -0.071 N 
ATOM     29  H73 UNL     1      17.971   1.382  22.894  1.00  0.00     0.274 HD
ATOM     30  H72 UNL     1      17.381   2.694  23.422  1.00  0.00     0.274 HD
ATOM     31  H71 UNL     1      19.013   2.726  22.942  1.00  0.00     0.274 HD
ENDBRANCH  27  28
ENDBRANCH   9  21
TORSDOF 11
ENDMDL
MODEL 5
REMARK VINA RESULT: -6.314699152      1.310      2.041
REMARK  11 active torsions:
REMARK  status: ('A' for Active; 'I' for Inactive)
REMARK       I    between atoms: C1_2  and  N3_15 
REMARK    1  A    between atoms: N2_3  and  C2_5 
REMARK    2  A    between atoms: C2_5  and  C3_6 
REMARK    3  A    between atoms: C3_6  and  O1_7 
REMARK    4  A    between atoms: O1_7  and  C4_8 
REMARK    5  A    between atoms: C4_8  and  C5_9 
REMARK    6  A    between atoms: C5_9  and  O2_10 
REMARK    7  A    between atoms: O2_10  and  C6_11 
REMARK    8  A    between atoms: C6_11  and  C7_12 
REMARK    9  A    between atoms: C7_12  and  O3_13 
REMARK       I    between atoms: C8_17  and  N5_19 
REMARK   10  A    between atoms: N5_19  and  C9_21 
REMARK   11  A    between atoms: C12_27  and  N7_28 
ROOT
HETATM    1  N1  UNL     1      13.490  -0.729  23.871  1.00  0.00    -0.063 NA
HETATM    2  C1  UNL     1      14.536  -1.174  23.022  1.00  0.00     0.190 C 
HETATM    3  N2  UNL     1      14.339  -2.122  22.166  1.00  0.00    -0.362 N 
ATOM      4  H2  UNL     1      13.416  -2.553  22.104  1.00  0.00     0.162 HD
HETATM    5  N3  UNL     1      15.825  -0.580  23.098  1.00  0.00    -0.305 N 
ATOM      6  H3  UNL     1      16.155   0.052  22.370  1.00  0.00     0.171 HD
HETATM    7  C8  UNL     1      16.562  -0.863  24.114  1.00  0.00     0.192 C 
HETATM    8  N4  UNL     1      16.147  -1.736  25.150  1.00  0.00    -0.063 NA
HETATM    9  N5  UNL     1      17.849  -0.273  24.196  1.00  0.00    -0.335 N 
ATOM     10  H5  UNL     1      18.582  -0.523  23.532  1.00  0.00     0.164 HD
ENDROOT
BRANCH   3  11
HETATM   11  C2  UNL     1      15.382  -2.583  21.302  1.00  0.00     0.148 C 
BRANCH  11  12
HETATM   12  C3  UNL     1      15.811  -4.004  21.665  1.00  0.00     0.187 C 
BRANCH  12  13
HETATM   13  O1  UNL     1      17.108  -3.941  22.049  1.00  0.00    -0.387 OA
BRANCH  13  14
HETATM   14  C4  UNL     1      17.952  -4.957  21.620  1.00  0.00     0.193 C 
BRANCH  14  15
HETATM   15  C5  UNL     1      17.336  -5.881  20.598  1.00  0.00     0.193 C 
BRANCH  15  16
HETATM   16  O2  UNL     1      17.491  -7.137  20.686  1.00  0.00    -0.387 OA
BRANCH  16  17
HETATM   17  C6  UNL     1      17.122  -8.334  20.763  1.00  0.00     0.193 C 
BRANCH  17  18
HETATM   18  C7  UNL     1      17.817  -9.293  21.687  1.00  0.00     0.190 C 
BRANCH  18  19
HETATM   19  O3  UNL     1      18.211  -8.701  22.839  1.00  0.00    -0.399 OA
ATOM     20  H3  UNL     1      18.898  -8.060  22.697  1.00  0.00     0.209 HD
ENDBRANCH  18  19
ENDBRANCH  17  18
ENDBRANCH  16  17
ENDBRANCH  15  16
ENDBRANCH  14  15
ENDBRANCH  13  14
ENDBRANCH  12  13
ENDBRANCH  11  12
ENDBRANCH   3  11
BRANCH   9  21
HETATM   21  C9  UNL     1      18.090   0.682  25.235  1.00  0.00     0.316 C 
HETATM   22  N6  UNL     1      16.845   1.270  25.750  1.00  0.00    -0.052 N 
HETATM   23  C10 UNL     1      17.376   2.302  26.619  1.00  0.00     0.237 C 
ATOM     24  H62 UNL     1      16.182   1.588  25.042  1.00  0.00     0.279 HD
ATOM     25  H61 UNL     1      16.196   0.616  26.187  1.00  0.00     0.279 HD
HETATM   26  C11 UNL     1      18.361   3.006  25.710  1.00  0.00     0.064 C 
HETATM   27  C12 UNL     1      18.799   1.920  24.736  1.00  0.00     0.235 C 
BRANCH  27  28
HETATM   28  N7  UNL     1      18.261   2.216  23.401  1.00  0.00    -0.071 N 
ATOM     29  H73 UNL     1      18.911   1.989  22.648  1.00  0.00     0.274 HD
ATOM     30  H72 UNL     1      17.512   1.582  23.122  1.00  0.00     0.274 HD
ATOM     31  H71 UNL     1      17.977   3.195  23.402  1.00  0.00     0.274 HD
ENDBRANCH  27  28
ENDBRANCH   9  21
TORSDOF 11
ENDMDL
