MODEL 1
REMARK VINA RESULT: -8.170405355      0.000      0.000
REMARK  10 active torsions:
REMARK  status: ('A' for Active; 'I' for Inactive)
REMARK    1  A    between atoms: C5_5  and  N1_6 
REMARK    2  A    between atoms: N1_6  and  C6_8 
REMARK    3  A    between atoms: C6_8  and  C7_9 
REMARK    4  A    between atoms: C6_8  and  C9_15 
REMARK    5  A    between atoms: C7_9  and  N2_10 
REMARK    6  A    between atoms: C9_15  and  N5_16 
REMARK    7  A    between atoms: N5_16  and  C10_19 
REMARK    8  A    between atoms: C10_19  and  C11_20 
REMARK    9  A    between atoms: C11_20  and  C12_21 
REMARK   10  A    between atoms: C12_21  and  N6_22 
ROOT
HETATM    1  C6  UNL     1      15.944  -3.560  21.897  1.00  0.00     0.126 C 
ENDROOT
BRANCH   1   2
HETATM    2  N1  UNL     1      16.383  -4.374  20.884  1.00  0.00    -0.367 N 
ATOM      3  H1  UNL     1      17.282  -4.042  20.534  1.00  0.00     0.161 HD
BRANCH   2   4
HETATM    4  C5  UNL     1      16.030  -5.394  20.253  1.00  0.00     0.116 A 
HETATM    5  C4  UNL     1      16.187  -5.610  18.902  1.00  0.00     0.051 A 
HETATM    6  C3  UNL     1      15.755  -6.783  18.309  1.00  0.00     0.030 A 
HETATM    7  C2  UNL     1      15.156  -7.749  19.094  1.00  0.00     0.022 A 
HETATM    8  C1  UNL     1      14.686  -9.007  18.475  1.00  0.00     0.069 C 
HETATM    9  N10 UNL     1      15.040  -7.465  20.393  1.00  0.00    -0.304 N 
HETATM   10  N9  UNL     1      15.432  -6.380  20.980  1.00  0.00    -0.286 N 
ATOM     11  H10 UNL     1      14.599  -8.173  20.980  1.00  0.00     0.186 HD
ATOM     12  H9  UNL     1      15.294  -6.264  21.983  1.00  0.00     0.188 HD
ENDBRANCH   2   4
ENDBRANCH   1   2
BRANCH   1  13
HETATM   13  C7  UNL     1      17.095  -3.190  22.825  1.00  0.00     0.148 C 
BRANCH  13  14
HETATM   14  N2  UNL     1      17.688  -4.349  23.436  1.00  0.00    -0.365 N 
HETATM   15  C8  UNL     1      18.723  -4.958  22.984  1.00  0.00     0.197 C 
HETATM   16  N3  UNL     1      19.182  -6.090  23.709  1.00  0.00    -0.067 NA
HETATM   17  N4  UNL     1      19.423  -4.572  21.822  1.00  0.00    -0.067 NA
ATOM     18  H2  UNL     1      17.257  -4.711  24.287  1.00  0.00     0.161 HD
ENDBRANCH  13  14
ENDBRANCH   1  13
BRANCH   1  19
HETATM   19  C9  UNL     1      15.275  -2.240  21.518  1.00  0.00     0.258 C 
BRANCH  19  20
HETATM   20  N5  UNL     1      14.053  -2.218  22.332  1.00  0.00    -0.073 N 
ATOM     21  H52 UNL     1      13.216  -2.307  21.757  1.00  0.00     0.277 HD
ATOM     22  H51 UNL     1      13.952  -3.071  22.883  1.00  0.00     0.277 HD
BRANCH  20  23
HETATM   23  C10 UNL     1      14.009  -1.051  23.151  1.00  0.00     0.234 C 
BRANCH  23  24
HETATM   24  C11 UNL     1      13.078  -0.064  22.468  1.00  0.00     0.047 C 
BRANCH  24  25
HETATM   25  C12 UNL     1      11.866   0.285  23.284  1.00  0.00     0.123 C 
BRANCH  25  26
HETATM   26  N6  UNL     1      11.174  -0.927  23.663  1.00  0.00    -0.367 N 
HETATM   27  C13 UNL     1      10.206  -0.940  24.514  1.00  0.00     0.196 C 
HETATM   28  N7  UNL     1       9.703   0.207  25.175  1.00  0.00    -0.067 NA
HETATM   29  N8  UNL     1       9.612  -2.195  24.801  1.00  0.00    -0.067 NA
ATOM     30  H6  UNL     1      11.464  -1.809  23.239  1.00  0.00     0.161 HD
ENDBRANCH  25  26
ENDBRANCH  24  25
ENDBRANCH  23  24
ENDBRANCH  20  23
ENDBRANCH  19  20
ENDBRANCH   1  19
TORSDOF 10
ENDMDL
MODEL 2
REMARK VINA RESULT: -7.692251847      2.028      7.071
REMARK  10 active torsions:
REMARK  status: ('A' for Active; 'I' for Inactive)
REMARK    1  A    between atoms: C5_5  and  N1_6 
REMARK    2  A    between atoms: N1_6  and  C6_8 
REMARK    3  A    between atoms: C6_8  and  C7_9 
REMARK    4  A    between atoms: C6_8  and  C9_15 
REMARK    5  A    between atoms: C7_9  and  N2_10 
REMARK    6  A    between atoms: C9_15  and  N5_16 
REMARK    7  A    between atoms: N5_16  and  C10_19 
REMARK    8  A    between atoms: C10_19  and  C11_20 
REMARK    9  A    between atoms: C11_20  and  C12_21 
REMARK   10  A    between atoms: C12_21  and  N6_22 
ROOT
HETATM    1  C6  UNL     1      15.729  -3.386  22.146  1.00  0.00     0.126 C 
ENDROOT
BRANCH   1   2
HETATM    2  N1  UNL     1      16.800  -3.197  22.982  1.00  0.00    -0.367 N 
ATOM      3  H1  UNL     1      16.833  -2.227  23.294  1.00  0.00     0.161 HD
BRANCH   2   4
HETATM    4  C5  UNL     1      17.750  -3.838  23.483  1.00  0.00     0.116 A 
HETATM    5  C4  UNL     1      19.000  -4.007  22.929  1.00  0.00     0.051 A 
HETATM    6  C3  UNL     1      19.977  -4.740  23.577  1.00  0.00     0.030 A 
HETATM    7  C2  UNL     1      19.685  -5.312  24.800  1.00  0.00     0.022 A 
HETATM    8  C1  UNL     1      20.718  -6.102  25.504  1.00  0.00     0.069 C 
HETATM    9  N10 UNL     1      18.453  -5.104  25.270  1.00  0.00    -0.304 N 
HETATM   10  N9  UNL     1      17.516  -4.424  24.691  1.00  0.00    -0.286 N 
ATOM     11  H10 UNL     1      18.228  -5.523  26.172  1.00  0.00     0.186 HD
ATOM     12  H9  UNL     1      16.605  -4.327  25.139  1.00  0.00     0.188 HD
ENDBRANCH   2   4
ENDBRANCH   1   2
BRANCH   1  13
HETATM   13  C7  UNL     1      15.003  -2.069  21.898  1.00  0.00     0.148 C 
BRANCH  13  14
HETATM   14  N2  UNL     1      13.911  -1.876  22.813  1.00  0.00    -0.365 N 
HETATM   15  C8  UNL     1      13.072  -0.906  22.747  1.00  0.00     0.197 C 
HETATM   16  N3  UNL     1      12.050  -0.860  23.732  1.00  0.00    -0.067 NA
HETATM   17  N4  UNL     1      13.109   0.105  21.764  1.00  0.00    -0.067 NA
ATOM     18  H2  UNL     1      13.794  -2.555  23.566  1.00  0.00     0.161 HD
ENDBRANCH  13  14
ENDBRANCH   1  13
BRANCH   1  19
HETATM   19  C9  UNL     1      15.994  -3.981  20.764  1.00  0.00     0.258 C 
BRANCH  19  20
HETATM   20  N5  UNL     1      15.871  -5.429  20.976  1.00  0.00    -0.073 N 
ATOM     21  H52 UNL     1      15.946  -5.674  21.963  1.00  0.00     0.277 HD
ATOM     22  H51 UNL     1      14.919  -5.756  20.807  1.00  0.00     0.277 HD
BRANCH  20  23
HETATM   23  C10 UNL     1      16.821  -6.141  20.183  1.00  0.00     0.234 C 
BRANCH  23  24
HETATM   24  C11 UNL     1      16.272  -6.186  18.767  1.00  0.00     0.047 C 
BRANCH  24  25
HETATM   25  C12 UNL     1      15.189  -7.209  18.573  1.00  0.00     0.123 C 
BRANCH  25  26
HETATM   26  N6  UNL     1      13.977  -6.551  18.137  1.00  0.00    -0.367 N 
HETATM   27  C13 UNL     1      13.105  -7.127  17.382  1.00  0.00     0.196 C 
HETATM   28  N7  UNL     1      13.217  -8.450  16.891  1.00  0.00    -0.067 NA
HETATM   29  N8  UNL     1      11.960  -6.372  17.023  1.00  0.00    -0.067 NA
ATOM     30  H6  UNL     1      13.804  -5.592  18.441  1.00  0.00     0.161 HD
ENDBRANCH  25  26
ENDBRANCH  24  25
ENDBRANCH  23  24
ENDBRANCH  20  23
ENDBRANCH  19  20
ENDBRANCH   1  19
TORSDOF 10
ENDMDL
MODEL 3
REMARK VINA RESULT: -7.681676471      2.102      6.649
REMARK  10 active torsions:
REMARK  status: ('A' for Active; 'I' for Inactive)
REMARK    1  A    between atoms: C5_5  and  N1_6 
REMARK    2  A    between atoms: N1_6  and  C6_8 
REMARK    3  A    between atoms: C6_8  and  C7_9 
REMARK    4  A    between atoms: C6_8  and  C9_15 
REMARK    5  A    between atoms: C7_9  and  N2_10 
REMARK    6  A    between atoms: C9_15  and  N5_16 
REMARK    7  A    between atoms: N5_16  and  C10_19 
REMARK    8  A    between atoms: C10_19  and  C11_20 
REMARK    9  A    between atoms: C11_20  and  C12_21 
REMARK   10  A    between atoms: C12_21  and  N6_22 
ROOT
HETATM    1  C6  UNL     1      17.518  -4.207  21.991  1.00  0.00     0.126 C 
ENDROOT
BRANCH   1   2
HETATM    2  N1  UNL     1      16.401  -3.872  22.713  1.00  0.00    -0.367 N 
ATOM      3  H1  UNL     1      16.087  -4.672  23.262  1.00  0.00     0.161 HD
BRANCH   2   4
HETATM    4  C5  UNL     1      15.646  -2.895  22.911  1.00  0.00     0.116 A 
HETATM    5  C4  UNL     1      15.832  -1.897  23.842  1.00  0.00     0.051 A 
HETATM    6  C3  UNL     1      14.925  -0.861  23.972  1.00  0.00     0.030 A 
HETATM    7  C2  UNL     1      13.815  -0.836  23.150  1.00  0.00     0.022 A 
HETATM    8  C1  UNL     1      12.834   0.264  23.280  1.00  0.00     0.069 C 
HETATM    9  N10 UNL     1      13.705  -1.837  22.276  1.00  0.00    -0.304 N 
HETATM   10  N9  UNL     1      14.533  -2.820  22.127  1.00  0.00    -0.286 N 
ATOM     11  H10 UNL     1      12.888  -1.826  21.665  1.00  0.00     0.186 HD
ATOM     12  H9  UNL     1      14.353  -3.538  21.425  1.00  0.00     0.188 HD
ENDBRANCH   2   4
ENDBRANCH   1   2
BRANCH   1  13
HETATM   13  C7  UNL     1      18.723  -4.367  22.911  1.00  0.00     0.148 C 
BRANCH  13  14
HETATM   14  N2  UNL     1      18.405  -5.129  24.089  1.00  0.00    -0.365 N 
HETATM   15  C8  UNL     1      19.263  -5.788  24.780  1.00  0.00     0.197 C 
HETATM   16  N3  UNL     1      18.781  -6.490  25.917  1.00  0.00    -0.067 NA
HETATM   17  N4  UNL     1      20.638  -5.856  24.477  1.00  0.00    -0.067 NA
ATOM     18  H2  UNL     1      17.432  -5.146  24.396  1.00  0.00     0.161 HD
ENDBRANCH  13  14
ENDBRANCH   1  13
BRANCH   1  19
HETATM   19  C9  UNL     1      17.471  -5.478  21.145  1.00  0.00     0.258 C 
BRANCH  19  20
HETATM   20  N5  UNL     1      16.068  -5.565  20.719  1.00  0.00    -0.073 N 
ATOM     21  H52 UNL     1      15.683  -6.495  20.878  1.00  0.00     0.277 HD
ATOM     22  H51 UNL     1      15.453  -5.035  21.338  1.00  0.00     0.277 HD
BRANCH  20  23
HETATM   23  C10 UNL     1      15.924  -5.159  19.359  1.00  0.00     0.234 C 
BRANCH  23  24
HETATM   24  C11 UNL     1      16.174  -6.388  18.501  1.00  0.00     0.047 C 
BRANCH  24  25
HETATM   25  C12 UNL     1      15.021  -7.351  18.479  1.00  0.00     0.123 C 
BRANCH  25  26
HETATM   26  N6  UNL     1      13.821  -6.658  18.065  1.00  0.00    -0.367 N 
HETATM   27  C13 UNL     1      12.923  -7.204  17.318  1.00  0.00     0.196 C 
HETATM   28  N7  UNL     1      12.993  -8.526  16.815  1.00  0.00    -0.067 NA
HETATM   29  N8  UNL     1      11.794  -6.416  16.981  1.00  0.00    -0.067 NA
ATOM     30  H6  UNL     1      13.678  -5.697  18.378  1.00  0.00     0.161 HD
ENDBRANCH  25  26
ENDBRANCH  24  25
ENDBRANCH  23  24
ENDBRANCH  20  23
ENDBRANCH  19  20
ENDBRANCH   1  19
TORSDOF 10
ENDMDL
MODEL 4
REMARK VINA RESULT: -7.674923797      2.862      8.795
REMARK  10 active torsions:
REMARK  status: ('A' for Active; 'I' for Inactive)
REMARK    1  A    between atoms: C5_5  and  N1_6 
REMARK    2  A    between atoms: N1_6  and  C6_8 
REMARK    3  A    between atoms: C6_8  and  C7_9 
REMARK    4  A    between atoms: C6_8  and  C9_15 
REMARK    5  A    between atoms: C7_9  and  N2_10 
REMARK    6  A    between atoms: C9_15  and  N5_16 
REMARK    7  A    between atoms: N5_16  and  C10_19 
REMARK    8  A    between atoms: C10_19  and  C11_20 
REMARK    9  A    between atoms: C11_20  and  C12_21 
REMARK   10  A    between atoms: C12_21  and  N6_22 
ROOT
HETATM    1  C6  UNL     1      16.094  -5.736  20.214  1.00  0.00     0.126 C 
ENDROOT
BRANCH   1   2
HETATM    2  N1  UNL     1      16.299  -4.512  20.798  1.00  0.00    -0.367 N 
ATOM      3  H1  UNL     1      17.295  -4.292  20.808  1.00  0.00     0.161 HD
BRANCH   2   4
HETATM    4  C5  UNL     1      15.651  -3.580  21.322  1.00  0.00     0.116 A 
HETATM    5  C4  UNL     1      15.534  -2.296  20.837  1.00  0.00     0.051 A 
HETATM    6  C3  UNL     1      14.787  -1.343  21.505  1.00  0.00     0.030 A 
HETATM    7  C2  UNL     1      14.151  -1.694  22.680  1.00  0.00     0.022 A 
HETATM    8  C1  UNL     1      13.352  -0.685  23.409  1.00  0.00     0.069 C 
HETATM    9  N10 UNL     1      14.313  -2.954  23.085  1.00  0.00    -0.304 N 
HETATM   10  N9  UNL     1      15.003  -3.871  22.486  1.00  0.00    -0.286 N 
ATOM     11  H10 UNL     1      13.848  -3.222  23.953  1.00  0.00     0.186 HD
ATOM     12  H9  UNL     1      15.062  -4.808  22.884  1.00  0.00     0.188 HD
ENDBRANCH   2   4
ENDBRANCH   1   2
BRANCH   1  13
HETATM   13  C7  UNL     1      15.963  -5.595  18.703  1.00  0.00     0.148 C 
BRANCH  13  14
HETATM   14  N2  UNL     1      14.588  -5.529  18.285  1.00  0.00    -0.365 N 
HETATM   15  C8  UNL     1      13.927  -6.519  17.804  1.00  0.00     0.197 C 
HETATM   16  N3  UNL     1      12.575  -6.284  17.439  1.00  0.00    -0.067 NA
HETATM   17  N4  UNL     1      14.462  -7.811  17.619  1.00  0.00    -0.067 NA
ATOM     18  H2  UNL     1      14.105  -4.635  18.378  1.00  0.00     0.161 HD
ENDBRANCH  13  14
ENDBRANCH   1  13
BRANCH   1  19
HETATM   19  C9  UNL     1      17.143  -6.823  20.440  1.00  0.00     0.258 C 
BRANCH  19  20
HETATM   20  N5  UNL     1      16.428  -8.070  20.140  1.00  0.00    -0.073 N 
ATOM     21  H52 UNL     1      15.712  -8.271  20.837  1.00  0.00     0.277 HD
ATOM     22  H51 UNL     1      15.825  -7.972  19.323  1.00  0.00     0.277 HD
BRANCH  20  23
HETATM   23  C10 UNL     1      17.341  -9.157  19.993  1.00  0.00     0.234 C 
BRANCH  23  24
HETATM   24  C11 UNL     1      17.809  -9.151  18.548  1.00  0.00     0.047 C 
BRANCH  24  25
HETATM   25  C12 UNL     1      17.652 -10.477  17.858  1.00  0.00     0.123 C 
BRANCH  25  26
HETATM   26  N6  UNL     1      16.366 -10.528  17.198  1.00  0.00    -0.367 N 
HETATM   27  C13 UNL     1      16.239 -10.485  15.916  1.00  0.00     0.196 C 
HETATM   28  N7  UNL     1      17.318 -10.385  15.005  1.00  0.00    -0.067 NA
HETATM   29  N8  UNL     1      14.922 -10.541  15.393  1.00  0.00    -0.067 NA
ATOM     30  H6  UNL     1      15.525 -10.602  17.771  1.00  0.00     0.161 HD
ENDBRANCH  25  26
ENDBRANCH  24  25
ENDBRANCH  23  24
ENDBRANCH  20  23
ENDBRANCH  19  20
ENDBRANCH   1  19
TORSDOF 10
ENDMDL
MODEL 5
REMARK VINA RESULT: -7.633171825      2.181      7.239
REMARK  10 active torsions:
REMARK  status: ('A' for Active; 'I' for Inactive)
REMARK    1  A    between atoms: C5_5  and  N1_6 
REMARK    2  A    between atoms: N1_6  and  C6_8 
REMARK    3  A    between atoms: C6_8  and  C7_9 
REMARK    4  A    between atoms: C6_8  and  C9_15 
REMARK    5  A    between atoms: C7_9  and  N2_10 
REMARK    6  A    between atoms: C9_15  and  N5_16 
REMARK    7  A    between atoms: N5_16  and  C10_19 
REMARK    8  A    between atoms: C10_19  and  C11_20 
REMARK    9  A    between atoms: C11_20  and  C12_21 
REMARK   10  A    between atoms: C12_21  and  N6_22 
ROOT
HETATM    1  C6  UNL     1      15.522  -3.518  21.954  1.00  0.00     0.126 C 
ENDROOT
BRANCH   1   2
HETATM    2  N1  UNL     1      16.386  -3.633  23.014  1.00  0.00    -0.367 N 
ATOM      3  H1  UNL     1      15.894  -4.004  23.826  1.00  0.00     0.161 HD
BRANCH   2   4
HETATM    4  C5  UNL     1      17.586  -3.427  23.298  1.00  0.00     0.116 A 
HETATM    5  C4  UNL     1      18.655  -4.218  22.941  1.00  0.00     0.051 A 
HETATM    6  C3  UNL     1      19.946  -3.890  23.314  1.00  0.00     0.030 A 
HETATM    7  C2  UNL     1      20.157  -2.746  24.060  1.00  0.00     0.022 A 
HETATM    8  C1  UNL     1      21.531  -2.383  24.470  1.00  0.00     0.069 C 
HETATM    9  N10 UNL     1      19.071  -2.033  24.367  1.00  0.00    -0.304 N 
HETATM   10  N9  UNL     1      17.852  -2.310  24.034  1.00  0.00    -0.286 N 
ATOM     11  H10 UNL     1      19.217  -1.187  24.917  1.00  0.00     0.186 HD
ATOM     12  H9  UNL     1      17.091  -1.695  24.322  1.00  0.00     0.188 HD
ENDBRANCH   2   4
ENDBRANCH   1   2
BRANCH   1  13
HETATM   13  C7  UNL     1      15.236  -2.052  21.652  1.00  0.00     0.148 C 
BRANCH  13  14
HETATM   14  N2  UNL     1      13.950  -1.641  22.149  1.00  0.00    -0.365 N 
HETATM   15  C8  UNL     1      13.740  -1.194  23.334  1.00  0.00     0.197 C 
HETATM   16  N3  UNL     1      12.407  -0.832  23.666  1.00  0.00    -0.067 NA
HETATM   17  N4  UNL     1      14.744  -1.045  24.313  1.00  0.00    -0.067 NA
ATOM     18  H2  UNL     1      13.152  -1.708  21.517  1.00  0.00     0.161 HD
ENDBRANCH  13  14
ENDBRANCH   1  13
BRANCH   1  19
HETATM   19  C9  UNL     1      15.932  -4.144  20.623  1.00  0.00     0.258 C 
BRANCH  19  20
HETATM   20  N5  UNL     1      15.937  -5.587  20.899  1.00  0.00    -0.073 N 
ATOM     21  H52 UNL     1      16.073  -5.780  21.891  1.00  0.00     0.277 HD
ATOM     22  H51 UNL     1      15.009  -5.995  20.788  1.00  0.00     0.277 HD
BRANCH  20  23
HETATM   23  C10 UNL     1      16.907  -6.255  20.094  1.00  0.00     0.234 C 
BRANCH  23  24
HETATM   24  C11 UNL     1      16.312  -6.390  18.702  1.00  0.00     0.047 C 
BRANCH  24  25
HETATM   25  C12 UNL     1      15.155  -7.346  18.632  1.00  0.00     0.123 C 
BRANCH  25  26
HETATM   26  N6  UNL     1      13.977  -6.645  18.171  1.00  0.00    -0.367 N 
HETATM   27  C13 UNL     1      13.111  -7.181  17.380  1.00  0.00     0.196 C 
HETATM   28  N7  UNL     1      13.198  -8.499  16.870  1.00  0.00    -0.067 NA
HETATM   29  N8  UNL     1      12.001  -6.386  17.000  1.00  0.00    -0.067 NA
ATOM     30  H6  UNL     1      13.824  -5.686  18.486  1.00  0.00     0.161 HD
ENDBRANCH  25  26
ENDBRANCH  24  25
ENDBRANCH  23  24
ENDBRANCH  20  23
ENDBRANCH  19  20
ENDBRANCH   1  19
TORSDOF 10
ENDMDL
