MODEL 1
REMARK VINA RESULT: -7.423196969      0.000      0.000
REMARK  13 active torsions:
REMARK  status: ('A' for Active; 'I' for Inactive)
REMARK    1  A    between atoms: C2_2  and  C3_3 
REMARK    2  A    between atoms: C3_3  and  C4_4 
REMARK    3  A    between atoms: C4_4  and  C5_5 
REMARK    4  A    between atoms: C5_5  and  C6_6 
REMARK    5  A    between atoms: C9_15  and  C10_16 
REMARK    6  A    between atoms: C10_16  and  C11_17 
REMARK    7  A    between atoms: C11_17  and  C12_18 
REMARK    8  A    between atoms: C12_18  and  O3_19 
REMARK    9  A    between atoms: C12_18  and  N3_21 
REMARK   10  A    between atoms: N3_21  and  C13_23 
REMARK   11  A    between atoms: C13_23  and  C14_24 
REMARK   12  A    between atoms: C14_24  and  N4_25 
REMARK   13  A    between atoms: C15_29  and  N5_30 
ROOT
HETATM    1  C6  UNL     1      15.597  -8.225  17.236  1.00  0.00     0.060 C 
HETATM    2  N1  UNL     1      14.304  -8.638  17.000  1.00  0.00    -0.317 N 
ATOM      3  H1  UNL     1      14.204  -9.585  16.633  1.00  0.00     0.169 HD
HETATM    4  C7  UNL     1      13.143  -7.957  17.191  1.00  0.00     0.314 C 
HETATM    5  O1  UNL     1      12.067  -8.538  17.007  1.00  0.00    -0.262 OA
HETATM    6  C8  UNL     1      13.011  -6.622  17.587  1.00  0.00     0.314 C 
HETATM    7  O2  UNL     1      11.908  -6.053  17.391  1.00  0.00    -0.262 OA
HETATM    8  N2  UNL     1      13.958  -5.833  18.178  1.00  0.00    -0.317 N 
ATOM      9  H2  UNL     1      13.625  -4.915  18.470  1.00  0.00     0.169 HD
HETATM   10  C9  UNL     1      15.264  -6.066  18.438  1.00  0.00     0.060 C 
HETATM   11  C15 UNL     1      15.893  -7.297  18.199  1.00  0.00     0.079 C 
ENDROOT
BRANCH  10  12
HETATM   12  C10 UNL     1      15.998  -5.097  18.948  1.00  0.00     0.009 C 
BRANCH  12  13
HETATM   13  C11 UNL     1      16.163  -5.038  20.436  1.00  0.00     0.082 C 
BRANCH  13  14
HETATM   14  C12 UNL     1      15.867  -3.661  20.963  1.00  0.00     0.216 C 
BRANCH  14  15
HETATM   15  O3  UNL     1      14.960  -2.972  20.157  1.00  0.00    -0.377 OA
ATOM     16  H3  UNL     1      14.434  -2.355  20.654  1.00  0.00     0.212 HD
ENDBRANCH  14  15
BRANCH  14  17
HETATM   17  N3  UNL     1      15.330  -3.756  22.284  1.00  0.00    -0.395 N 
ATOM     18  H3  UNL     1      15.304  -4.636  22.798  1.00  0.00     0.155 HD
BRANCH  17  19
HETATM   19  C13 UNL     1      14.832  -2.535  22.838  1.00  0.00     0.143 C 
BRANCH  19  20
HETATM   20  C14 UNL     1      15.973  -1.684  23.408  1.00  0.00     0.248 C 
BRANCH  20  21
HETATM   21  N4  UNL     1      15.917  -0.323  22.953  1.00  0.00    -0.078 N 
ATOM     22  H43 UNL     1      15.037  -0.131  22.475  1.00  0.00     0.274 HD
ATOM     23  H42 UNL     1      15.820   0.323  23.736  1.00  0.00     0.274 HD
ATOM     24  H41 UNL     1      16.715  -0.078  22.368  1.00  0.00     0.274 HD
ENDBRANCH  20  21
ENDBRANCH  19  20
ENDBRANCH  17  19
ENDBRANCH  14  17
ENDBRANCH  13  14
ENDBRANCH  12  13
ENDBRANCH  10  12
BRANCH  11  25
HETATM   25  N5  UNL     1      16.818  -7.567  19.001  1.00  0.00    -0.395 N 
ATOM     26  H52 UNL     1      17.754  -7.428  18.621  1.00  0.00     0.156 HD
ATOM     27  H51 UNL     1      16.557  -7.870  19.939  1.00  0.00     0.156 HD
ENDBRANCH  11  25
BRANCH   1  28
HETATM   28  C5  UNL     1      16.523  -8.762  16.493  1.00  0.00     0.005 C 
BRANCH  28  29
HETATM   29  C4  UNL     1      16.959 -10.139  16.336  1.00  0.00     0.029 C 
BRANCH  29  30
HETATM   30  C3  UNL     1      17.090 -10.811  17.688  1.00  0.00     0.003 C 
BRANCH  30  31
HETATM   31  C2  UNL     1      18.542 -10.738  18.106  1.00  0.00    -0.004 C 
HETATM   32  C1  UNL     1      18.582 -10.513  19.591  1.00  0.00     0.005 C 
ENDBRANCH  30  31
ENDBRANCH  29  30
ENDBRANCH  28  29
ENDBRANCH   1  28
TORSDOF 13
ENDMDL
MODEL 2
REMARK VINA RESULT: -7.383758033      4.234      6.784
REMARK  13 active torsions:
REMARK  status: ('A' for Active; 'I' for Inactive)
REMARK    1  A    between atoms: C2_2  and  C3_3 
REMARK    2  A    between atoms: C3_3  and  C4_4 
REMARK    3  A    between atoms: C4_4  and  C5_5 
REMARK    4  A    between atoms: C5_5  and  C6_6 
REMARK    5  A    between atoms: C9_15  and  C10_16 
REMARK    6  A    between atoms: C10_16  and  C11_17 
REMARK    7  A    between atoms: C11_17  and  C12_18 
REMARK    8  A    between atoms: C12_18  and  O3_19 
REMARK    9  A    between atoms: C12_18  and  N3_21 
REMARK   10  A    between atoms: N3_21  and  C13_23 
REMARK   11  A    between atoms: C13_23  and  C14_24 
REMARK   12  A    between atoms: C14_24  and  N4_25 
REMARK   13  A    between atoms: C15_29  and  N5_30 
ROOT
HETATM    1  C6  UNL     1      18.153  -4.210  22.702  1.00  0.00     0.060 C 
HETATM    2  N1  UNL     1      18.171  -5.260  21.811  1.00  0.00    -0.317 N 
ATOM      3  H1  UNL     1      18.942  -5.919  21.922  1.00  0.00     0.169 HD
HETATM    4  C7  UNL     1      17.300  -5.539  20.805  1.00  0.00     0.314 C 
HETATM    5  O1  UNL     1      17.435  -6.590  20.167  1.00  0.00    -0.262 OA
HETATM    6  C8  UNL     1      16.226  -4.749  20.383  1.00  0.00     0.314 C 
HETATM    7  O2  UNL     1      15.738  -4.971  19.248  1.00  0.00    -0.262 OA
HETATM    8  N2  UNL     1      15.622  -3.734  21.071  1.00  0.00    -0.317 N 
ATOM      9  H2  UNL     1      14.793  -3.348  20.619  1.00  0.00     0.169 HD
HETATM   10  C9  UNL     1      15.939  -3.156  22.251  1.00  0.00     0.060 C 
HETATM   11  C15 UNL     1      16.984  -3.601  23.075  1.00  0.00     0.079 C 
ENDROOT
BRANCH  10  12
HETATM   12  C10 UNL     1      15.235  -2.121  22.667  1.00  0.00     0.009 C 
BRANCH  12  13
HETATM   13  C11 UNL     1      14.306  -1.458  21.696  1.00  0.00     0.082 C 
BRANCH  13  14
HETATM   14  C12 UNL     1      13.453  -0.425  22.378  1.00  0.00     0.216 C 
BRANCH  14  15
HETATM   15  O3  UNL     1      12.832   0.432  21.469  1.00  0.00    -0.377 OA
ATOM     16  H3  UNL     1      11.960   0.137  21.234  1.00  0.00     0.212 HD
ENDBRANCH  14  15
BRANCH  14  17
HETATM   17  N3  UNL     1      12.447  -1.072  23.162  1.00  0.00    -0.395 N 
ATOM     18  H3  UNL     1      12.506  -2.058  23.413  1.00  0.00     0.155 HD
BRANCH  17  19
HETATM   19  C13 UNL     1      11.353  -0.246  23.569  1.00  0.00     0.143 C 
BRANCH  19  20
HETATM   20  C14 UNL     1      10.311  -1.058  24.347  1.00  0.00     0.248 C 
BRANCH  20  21
HETATM   21  N4  UNL     1       9.837  -2.190  23.602  1.00  0.00    -0.078 N 
ATOM     22  H43 UNL     1       9.006  -2.594  24.035  1.00  0.00     0.274 HD
ATOM     23  H42 UNL     1       9.432  -1.902  22.712  1.00  0.00     0.274 HD
ATOM     24  H41 UNL     1      10.561  -2.896  23.467  1.00  0.00     0.274 HD
ENDBRANCH  20  21
ENDBRANCH  19  20
ENDBRANCH  17  19
ENDBRANCH  14  17
ENDBRANCH  13  14
ENDBRANCH  12  13
ENDBRANCH  10  12
BRANCH  11  25
HETATM   25  N5  UNL     1      16.782  -3.431  24.300  1.00  0.00    -0.395 N 
ATOM     26  H52 UNL     1      17.522  -2.919  24.779  1.00  0.00     0.156 HD
ATOM     27  H51 UNL     1      15.911  -3.791  24.689  1.00  0.00     0.156 HD
ENDBRANCH  11  25
BRANCH   1  28
HETATM   28  C5  UNL     1      19.306  -3.826  23.171  1.00  0.00     0.005 C 
BRANCH  28  29
HETATM   29  C4  UNL     1      20.290  -4.505  23.998  1.00  0.00     0.029 C 
BRANCH  29  30
HETATM   30  C3  UNL     1      21.272  -3.509  24.580  1.00  0.00     0.003 C 
BRANCH  30  31
HETATM   31  C2  UNL     1      21.102  -2.201  23.840  1.00  0.00    -0.004 C 
HETATM   32  C1  UNL     1      22.253  -1.310  24.211  1.00  0.00     0.005 C 
ENDBRANCH  30  31
ENDBRANCH  29  30
ENDBRANCH  28  29
ENDBRANCH   1  28
TORSDOF 13
ENDMDL
MODEL 3
REMARK VINA RESULT: -7.351568394      3.706      6.038
REMARK  13 active torsions:
REMARK  status: ('A' for Active; 'I' for Inactive)
REMARK    1  A    between atoms: C2_2  and  C3_3 
REMARK    2  A    between atoms: C3_3  and  C4_4 
REMARK    3  A    between atoms: C4_4  and  C5_5 
REMARK    4  A    between atoms: C5_5  and  C6_6 
REMARK    5  A    between atoms: C9_15  and  C10_16 
REMARK    6  A    between atoms: C10_16  and  C11_17 
REMARK    7  A    between atoms: C11_17  and  C12_18 
REMARK    8  A    between atoms: C12_18  and  O3_19 
REMARK    9  A    between atoms: C12_18  and  N3_21 
REMARK   10  A    between atoms: N3_21  and  C13_23 
REMARK   11  A    between atoms: C13_23  and  C14_24 
REMARK   12  A    between atoms: C14_24  and  N4_25 
REMARK   13  A    between atoms: C15_29  and  N5_30 
ROOT
HETATM    1  C6  UNL     1      16.688  -5.002  21.033  1.00  0.00     0.060 C 
HETATM    2  N1  UNL     1      17.954  -5.185  21.543  1.00  0.00    -0.317 N 
ATOM      3  H1  UNL     1      18.572  -5.777  20.988  1.00  0.00     0.169 HD
HETATM    4  C7  UNL     1      18.494  -4.682  22.686  1.00  0.00     0.314 C 
HETATM    5  O1  UNL     1      19.689  -4.887  22.927  1.00  0.00    -0.262 OA
HETATM    6  C8  UNL     1      17.834  -3.932  23.664  1.00  0.00     0.314 C 
HETATM    7  O2  UNL     1      18.368  -3.836  24.797  1.00  0.00    -0.262 OA
HETATM    8  N2  UNL     1      16.645  -3.268  23.540  1.00  0.00    -0.317 N 
ATOM      9  H2  UNL     1      16.388  -2.703  24.349  1.00  0.00     0.169 HD
HETATM   10  C9  UNL     1      15.754  -3.236  22.524  1.00  0.00     0.060 C 
HETATM   11  C15 UNL     1      15.965  -3.868  21.290  1.00  0.00     0.079 C 
ENDROOT
BRANCH  10  12
HETATM   12  C10 UNL     1      14.624  -2.576  22.685  1.00  0.00     0.009 C 
BRANCH  12  13
HETATM   13  C11 UNL     1      14.675  -1.229  23.340  1.00  0.00     0.082 C 
BRANCH  13  14
HETATM   14  C12 UNL     1      13.501  -0.381  22.933  1.00  0.00     0.216 C 
BRANCH  14  15
HETATM   15  O3  UNL     1      13.505  -0.096  21.567  1.00  0.00    -0.377 OA
ATOM     16  H3  UNL     1      12.640  -0.178  21.180  1.00  0.00     0.212 HD
ENDBRANCH  14  15
BRANCH  14  17
HETATM   17  N3  UNL     1      12.284  -1.054  23.261  1.00  0.00    -0.395 N 
ATOM     18  H3  UNL     1      12.179  -2.064  23.165  1.00  0.00     0.155 HD
BRANCH  17  19
HETATM   19  C13 UNL     1      11.222  -0.219  23.731  1.00  0.00     0.143 C 
BRANCH  19  20
HETATM   20  C14 UNL     1      10.124  -1.052  24.402  1.00  0.00     0.248 C 
BRANCH  20  21
HETATM   21  N4  UNL     1       9.781  -2.218  23.638  1.00  0.00    -0.078 N 
ATOM     22  H43 UNL     1       9.269  -1.967  22.792  1.00  0.00     0.274 HD
ATOM     23  H42 UNL     1      10.608  -2.633  23.209  1.00  0.00     0.274 HD
ATOM     24  H41 UNL     1       9.267  -2.905  24.189  1.00  0.00     0.274 HD
ENDBRANCH  20  21
ENDBRANCH  19  20
ENDBRANCH  17  19
ENDBRANCH  14  17
ENDBRANCH  13  14
ENDBRANCH  12  13
ENDBRANCH  10  12
BRANCH  11  25
HETATM   25  N5  UNL     1      15.436  -3.283  20.315  1.00  0.00    -0.395 N 
ATOM     26  H52 UNL     1      15.872  -2.393  20.075  1.00  0.00     0.156 HD
ATOM     27  H51 UNL     1      14.657  -3.748  19.851  1.00  0.00     0.156 HD
ENDBRANCH  11  25
BRANCH   1  28
HETATM   28  C5  UNL     1      16.215  -5.965  20.295  1.00  0.00     0.005 C 
BRANCH  28  29
HETATM   29  C4  UNL     1      16.406  -6.293  18.892  1.00  0.00     0.029 C 
BRANCH  29  30
HETATM   30  C3  UNL     1      15.080  -6.271  18.157  1.00  0.00     0.003 C 
BRANCH  30  31
HETATM   31  C2  UNL     1      14.682  -7.702  17.872  1.00  0.00    -0.004 C 
HETATM   32  C1  UNL     1      15.459  -8.165  16.673  1.00  0.00     0.005 C 
ENDBRANCH  30  31
ENDBRANCH  29  30
ENDBRANCH  28  29
ENDBRANCH   1  28
TORSDOF 13
ENDMDL
MODEL 4
REMARK VINA RESULT: -7.277632650      2.598      3.938
REMARK  13 active torsions:
REMARK  status: ('A' for Active; 'I' for Inactive)
REMARK    1  A    between atoms: C2_2  and  C3_3 
REMARK    2  A    between atoms: C3_3  and  C4_4 
REMARK    3  A    between atoms: C4_4  and  C5_5 
REMARK    4  A    between atoms: C5_5  and  C6_6 
REMARK    5  A    between atoms: C9_15  and  C10_16 
REMARK    6  A    between atoms: C10_16  and  C11_17 
REMARK    7  A    between atoms: C11_17  and  C12_18 
REMARK    8  A    between atoms: C12_18  and  O3_19 
REMARK    9  A    between atoms: C12_18  and  N3_21 
REMARK   10  A    between atoms: N3_21  and  C13_23 
REMARK   11  A    between atoms: C13_23  and  C14_24 
REMARK   12  A    between atoms: C14_24  and  N4_25 
REMARK   13  A    between atoms: C15_29  and  N5_30 
ROOT
HETATM    1  C6  UNL     1      17.259  -8.667  18.108  1.00  0.00     0.060 C 
HETATM    2  N1  UNL     1      17.942  -9.678  18.748  1.00  0.00    -0.317 N 
ATOM      3  H1  UNL     1      18.309 -10.414  18.145  1.00  0.00     0.169 HD
HETATM    4  C7  UNL     1      18.195  -9.827  20.076  1.00  0.00     0.314 C 
HETATM    5  O1  UNL     1      18.912 -10.762  20.450  1.00  0.00    -0.262 OA
HETATM    6  C8  UNL     1      17.723  -9.018  21.115  1.00  0.00     0.314 C 
HETATM    7  O2  UNL     1      17.761  -9.476  22.284  1.00  0.00    -0.262 OA
HETATM    8  N2  UNL     1      17.210  -7.755  21.017  1.00  0.00    -0.317 N 
ATOM      9  H2  UNL     1      17.010  -7.306  21.910  1.00  0.00     0.169 HD
HETATM   10  C9  UNL     1      16.922  -7.001  19.932  1.00  0.00     0.060 C 
HETATM   11  C15 UNL     1      17.209  -7.396  18.617  1.00  0.00     0.079 C 
ENDROOT
BRANCH  10  12
HETATM   12  C10 UNL     1      16.346  -5.828  20.103  1.00  0.00     0.009 C 
BRANCH  12  13
HETATM   13  C11 UNL     1      16.868  -4.931  21.184  1.00  0.00     0.082 C 
BRANCH  13  14
HETATM   14  C12 UNL     1      16.065  -3.662  21.274  1.00  0.00     0.216 C 
BRANCH  14  15
HETATM   15  O3  UNL     1      15.297  -3.442  20.130  1.00  0.00    -0.377 OA
ATOM     16  H3  UNL     1      14.365  -3.433  20.319  1.00  0.00     0.212 HD
ENDBRANCH  14  15
BRANCH  14  17
HETATM   17  N3  UNL     1      15.197  -3.720  22.408  1.00  0.00    -0.395 N 
ATOM     18  H3  UNL     1      14.934  -4.603  22.845  1.00  0.00     0.155 HD
BRANCH  17  19
HETATM   19  C13 UNL     1      14.724  -2.460  22.890  1.00  0.00     0.143 C 
BRANCH  19  20
HETATM   20  C14 UNL     1      15.859  -1.655  23.534  1.00  0.00     0.248 C 
BRANCH  20  21
HETATM   21  N4  UNL     1      15.944  -0.320  23.013  1.00  0.00    -0.078 N 
ATOM     22  H43 UNL     1      16.915  -0.025  22.911  1.00  0.00     0.274 HD
ATOM     23  H42 UNL     1      15.661  -0.288  22.033  1.00  0.00     0.274 HD
ATOM     24  H41 UNL     1      15.413   0.348  23.572  1.00  0.00     0.274 HD
ENDBRANCH  20  21
ENDBRANCH  19  20
ENDBRANCH  17  19
ENDBRANCH  14  17
ENDBRANCH  13  14
ENDBRANCH  12  13
ENDBRANCH  10  12
BRANCH  11  25
HETATM   25  N5  UNL     1      17.475  -6.449  17.841  1.00  0.00    -0.395 N 
ATOM     26  H52 UNL     1      17.564  -6.722  16.862  1.00  0.00     0.156 HD
ATOM     27  H51 UNL     1      17.552  -5.515  18.244  1.00  0.00     0.156 HD
ENDBRANCH  11  25
BRANCH   1  28
HETATM   28  C5  UNL     1      16.664  -8.984  16.994  1.00  0.00     0.005 C 
BRANCH  28  29
HETATM   29  C4  UNL     1      15.358  -9.562  16.725  1.00  0.00     0.029 C 
BRANCH  29  30
HETATM   30  C3  UNL     1      14.404  -9.270  17.866  1.00  0.00     0.003 C 
BRANCH  30  31
HETATM   31  C2  UNL     1      13.286  -8.406  17.328  1.00  0.00    -0.004 C 
HETATM   32  C1  UNL     1      13.626  -6.974  17.630  1.00  0.00     0.005 C 
ENDBRANCH  30  31
ENDBRANCH  29  30
ENDBRANCH  28  29
ENDBRANCH   1  28
TORSDOF 13
ENDMDL
MODEL 5
REMARK VINA RESULT: -7.218093436      4.160      6.469
REMARK  13 active torsions:
REMARK  status: ('A' for Active; 'I' for Inactive)
REMARK    1  A    between atoms: C2_2  and  C3_3 
REMARK    2  A    between atoms: C3_3  and  C4_4 
REMARK    3  A    between atoms: C4_4  and  C5_5 
REMARK    4  A    between atoms: C5_5  and  C6_6 
REMARK    5  A    between atoms: C9_15  and  C10_16 
REMARK    6  A    between atoms: C10_16  and  C11_17 
REMARK    7  A    between atoms: C11_17  and  C12_18 
REMARK    8  A    between atoms: C12_18  and  O3_19 
REMARK    9  A    between atoms: C12_18  and  N3_21 
REMARK   10  A    between atoms: N3_21  and  C13_23 
REMARK   11  A    between atoms: C13_23  and  C14_24 
REMARK   12  A    between atoms: C14_24  and  N4_25 
REMARK   13  A    between atoms: C15_29  and  N5_30 
ROOT
HETATM    1  C6  UNL     1      17.451  -4.177  22.375  1.00  0.00     0.060 C 
HETATM    2  N1  UNL     1      17.292  -5.203  21.469  1.00  0.00    -0.317 N 
ATOM      3  H1  UNL     1      17.838  -6.044  21.655  1.00  0.00     0.169 HD
HETATM    4  C7  UNL     1      16.505  -5.247  20.361  1.00  0.00     0.314 C 
HETATM    5  O1  UNL     1      16.427  -6.301  19.721  1.00  0.00    -0.262 OA
HETATM    6  C8  UNL     1      15.740  -4.201  19.834  1.00  0.00     0.314 C 
HETATM    7  O2  UNL     1      15.349  -4.295  18.644  1.00  0.00    -0.262 OA
HETATM    8  N2  UNL     1      15.353  -3.053  20.469  1.00  0.00    -0.317 N 
ATOM      9  H2  UNL     1      14.719  -2.463  19.931  1.00  0.00     0.169 HD
HETATM   10  C9  UNL     1      15.672  -2.570  21.690  1.00  0.00     0.060 C 
HETATM   11  C15 UNL     1      16.453  -3.272  22.621  1.00  0.00     0.079 C 
ENDROOT
BRANCH  10  12
HETATM   12  C10 UNL     1      15.228  -1.380  22.043  1.00  0.00     0.009 C 
BRANCH  12  13
HETATM   13  C11 UNL     1      13.747  -1.146  22.049  1.00  0.00     0.082 C 
BRANCH  13  14
HETATM   14  C12 UNL     1      13.285  -0.619  23.380  1.00  0.00     0.216 C 
BRANCH  14  15
HETATM   15  O3  UNL     1      14.343  -0.434  24.271  1.00  0.00    -0.377 OA
ATOM     16  H3  UNL     1      14.425   0.471  24.549  1.00  0.00     0.212 HD
ENDBRANCH  14  15
BRANCH  14  17
HETATM   17  N3  UNL     1      12.613   0.628  23.197  1.00  0.00    -0.395 N 
ATOM     18  H3  UNL     1      13.090   1.455  22.840  1.00  0.00     0.155 HD
BRANCH  17  19
HETATM   19  C13 UNL     1      11.226   0.640  23.547  1.00  0.00     0.143 C 
BRANCH  19  20
HETATM   20  C14 UNL     1      10.752  -0.758  23.962  1.00  0.00     0.248 C 
BRANCH  20  21
HETATM   21  N4  UNL     1       9.715  -0.709  24.953  1.00  0.00    -0.078 N 
ATOM     22  H43 UNL     1       9.614   0.231  25.335  1.00  0.00     0.274 HD
ATOM     23  H42 UNL     1       8.793  -0.813  24.528  1.00  0.00     0.274 HD
ATOM     24  H41 UNL     1       9.857  -1.394  25.696  1.00  0.00     0.274 HD
ENDBRANCH  20  21
ENDBRANCH  19  20
ENDBRANCH  17  19
ENDBRANCH  14  17
ENDBRANCH  13  14
ENDBRANCH  12  13
ENDBRANCH  10  12
BRANCH  11  25
HETATM   25  N5  UNL     1      16.160  -3.041  23.817  1.00  0.00    -0.395 N 
ATOM     26  H52 UNL     1      16.136  -3.871  24.409  1.00  0.00     0.156 HD
ATOM     27  H51 UNL     1      15.999  -2.071  24.086  1.00  0.00     0.156 HD
ENDBRANCH  11  25
BRANCH   1  28
HETATM   28  C5  UNL     1      18.600  -4.113  22.984  1.00  0.00     0.005 C 
BRANCH  28  29
HETATM   29  C4  UNL     1      19.362  -5.108  23.720  1.00  0.00     0.029 C 
BRANCH  29  30
HETATM   30  C3  UNL     1      20.631  -4.497  24.280  1.00  0.00     0.003 C 
BRANCH  30  31
HETATM   31  C2  UNL     1      20.646  -3.032  23.906  1.00  0.00    -0.004 C 
HETATM   32  C1  UNL     1      21.882  -2.419  24.499  1.00  0.00     0.005 C 
ENDBRANCH  30  31
ENDBRANCH  29  30
ENDBRANCH  28  29
ENDBRANCH   1  28
TORSDOF 13
ENDMDL
