MODEL 1
REMARK VINA RESULT: -5.071142975      0.000      0.000
REMARK  1 active torsions:
REMARK  status: ('A' for Active; 'I' for Inactive)
REMARK    1  A    between atoms: C2_3  and  N2_4 
ROOT
HETATM    1  C1  UNL     1      51.027  36.464  25.797  1.00  0.00     0.180 C 
HETATM    2  N1  UNL     1      50.725  37.214  26.989  1.00  0.00    -0.137 N 
HETATM    3  C2  UNL     1      51.585  38.159  27.394  1.00  0.00     0.685 A 
HETATM    4  N3  UNL     1      51.323  38.882  28.518  1.00  0.00    -0.141 N 
ATOM      5  H3  UNL     1      51.987  39.597  28.814  1.00  0.00     0.189 HD
HETATM    6  C3  UNL     1      50.208  38.677  29.250  1.00  0.00     0.342 A 
HETATM    7  O1  UNL     1      49.967  39.348  30.290  1.00  0.00    -0.246 OA
HETATM    8  N4  UNL     1      49.354  37.728  28.836  1.00  0.00    -0.259 N 
ATOM      9  H4  UNL     1      48.502  37.546  29.365  1.00  0.00     0.175 HD
HETATM   10  C4  UNL     1      49.621  37.008  27.712  1.00  0.00     0.344 A 
HETATM   11  O2  UNL     1      48.813  36.121  27.332  1.00  0.00    -0.246 OA
ENDROOT
BRANCH   3  12
HETATM   12  N2  UNL     1      52.655  38.372  26.711  1.00  0.00    -0.234 N 
ATOM     13  H22 UNL     1      52.600  38.736  25.760  1.00  0.00     0.174 HD
ATOM     14  H21 UNL     1      53.563  38.173  27.130  1.00  0.00     0.174 HD
ENDBRANCH   3  12
TORSDOF 1
ENDMDL
MODEL 2
REMARK VINA RESULT: -5.035146485      1.236      1.236
REMARK  1 active torsions:
REMARK  status: ('A' for Active; 'I' for Inactive)
REMARK    1  A    between atoms: C2_3  and  N2_4 
ROOT
HETATM    1  C1  UNL     1      50.388  36.100  25.076  1.00  0.00     0.180 C 
HETATM    2  N1  UNL     1      50.289  37.078  26.130  1.00  0.00    -0.137 N 
HETATM    3  C2  UNL     1      50.946  38.238  25.999  1.00  0.00     0.685 A 
HETATM    4  N3  UNL     1      50.870  39.179  26.981  1.00  0.00    -0.141 N 
ATOM      5  H3  UNL     1      51.377  40.057  26.868  1.00  0.00     0.189 HD
HETATM    6  C3  UNL     1      50.143  38.979  28.100  1.00  0.00     0.342 A 
HETATM    7  O1  UNL     1      50.073  39.851  29.008  1.00  0.00    -0.246 OA
HETATM    8  N4  UNL     1      49.489  37.813  28.220  1.00  0.00    -0.259 N 
ATOM      9  H4  UNL     1      48.929  37.628  29.053  1.00  0.00     0.175 HD
HETATM   10  C4  UNL     1      49.569  36.877  27.236  1.00  0.00     0.344 A 
HETATM   11  O2  UNL     1      48.951  35.787  27.358  1.00  0.00    -0.246 OA
ENDROOT
BRANCH   3  12
HETATM   12  N2  UNL     1      51.647  38.450  24.940  1.00  0.00    -0.234 N 
ATOM     13  H22 UNL     1      52.605  38.108  24.873  1.00  0.00     0.174 HD
ATOM     14  H21 UNL     1      51.234  38.967  24.162  1.00  0.00     0.174 HD
ENDBRANCH   3  12
TORSDOF 1
ENDMDL
MODEL 3
REMARK VINA RESULT: -4.759069399      1.687      2.967
REMARK  1 active torsions:
REMARK  status: ('A' for Active; 'I' for Inactive)
REMARK    1  A    between atoms: C2_3  and  N2_4 
ROOT
HETATM    1  C1  UNL     1      49.967  37.497  29.843  1.00  0.00     0.180 C 
HETATM    2  N1  UNL     1      50.393  37.675  28.478  1.00  0.00    -0.137 N 
HETATM    3  C2  UNL     1      51.428  38.487  28.225  1.00  0.00     0.685 A 
HETATM    4  N3  UNL     1      51.850  38.673  26.943  1.00  0.00    -0.141 N 
ATOM      5  H3  UNL     1      52.639  39.296  26.766  1.00  0.00     0.189 HD
HETATM    6  C3  UNL     1      51.253  38.057  25.903  1.00  0.00     0.342 A 
HETATM    7  O1  UNL     1      51.645  38.230  24.717  1.00  0.00    -0.246 OA
HETATM    8  N4  UNL     1      50.217  37.245  26.168  1.00  0.00    -0.259 N 
ATOM      9  H4  UNL     1      49.741  36.762  25.406  1.00  0.00     0.175 HD
HETATM   10  C4  UNL     1      49.799  37.063  27.450  1.00  0.00     0.344 A 
HETATM   11  O2  UNL     1      48.827  36.299  27.689  1.00  0.00    -0.246 OA
ENDROOT
BRANCH   3  12
HETATM   12  N2  UNL     1      52.013  39.086  29.202  1.00  0.00    -0.234 N 
ATOM     13  H22 UNL     1      52.096  38.636  30.113  1.00  0.00     0.174 HD
ATOM     14  H21 UNL     1      52.397  40.021  29.058  1.00  0.00     0.174 HD
ENDBRANCH   3  12
TORSDOF 1
ENDMDL
MODEL 4
REMARK VINA RESULT: -4.714289636      1.368      3.074
REMARK  1 active torsions:
REMARK  status: ('A' for Active; 'I' for Inactive)
REMARK    1  A    between atoms: C2_3  and  N2_4 
ROOT
HETATM    1  C1  UNL     1      51.682  39.086  28.906  1.00  0.00     0.180 C 
HETATM    2  N1  UNL     1      51.117  38.103  28.017  1.00  0.00    -0.137 N 
HETATM    3  C2  UNL     1      51.828  37.712  26.950  1.00  0.00     0.685 A 
HETATM    4  N3  UNL     1      51.316  36.784  26.094  1.00  0.00    -0.141 N 
ATOM      5  H3  UNL     1      51.868  36.497  25.286  1.00  0.00     0.189 HD
HETATM    6  C3  UNL     1      50.099  36.235  26.287  1.00  0.00     0.342 A 
HETATM    7  O1  UNL     1      49.628  35.376  25.494  1.00  0.00    -0.246 OA
HETATM    8  N4  UNL     1      49.396  36.635  27.359  1.00  0.00    -0.259 N 
ATOM      9  H4  UNL     1      48.472  36.241  27.536  1.00  0.00     0.175 HD
HETATM   10  C4  UNL     1      49.912  37.562  28.211  1.00  0.00     0.344 A 
HETATM   11  O2  UNL     1      49.245  37.929  29.213  1.00  0.00    -0.246 OA
ENDROOT
BRANCH   3  12
HETATM   12  N2  UNL     1      52.992  38.222  26.746  1.00  0.00    -0.234 N 
ATOM     13  H22 UNL     1      53.747  38.080  27.417  1.00  0.00     0.174 HD
ATOM     14  H21 UNL     1      53.156  38.773  25.903  1.00  0.00     0.174 HD
ENDBRANCH   3  12
TORSDOF 1
ENDMDL
MODEL 5
REMARK VINA RESULT: -4.618146844      1.740      1.777
REMARK  1 active torsions:
REMARK  status: ('A' for Active; 'I' for Inactive)
REMARK    1  A    between atoms: C2_3  and  N2_4 
ROOT
HETATM    1  C1  UNL     1      51.159  37.743  25.215  1.00  0.00     0.180 C 
HETATM    2  N1  UNL     1      50.956  38.001  26.618  1.00  0.00    -0.137 N 
HETATM    3  C2  UNL     1      51.642  37.279  27.514  1.00  0.00     0.685 A 
HETATM    4  N3  UNL     1      51.467  37.502  28.846  1.00  0.00    -0.141 N 
ATOM      5  H3  UNL     1      51.995  36.944  29.517  1.00  0.00     0.189 HD
HETATM    6  C3  UNL     1      50.613  38.443  29.302  1.00  0.00     0.342 A 
HETATM    7  O1  UNL     1      50.454  38.649  30.536  1.00  0.00    -0.246 OA
HETATM    8  N4  UNL     1      49.932  39.160  28.395  1.00  0.00    -0.259 N 
ATOM      9  H4  UNL     1      49.278  39.880  28.704  1.00  0.00     0.175 HD
HETATM   10  C4  UNL     1      50.110  38.932  27.065  1.00  0.00     0.344 A 
HETATM   11  O2  UNL     1      49.466  39.611  26.223  1.00  0.00    -0.246 OA
ENDROOT
BRANCH   3  12
HETATM   12  N2  UNL     1      52.461  36.376  27.102  1.00  0.00    -0.234 N 
ATOM     13  H22 UNL     1      52.438  36.055  26.135  1.00  0.00     0.174 HD
ATOM     14  H21 UNL     1      53.140  35.981  27.755  1.00  0.00     0.174 HD
ENDBRANCH   3  12
TORSDOF 1
ENDMDL
