MODEL 1
REMARK VINA RESULT: -6.121996686      0.000      0.000
REMARK  0 active torsions:
REMARK  status: ('A' for Active; 'I' for Inactive)
REMARK       I    between atoms: N1_1  and  C1_4 
ROOT
HETATM    1  N1  UNL     1      51.406  38.642  24.628  1.00  0.00    -0.233 N 
ATOM      2  H11 UNL     1      50.595  38.467  24.035  1.00  0.00     0.174 HD
ATOM      3  H12 UNL     1      52.222  39.186  24.347  1.00  0.00     0.174 HD
HETATM    4  C1  UNL     1      51.383  38.135  25.819  1.00  0.00     0.693 C 
HETATM    5  N2  UNL     1      52.467  38.369  26.611  1.00  0.00    -0.133 N 
ATOM      6  H2  UNL     1      53.320  38.627  26.117  1.00  0.00     0.205 HD
HETATM    7  N3  UNL     1      52.571  38.310  27.933  1.00  0.00    -0.294 N 
ATOM      8  H3  UNL     1      53.512  38.452  28.300  1.00  0.00     0.186 HD
HETATM    9  C2  UNL     1      51.606  38.089  28.871  1.00  0.00     0.168 C 
HETATM   10  C3  UNL     1      50.465  37.347  28.639  1.00  0.00     0.256 C 
HETATM   11  O1  UNL     1      49.860  36.943  29.662  1.00  0.00    -0.281 OA
HETATM   12  C4  UNL     1      49.905  36.995  27.418  1.00  0.00     0.311 C 
HETATM   13  O2  UNL     1      48.924  36.203  27.431  1.00  0.00    -0.263 OA
HETATM   14  N4  UNL     1      50.304  37.415  26.192  1.00  0.00    -0.152 N 
ATOM     15  H4  UNL     1      49.688  37.142  25.426  1.00  0.00     0.188 HD
ENDROOT
TORSDOF 0
ENDMDL
MODEL 2
REMARK VINA RESULT: -5.565161481      1.299      2.769
REMARK  0 active torsions:
REMARK  status: ('A' for Active; 'I' for Inactive)
REMARK       I    between atoms: N1_1  and  C1_4 
ROOT
HETATM    1  N1  UNL     1      52.083  39.095  29.619  1.00  0.00    -0.233 N 
ATOM      2  H11 UNL     1      51.690  38.765  30.501  1.00  0.00     0.174 HD
ATOM      3  H12 UNL     1      52.866  39.744  29.541  1.00  0.00     0.174 HD
HETATM    4  C1  UNL     1      51.541  38.646  28.532  1.00  0.00     0.693 C 
HETATM    5  N2  UNL     1      52.066  39.085  27.354  1.00  0.00    -0.133 N 
ATOM      6  H2  UNL     1      52.599  39.952  27.411  1.00  0.00     0.205 HD
HETATM    7  N3  UNL     1      51.985  38.547  26.144  1.00  0.00    -0.294 N 
ATOM      8  H3  UNL     1      52.396  39.101  25.393  1.00  0.00     0.186 HD
HETATM    9  C2  UNL     1      51.433  37.361  25.756  1.00  0.00     0.168 C 
HETATM   10  C3  UNL     1      50.383  36.751  26.415  1.00  0.00     0.256 C 
HETATM   11  O1  UNL     1      49.765  35.875  25.761  1.00  0.00    -0.281 OA
HETATM   12  C4  UNL     1      49.928  36.986  27.705  1.00  0.00     0.311 C 
HETATM   13  O2  UNL     1      48.870  36.404  28.068  1.00  0.00    -0.263 OA
HETATM   14  N4  UNL     1      50.505  37.787  28.635  1.00  0.00    -0.152 N 
ATOM     15  H4  UNL     1      50.088  37.731  29.565  1.00  0.00     0.188 HD
ENDROOT
TORSDOF 0
ENDMDL
MODEL 3
REMARK VINA RESULT: -5.326996585      1.360      2.611
REMARK  0 active torsions:
REMARK  status: ('A' for Active; 'I' for Inactive)
REMARK       I    between atoms: N1_1  and  C1_4 
ROOT
HETATM    1  N1  UNL     1      52.204  39.600  27.744  1.00  0.00    -0.233 N 
ATOM      2  H11 UNL     1      52.109  39.673  28.757  1.00  0.00     0.174 HD
ATOM      3  H12 UNL     1      52.869  40.133  27.185  1.00  0.00     0.174 HD
HETATM    4  C1  UNL     1      51.419  38.764  27.140  1.00  0.00     0.693 C 
HETATM    5  N2  UNL     1      51.547  38.666  25.788  1.00  0.00    -0.133 N 
ATOM      6  H2  UNL     1      51.992  39.462  25.332  1.00  0.00     0.205 HD
HETATM    7  N3  UNL     1      51.175  37.683  24.977  1.00  0.00    -0.294 N 
ATOM      8  H3  UNL     1      51.304  37.868  23.982  1.00  0.00     0.186 HD
HETATM    9  C2  UNL     1      50.647  36.462  25.278  1.00  0.00     0.168 C 
HETATM   10  C3  UNL     1      49.887  36.210  26.404  1.00  0.00     0.256 C 
HETATM   11  O1  UNL     1      49.192  35.164  26.370  1.00  0.00    -0.281 OA
HETATM   12  C4  UNL     1      49.797  36.967  27.564  1.00  0.00     0.311 C 
HETATM   13  O2  UNL     1      48.943  36.620  28.424  1.00  0.00    -0.263 OA
HETATM   14  N4  UNL     1      50.539  38.058  27.880  1.00  0.00    -0.152 N 
ATOM     15  H4  UNL     1      50.409  38.401  28.832  1.00  0.00     0.188 HD
ENDROOT
TORSDOF 0
ENDMDL
MODEL 4
REMARK VINA RESULT: -5.317649524      1.891      1.965
REMARK  0 active torsions:
REMARK  status: ('A' for Active; 'I' for Inactive)
REMARK       I    between atoms: N1_1  and  C1_4 
ROOT
HETATM    1  N1  UNL     1      51.308  38.645  24.516  1.00  0.00    -0.233 N 
ATOM      2  H11 UNL     1      51.010  39.603  24.334  1.00  0.00     0.174 HD
ATOM      3  H12 UNL     1      51.692  38.015  23.813  1.00  0.00     0.174 HD
HETATM    4  C1  UNL     1      51.188  38.215  25.732  1.00  0.00     0.693 C 
HETATM    5  N2  UNL     1      51.588  36.936  25.976  1.00  0.00    -0.133 N 
ATOM      6  H2  UNL     1      51.633  36.330  25.158  1.00  0.00     0.205 HD
HETATM    7  N3  UNL     1      51.927  36.365  27.125  1.00  0.00    -0.294 N 
ATOM      8  H3  UNL     1      52.117  35.365  27.074  1.00  0.00     0.186 HD
HETATM    9  C2  UNL     1      52.058  36.919  28.365  1.00  0.00     0.168 C 
HETATM   10  C3  UNL     1      51.348  38.026  28.790  1.00  0.00     0.256 C 
HETATM   11  O1  UNL     1      51.310  38.204  30.033  1.00  0.00    -0.281 OA
HETATM   12  C4  UNL     1      50.676  38.962  28.017  1.00  0.00     0.311 C 
HETATM   13  O2  UNL     1      49.984  39.829  28.617  1.00  0.00    -0.263 OA
HETATM   14  N4  UNL     1      50.680  39.049  26.663  1.00  0.00    -0.152 N 
ATOM     15  H4  UNL     1      50.225  39.882  26.288  1.00  0.00     0.188 HD
ENDROOT
TORSDOF 0
ENDMDL
MODEL 5
REMARK VINA RESULT: -5.183021429      1.244      1.557
REMARK  0 active torsions:
REMARK  status: ('A' for Active; 'I' for Inactive)
REMARK       I    between atoms: N1_1  and  C1_4 
ROOT
HETATM    1  N1  UNL     1      50.698  36.413  24.979  1.00  0.00    -0.233 N 
ATOM      2  H11 UNL     1      49.851  35.845  24.961  1.00  0.00     0.174 HD
ATOM      3  H12 UNL     1      51.314  36.559  24.180  1.00  0.00     0.174 HD
HETATM    4  C1  UNL     1      50.997  36.984  26.103  1.00  0.00     0.693 C 
HETATM    5  N2  UNL     1      52.128  37.743  26.127  1.00  0.00    -0.133 N 
ATOM      6  H2  UNL     1      52.804  37.542  25.391  1.00  0.00     0.205 HD
HETATM    7  N3  UNL     1      52.476  38.707  26.970  1.00  0.00    -0.294 N 
ATOM      8  H3  UNL     1      53.415  39.083  26.836  1.00  0.00     0.186 HD
HETATM    9  C2  UNL     1      51.765  39.268  27.989  1.00  0.00     0.168 C 
HETATM   10  C3  UNL     1      50.787  38.601  28.701  1.00  0.00     0.256 C 
HETATM   11  O1  UNL     1      50.475  39.109  29.807  1.00  0.00    -0.281 OA
HETATM   12  C4  UNL     1      50.108  37.443  28.347  1.00  0.00     0.311 C 
HETATM   13  O2  UNL     1      49.339  36.931  29.205  1.00  0.00    -0.263 OA
HETATM   14  N4  UNL     1      50.182  36.790  27.161  1.00  0.00    -0.152 N 
ATOM     15  H4  UNL     1      49.513  36.029  27.050  1.00  0.00     0.188 HD
ENDROOT
TORSDOF 0
ENDMDL
