MODEL 1
REMARK VINA RESULT: -5.353305150      0.000      0.000
REMARK  2 active torsions:
REMARK  status: ('A' for Active; 'I' for Inactive)
REMARK    1  A    between atoms: N1_1  and  N2_4 
REMARK    2  A    between atoms: N2_4  and  C1_6 
ROOT
HETATM    1  C1  UNL     1      50.782  38.843  26.933  1.00  0.00     0.704 A 
HETATM    2  N3  UNL     1      49.814  37.975  27.241  1.00  0.00    -0.139 N 
ATOM      3  H3  UNL     1      49.149  37.707  26.515  1.00  0.00     0.189 HD
HETATM    4  C2  UNL     1      49.679  37.440  28.469  1.00  0.00     0.342 A 
HETATM    5  O1  UNL     1      48.761  36.623  28.742  1.00  0.00    -0.246 OA
HETATM    6  N4  UNL     1      50.557  37.798  29.419  1.00  0.00    -0.260 N 
ATOM      7  H4  UNL     1      50.481  37.409  30.359  1.00  0.00     0.175 HD
HETATM    8  C3  UNL     1      51.528  38.662  29.130  1.00  0.00     0.342 A 
HETATM    9  O2  UNL     1      52.351  38.998  30.018  1.00  0.00    -0.246 OA
HETATM   10  N5  UNL     1      51.652  39.194  27.884  1.00  0.00    -0.139 N 
ATOM     11  H5  UNL     1      52.401  39.855  27.679  1.00  0.00     0.189 HD
ENDROOT
BRANCH   1  12
HETATM   12  N2  UNL     1      50.883  39.331  25.764  1.00  0.00    -0.138 N 
ATOM     13  H2  UNL     1      50.618  40.307  25.636  1.00  0.00     0.205 HD
BRANCH  12  14
HETATM   14  N1  UNL     1      51.328  38.636  24.650  1.00  0.00    -0.331 N 
ATOM     15  H12 UNL     1      52.315  38.741  24.413  1.00  0.00     0.177 HD
ATOM     16  H11 UNL     1      50.746  38.039  24.064  1.00  0.00     0.177 HD
ENDBRANCH  12  14
ENDBRANCH   1  12
TORSDOF 2
ENDMDL
MODEL 2
REMARK VINA RESULT: -5.347269785      0.078      2.481
REMARK  2 active torsions:
REMARK  status: ('A' for Active; 'I' for Inactive)
REMARK    1  A    between atoms: N1_1  and  N2_4 
REMARK    2  A    between atoms: N2_4  and  C1_6 
ROOT
HETATM    1  C1  UNL     1      50.820  38.855  26.943  1.00  0.00     0.704 A 
HETATM    2  N3  UNL     1      51.634  39.228  27.935  1.00  0.00    -0.139 N 
ATOM      3  H3  UNL     1      52.364  39.913  27.737  1.00  0.00     0.189 HD
HETATM    4  C2  UNL     1      51.531  38.739  29.185  1.00  0.00     0.342 A 
HETATM    5  O1  UNL     1      52.306  39.102  30.109  1.00  0.00    -0.246 OA
HETATM    6  N4  UNL     1      50.568  37.838  29.439  1.00  0.00    -0.260 N 
ATOM      7  H4  UNL     1      50.466  37.450  30.376  1.00  0.00     0.175 HD
HETATM    8  C3  UNL     1      49.749  37.454  28.462  1.00  0.00     0.342 A 
HETATM    9  O2  UNL     1      48.847  36.611  28.699  1.00  0.00    -0.246 OA
HETATM   10  N5  UNL     1      49.865  37.957  27.204  1.00  0.00    -0.139 N 
ATOM     11  H5  UNL     1      49.230  37.653  26.467  1.00  0.00     0.189 HD
ENDROOT
BRANCH   1  12
HETATM   12  N2  UNL     1      50.942  39.334  25.773  1.00  0.00    -0.138 N 
ATOM     13  H2  UNL     1      50.738  40.325  25.646  1.00  0.00     0.205 HD
BRANCH  12  14
HETATM   14  N1  UNL     1      51.333  38.612  24.656  1.00  0.00    -0.331 N 
ATOM     15  H12 UNL     1      52.315  38.339  24.612  1.00  0.00     0.177 HD
ATOM     16  H11 UNL     1      50.716  38.341  23.891  1.00  0.00     0.177 HD
ENDBRANCH  12  14
ENDBRANCH   1  12
TORSDOF 2
ENDMDL
MODEL 3
REMARK VINA RESULT: -5.152413718      1.212      1.212
REMARK  2 active torsions:
REMARK  status: ('A' for Active; 'I' for Inactive)
REMARK    1  A    between atoms: N1_1  and  N2_4 
REMARK    2  A    between atoms: N2_4  and  C1_6 
ROOT
HETATM    1  C1  UNL     1      50.877  38.408  27.056  1.00  0.00     0.704 A 
HETATM    2  N3  UNL     1      50.040  37.374  26.924  1.00  0.00    -0.139 N 
ATOM      3  H3  UNL     1      50.043  36.851  26.049  1.00  0.00     0.189 HD
HETATM    4  C2  UNL     1      49.192  36.995  27.899  1.00  0.00     0.342 A 
HETATM    5  O1  UNL     1      48.410  36.018  27.759  1.00  0.00    -0.246 OA
HETATM    6  N4  UNL     1      49.193  37.688  29.049  1.00  0.00    -0.260 N 
ATOM      7  H4  UNL     1      48.562  37.424  29.806  1.00  0.00     0.175 HD
HETATM    8  C3  UNL     1      50.020  38.721  29.197  1.00  0.00     0.342 A 
HETATM    9  O2  UNL     1      50.021  39.371  30.273  1.00  0.00    -0.246 OA
HETATM   10  N5  UNL     1      50.871  39.093  28.203  1.00  0.00    -0.139 N 
ATOM     11  H5  UNL     1      51.498  39.886  28.332  1.00  0.00     0.189 HD
ENDROOT
BRANCH   1  12
HETATM   12  N2  UNL     1      51.665  38.742  26.117  1.00  0.00    -0.138 N 
ATOM     13  H2  UNL     1      52.562  39.151  26.378  1.00  0.00     0.205 HD
BRANCH  12  14
HETATM   14  N1  UNL     1      51.398  38.591  24.765  1.00  0.00    -0.331 N 
ATOM     15  H12 UNL     1      51.364  39.446  24.211  1.00  0.00     0.177 HD
ATOM     16  H11 UNL     1      51.237  37.699  24.298  1.00  0.00     0.177 HD
ENDBRANCH  12  14
ENDBRANCH   1  12
TORSDOF 2
ENDMDL
MODEL 4
REMARK VINA RESULT: -5.138612579      1.212      2.567
REMARK  2 active torsions:
REMARK  status: ('A' for Active; 'I' for Inactive)
REMARK    1  A    between atoms: N1_1  and  N2_4 
REMARK    2  A    between atoms: N2_4  and  C1_6 
ROOT
HETATM    1  C1  UNL     1      50.854  38.438  27.063  1.00  0.00     0.704 A 
HETATM    2  N3  UNL     1      50.828  39.089  28.230  1.00  0.00    -0.139 N 
ATOM      3  H3  UNL     1      51.451  39.887  28.359  1.00  0.00     0.189 HD
HETATM    4  C2  UNL     1      50.015  38.735  29.243  1.00  0.00     0.342 A 
HETATM    5  O1  UNL     1      50.002  39.360  30.337  1.00  0.00    -0.246 OA
HETATM    6  N4  UNL     1      49.198  37.684  29.067  1.00  0.00    -0.260 N 
ATOM      7  H4  UNL     1      48.571  37.393  29.816  1.00  0.00     0.175 HD
HETATM    8  C3  UNL     1      49.212  37.023  27.911  1.00  0.00     0.342 A 
HETATM    9  O2  UNL     1      48.448  36.040  27.745  1.00  0.00    -0.246 OA
HETATM   10  N5  UNL     1      50.039  37.393  26.896  1.00  0.00    -0.139 N 
ATOM     11  H5  UNL     1      50.037  36.877  26.017  1.00  0.00     0.189 HD
ENDROOT
BRANCH   1  12
HETATM   12  N2  UNL     1      51.634  38.796  26.126  1.00  0.00    -0.138 N 
ATOM     13  H2  UNL     1      52.499  39.267  26.387  1.00  0.00     0.205 HD
BRANCH  12  14
HETATM   14  N1  UNL     1      51.395  38.593  24.775  1.00  0.00    -0.331 N 
ATOM     15  H12 UNL     1      51.966  37.884  24.315  1.00  0.00     0.177 HD
ATOM     16  H11 UNL     1      50.701  39.095  24.223  1.00  0.00     0.177 HD
ENDBRANCH  12  14
ENDBRANCH   1  12
TORSDOF 2
ENDMDL
MODEL 5
REMARK VINA RESULT: -4.859291357      2.050      3.245
REMARK  2 active torsions:
REMARK  status: ('A' for Active; 'I' for Inactive)
REMARK    1  A    between atoms: N1_1  and  N2_4 
REMARK    2  A    between atoms: N2_4  and  C1_6 
ROOT
HETATM    1  C1  UNL     1      51.506  38.544  28.205  1.00  0.00     0.704 A 
HETATM    2  N3  UNL     1      50.478  37.725  28.449  1.00  0.00    -0.139 N 
ATOM      3  H3  UNL     1      50.177  37.592  29.415  1.00  0.00     0.189 HD
HETATM    4  C2  UNL     1      49.823  37.068  27.473  1.00  0.00     0.342 A 
HETATM    5  O1  UNL     1      48.856  36.300  27.720  1.00  0.00    -0.246 OA
HETATM    6  N4  UNL     1      50.224  37.247  26.205  1.00  0.00    -0.260 N 
ATOM      7  H4  UNL     1      49.748  36.763  25.444  1.00  0.00     0.175 HD
HETATM    8  C3  UNL     1      51.247  38.059  25.943  1.00  0.00     0.342 A 
HETATM    9  O2  UNL     1      51.624  38.227  24.756  1.00  0.00    -0.246 OA
HETATM   10  N5  UNL     1      51.899  38.716  26.940  1.00  0.00    -0.139 N 
ATOM     11  H5  UNL     1      52.680  39.335  26.723  1.00  0.00     0.189 HD
ENDROOT
BRANCH   1  12
HETATM   12  N2  UNL     1      52.104  39.151  29.148  1.00  0.00    -0.138 N 
ATOM     13  H2  UNL     1      52.576  40.026  28.920  1.00  0.00     0.205 HD
BRANCH  12  14
HETATM   14  N1  UNL     1      52.164  38.712  30.461  1.00  0.00    -0.331 N 
ATOM     15  H12 UNL     1      51.285  38.403  30.877  1.00  0.00     0.177 HD
ATOM     16  H11 UNL     1      53.011  38.679  31.028  1.00  0.00     0.177 HD
ENDBRANCH  12  14
ENDBRANCH   1  12
TORSDOF 2
ENDMDL
