MODEL 1
REMARK VINA RESULT: -8.737587914      0.000      0.000
REMARK  17 active torsions:
REMARK  status: ('A' for Active; 'I' for Inactive)
REMARK    1  A    between atoms: N2_3  and  N3_5 
REMARK    2  A    between atoms: N3_5  and  N4_6 
REMARK    3  A    between atoms: N3_5  and  C2_9 
REMARK    4  A    between atoms: C2_9  and  O1_10 
REMARK    5  A    between atoms: C2_9  and  C3_12 
REMARK    6  A    between atoms: C4_15  and  N6_16 
REMARK    7  A    between atoms: N6_16  and  C5_18 
REMARK    8  A    between atoms: C6_21  and  C7_22 
REMARK    9  A    between atoms: C8_23  and  C9_24 
REMARK   10  A    between atoms: C9_24  and  O2_25 
REMARK   11  A    between atoms: C10_29  and  N9_30 
REMARK   12  A    between atoms: N11_36  and  S1_37 
REMARK   13  A    between atoms: S1_37  and  N12_40 
REMARK   14  A    between atoms: C12_42  and  C13_43 
REMARK       I    between atoms: C13_43  and  N13_45 
REMARK   15  A    between atoms: N13_45  and  C14_47 
REMARK   16  A    between atoms: C14_47  and  C15_48 
REMARK       I    between atoms: C15_48  and  N14_50 
REMARK   17  A    between atoms: N14_50  and  N15_52 
ROOT
HETATM    1  N1  UNL     1      20.281  39.541 104.791  1.00  0.00    -0.170 NA
HETATM    2  C1  UNL     1      19.963  38.571 105.325  1.00  0.00     0.199 C 
HETATM    3  N2  UNL     1      19.599  37.405 105.952  1.00  0.00    -0.213 N 
ATOM      4  H2  UNL     1      20.264  36.970 106.591  1.00  0.00     0.201 HD
ENDROOT
BRANCH   3   5
HETATM    5  N3  UNL     1      18.313  36.762 105.751  1.00  0.00    -0.167 N 
BRANCH   5   6
HETATM    6  N4  UNL     1      18.451  35.412 105.522  1.00  0.00    -0.321 N 
ATOM      7  H42 UNL     1      18.542  34.876 104.659  1.00  0.00     0.179 HD
ATOM      8  H41 UNL     1      18.540  34.889 106.393  1.00  0.00     0.179 HD
ENDBRANCH   5   6
BRANCH   5   9
HETATM    9  C2  UNL     1      17.220  37.582 105.733  1.00  0.00     0.225 C 
BRANCH   9  10
HETATM   10  O1  UNL     1      16.657  37.603 106.966  1.00  0.00    -0.341 OA
ATOM     11  H1  UNL     1      15.840  37.120 106.946  1.00  0.00     0.219 HD
ENDBRANCH   9  10
BRANCH   9  12
HETATM   12  C3  UNL     1      16.478  38.431 104.856  1.00  0.00     0.179 A 
HETATM   13  N5  UNL     1      16.996  39.688 104.480  1.00  0.00    -0.322 N 
HETATM   14  C4  UNL     1      16.158  40.337 103.714  1.00  0.00     0.139 A 
ATOM     15  H5  UNL     1      17.907  40.046 104.768  1.00  0.00     0.169 HD
HETATM   16  C11 UNL     1      15.070  39.519 103.574  1.00  0.00     0.161 A 
HETATM   17  N11 UNL     1      15.289  38.356 104.286  1.00  0.00    -0.211 N 
BRANCH  14  18
HETATM   18  N6  UNL     1      16.310  41.587 103.084  1.00  0.00    -0.174 N 
ATOM     19  H6  UNL     1      15.493  41.953 102.595  1.00  0.00     0.186 HD
BRANCH  18  20
HETATM   20  C5  UNL     1      17.365  42.312 103.061  1.00  0.00     0.700 A 
HETATM   21  N7  UNL     1      17.318  43.643 103.260  1.00  0.00    -0.167 N 
HETATM   22  C6  UNL     1      18.413  44.414 103.240  1.00  0.00     0.191 A 
ATOM     23  H7  UNL     1      16.412  44.081 103.432  1.00  0.00     0.186 HD
HETATM   24  N8  UNL     1      19.606  43.846 103.014  1.00  0.00    -0.168 N 
HETATM   25  C10 UNL     1      19.702  42.508 102.808  1.00  0.00     0.692 A 
ATOM     26  H8  UNL     1      20.447  44.423 102.996  1.00  0.00     0.186 HD
HETATM   27  N10 UNL     1      18.580  41.782 102.838  1.00  0.00    -0.022 N 
ATOM     28  H10 UNL     1      18.650  40.777 102.684  1.00  0.00     0.203 HD
BRANCH  22  29
HETATM   29  C7  UNL     1      18.358  45.827 103.452  1.00  0.00    -0.027 C 
HETATM   30  C8  UNL     1      18.323  47.007 103.652  1.00  0.00    -0.072 C 
BRANCH  30  31
HETATM   31  C9  UNL     1      18.286  48.431 103.923  1.00  0.00     0.258 C 
BRANCH  31  32
HETATM   32  O2  UNL     1      19.545  48.917 104.293  1.00  0.00    -0.389 OA
ATOM     33  H2  UNL     1      19.812  48.583 105.142  1.00  0.00     0.210 HD
ENDBRANCH  31  32
ENDBRANCH  30  31
ENDBRANCH  22  29
BRANCH  25  34
HETATM   34  N9  UNL     1      20.861  41.991 102.593  1.00  0.00    -0.234 N 
ATOM     35  H92 UNL     1      21.546  41.841 103.334  1.00  0.00     0.174 HD
ATOM     36  H91 UNL     1      21.112  41.718 101.643  1.00  0.00     0.174 HD
ENDBRANCH  25  34
ENDBRANCH  18  20
ENDBRANCH  14  18
BRANCH  17  37
HETATM   37  S1  UNL     1      14.017  37.204 104.452  1.00  0.00     0.330 S 
HETATM   38  O3  UNL     1      12.685  38.070 104.439  1.00  0.00    -0.182 OA
HETATM   39  O4  UNL     1      13.777  36.413 103.175  1.00  0.00    -0.182 OA
BRANCH  37  40
HETATM   40  N12 UNL     1      13.936  36.339 105.853  1.00  0.00    -0.273 N 
HETATM   41  C12 UNL     1      12.882  36.050 106.655  1.00  0.00     0.175 C 
ATOM     42  H12 UNL     1      14.828  35.958 106.169  1.00  0.00     0.179 HD
BRANCH  41  43
HETATM   43  C13 UNL     1      13.380  35.227 107.821  1.00  0.00     0.257 C 
HETATM   44  O5  UNL     1      14.381  34.506 107.647  1.00  0.00    -0.267 OA
HETATM   45  N13 UNL     1      12.684  35.315 109.047  1.00  0.00    -0.348 N 
ATOM     46  H13 UNL     1      11.864  35.913 109.152  1.00  0.00     0.163 HD
BRANCH  45  47
HETATM   47  C14 UNL     1      13.185  34.519 110.146  1.00  0.00     0.227 C 
BRANCH  47  48
HETATM   48  C15 UNL     1      14.188  35.275 110.920  1.00  0.00     0.249 C 
HETATM   49  O6  UNL     1      13.905  36.206 111.735  1.00  0.00    -0.270 OA
HETATM   50  N14 UNL     1      15.585  34.986 110.792  1.00  0.00    -0.286 N 
ATOM     51  H14 UNL     1      15.873  34.253 110.142  1.00  0.00     0.184 HD
BRANCH  50  52
HETATM   52  N15 UNL     1      16.563  35.653 111.509  1.00  0.00    -0.201 NA
HETATM   53  C16 UNL     1      17.591  34.727 111.989  1.00  0.00     0.144 C 
HETATM   54  C17 UNL     1      18.630  35.729 111.577  1.00  0.00     0.140 C 
HETATM   55  N16 UNL     1      19.599  35.232 110.618  1.00  0.00    -0.334 N 
HETATM   56  C19 UNL     1      17.549  36.375 110.775  1.00  0.00     0.205 C 
HETATM   57  C18 UNL     1      19.097  35.504 109.320  1.00  0.00     0.317 C 
ATOM     58  H16 UNL     1      20.481  34.770 110.839  1.00  0.00     0.164 HD
HETATM   59  O7  UNL     1      19.736  35.398 108.234  1.00  0.00    -0.247 OA
HETATM   60  N17 UNL     1      17.741  35.924 109.404  1.00  0.00    -0.323 N 
ATOM     61  H17 UNL     1      17.046  35.912 108.659  1.00  0.00     0.166 HD
ENDBRANCH  50  52
ENDBRANCH  47  48
ENDBRANCH  45  47
ENDBRANCH  41  43
ENDBRANCH  37  40
ENDBRANCH  17  37
ENDBRANCH   9  12
ENDBRANCH   5   9
ENDBRANCH   3   5
TORSDOF 17
ENDMDL
MODEL 2
REMARK VINA RESULT: -8.502744736      2.894      4.020
REMARK  17 active torsions:
REMARK  status: ('A' for Active; 'I' for Inactive)
REMARK    1  A    between atoms: N2_3  and  N3_5 
REMARK    2  A    between atoms: N3_5  and  N4_6 
REMARK    3  A    between atoms: N3_5  and  C2_9 
REMARK    4  A    between atoms: C2_9  and  O1_10 
REMARK    5  A    between atoms: C2_9  and  C3_12 
REMARK    6  A    between atoms: C4_15  and  N6_16 
REMARK    7  A    between atoms: N6_16  and  C5_18 
REMARK    8  A    between atoms: C6_21  and  C7_22 
REMARK    9  A    between atoms: C8_23  and  C9_24 
REMARK   10  A    between atoms: C9_24  and  O2_25 
REMARK   11  A    between atoms: C10_29  and  N9_30 
REMARK   12  A    between atoms: N11_36  and  S1_37 
REMARK   13  A    between atoms: S1_37  and  N12_40 
REMARK   14  A    between atoms: C12_42  and  C13_43 
REMARK       I    between atoms: C13_43  and  N13_45 
REMARK   15  A    between atoms: N13_45  and  C14_47 
REMARK   16  A    between atoms: C14_47  and  C15_48 
REMARK       I    between atoms: C15_48  and  N14_50 
REMARK   17  A    between atoms: N14_50  and  N15_52 
ROOT
HETATM    1  N1  UNL     1      20.647  35.439 109.214  1.00  0.00    -0.170 NA
HETATM    2  C1  UNL     1      20.108  34.456 108.947  1.00  0.00     0.199 C 
HETATM    3  N2  UNL     1      19.482  33.275 108.631  1.00  0.00    -0.213 N 
ATOM      4  H2  UNL     1      19.471  32.530 109.328  1.00  0.00     0.201 HD
ENDROOT
BRANCH   3   5
HETATM    5  N3  UNL     1      18.835  33.035 107.354  1.00  0.00    -0.167 N 
BRANCH   5   6
HETATM    6  N4  UNL     1      19.154  31.795 106.849  1.00  0.00    -0.321 N 
ATOM      7  H42 UNL     1      18.650  30.908 106.857  1.00  0.00     0.179 HD
ATOM      8  H41 UNL     1      20.026  31.816 106.320  1.00  0.00     0.179 HD
ENDBRANCH   5   6
BRANCH   5   9
HETATM    9  C2  UNL     1      18.113  34.072 106.834  1.00  0.00     0.225 C 
BRANCH   9  10
HETATM   10  O1  UNL     1      16.919  34.149 107.472  1.00  0.00    -0.341 OA
ATOM     11  H1  UNL     1      16.574  33.274 107.598  1.00  0.00     0.219 HD
ENDBRANCH   9  10
BRANCH   9  12
HETATM   12  C3  UNL     1      18.197  35.106 105.852  1.00  0.00     0.179 A 
HETATM   13  N5  UNL     1      19.099  36.178 106.026  1.00  0.00    -0.322 N 
HETATM   14  C4  UNL     1      19.000  37.044 105.053  1.00  0.00     0.139 A 
ATOM     15  H5  UNL     1      19.746  36.264 106.811  1.00  0.00     0.169 HD
HETATM   16  C11 UNL     1      18.028  36.561 104.220  1.00  0.00     0.161 A 
HETATM   17  N11 UNL     1      17.549  35.372 104.733  1.00  0.00    -0.211 N 
BRANCH  14  18
HETATM   18  N6  UNL     1      19.750  38.214 104.820  1.00  0.00    -0.174 N 
ATOM     19  H6  UNL     1      20.713  38.213 105.155  1.00  0.00     0.186 HD
BRANCH  18  20
HETATM   20  C5  UNL     1      19.348  39.277 104.231  1.00  0.00     0.700 A 
HETATM   21  N7  UNL     1      18.038  39.550 104.072  1.00  0.00    -0.167 N 
HETATM   22  C6  UNL     1      17.603  40.659 103.459  1.00  0.00     0.191 A 
ATOM     23  H7  UNL     1      17.352  38.886 104.431  1.00  0.00     0.186 HD
HETATM   24  N8  UNL     1      18.499  41.535 102.983  1.00  0.00    -0.168 N 
HETATM   25  C10 UNL     1      19.828  41.302 103.120  1.00  0.00     0.692 A 
ATOM     26  H8  UNL     1      18.178  42.383 102.514  1.00  0.00     0.186 HD
HETATM   27  N10 UNL     1      20.212  40.182 103.740  1.00  0.00    -0.022 N 
ATOM     28  H10 UNL     1      21.211  40.004 103.845  1.00  0.00     0.203 HD
BRANCH  22  29
HETATM   29  C7  UNL     1      16.212  40.944 103.292  1.00  0.00    -0.027 C 
HETATM   30  C8  UNL     1      15.043  41.176 103.176  1.00  0.00    -0.072 C 
BRANCH  30  31
HETATM   31  C9  UNL     1      13.622  41.442 103.061  1.00  0.00     0.258 C 
BRANCH  31  32
HETATM   32  O2  UNL     1      13.313  42.070 101.849  1.00  0.00    -0.389 OA
ATOM     33  H2  UNL     1      12.374  42.100 101.701  1.00  0.00     0.210 HD
ENDBRANCH  31  32
ENDBRANCH  30  31
ENDBRANCH  22  29
BRANCH  25  34
HETATM   34  N9  UNL     1      20.664  42.162 102.653  1.00  0.00    -0.234 N 
ATOM     35  H92 UNL     1      21.605  42.278 103.028  1.00  0.00     0.174 HD
ATOM     36  H91 UNL     1      20.380  42.755 101.873  1.00  0.00     0.174 HD
ENDBRANCH  25  34
ENDBRANCH  18  20
ENDBRANCH  14  18
BRANCH  17  37
HETATM   37  S1  UNL     1      16.185  34.614 104.001  1.00  0.00     0.330 S 
HETATM   38  O3  UNL     1      15.432  35.788 103.240  1.00  0.00    -0.182 OA
HETATM   39  O4  UNL     1      16.565  33.776 102.789  1.00  0.00    -0.182 OA
BRANCH  37  40
HETATM   40  N12 UNL     1      15.041  33.959 104.990  1.00  0.00    -0.273 N 
HETATM   41  C12 UNL     1      13.871  33.337 104.701  1.00  0.00     0.175 C 
ATOM     42  H12 UNL     1      15.247  34.034 105.987  1.00  0.00     0.179 HD
BRANCH  41  43
HETATM   43  C13 UNL     1      13.206  32.942 105.999  1.00  0.00     0.257 C 
HETATM   44  O5  UNL     1      12.688  31.811 106.074  1.00  0.00    -0.267 OA
HETATM   45  N13 UNL     1      13.204  33.875 107.060  1.00  0.00    -0.348 N 
ATOM     46  H13 UNL     1      13.634  34.794 106.962  1.00  0.00     0.163 HD
BRANCH  45  47
HETATM   47  C14 UNL     1      12.564  33.468 108.292  1.00  0.00     0.227 C 
BRANCH  47  48
HETATM   48  C15 UNL     1      13.054  34.277 109.424  1.00  0.00     0.249 C 
HETATM   49  O6  UNL     1      12.315  34.720 110.356  1.00  0.00    -0.270 OA
HETATM   50  N14 UNL     1      14.441  34.614 109.539  1.00  0.00    -0.286 N 
ATOM     51  H14 UNL     1      15.082  34.294 108.813  1.00  0.00     0.184 HD
BRANCH  50  52
HETATM   52  N15 UNL     1      14.953  35.354 110.592  1.00  0.00    -0.201 NA
HETATM   53  C16 UNL     1      16.316  34.931 110.922  1.00  0.00     0.144 C 
HETATM   54  C17 UNL     1      16.695  36.377 111.040  1.00  0.00     0.140 C 
HETATM   55  N16 UNL     1      17.770  36.791 110.158  1.00  0.00    -0.334 N 
HETATM   56  C19 UNL     1      15.426  36.669 110.311  1.00  0.00     0.205 C 
HETATM   57  C18 UNL     1      17.183  37.242 108.947  1.00  0.00     0.317 C 
ATOM     58  H16 UNL     1      18.767  36.763 110.369  1.00  0.00     0.164 HD
HETATM   59  O7  UNL     1      17.774  37.857 108.014  1.00  0.00    -0.247 OA
HETATM   60  N17 UNL     1      15.803  36.899 108.923  1.00  0.00    -0.323 N 
ATOM     61  H17 UNL     1      15.201  36.829 108.103  1.00  0.00     0.166 HD
ENDBRANCH  50  52
ENDBRANCH  47  48
ENDBRANCH  45  47
ENDBRANCH  41  43
ENDBRANCH  37  40
ENDBRANCH  17  37
ENDBRANCH   9  12
ENDBRANCH   5   9
ENDBRANCH   3   5
TORSDOF 17
ENDMDL
MODEL 3
REMARK VINA RESULT: -8.454535894      2.417      4.029
REMARK  17 active torsions:
REMARK  status: ('A' for Active; 'I' for Inactive)
REMARK    1  A    between atoms: N2_3  and  N3_5 
REMARK    2  A    between atoms: N3_5  and  N4_6 
REMARK    3  A    between atoms: N3_5  and  C2_9 
REMARK    4  A    between atoms: C2_9  and  O1_10 
REMARK    5  A    between atoms: C2_9  and  C3_12 
REMARK    6  A    between atoms: C4_15  and  N6_16 
REMARK    7  A    between atoms: N6_16  and  C5_18 
REMARK    8  A    between atoms: C6_21  and  C7_22 
REMARK    9  A    between atoms: C8_23  and  C9_24 
REMARK   10  A    between atoms: C9_24  and  O2_25 
REMARK   11  A    between atoms: C10_29  and  N9_30 
REMARK   12  A    between atoms: N11_36  and  S1_37 
REMARK   13  A    between atoms: S1_37  and  N12_40 
REMARK   14  A    between atoms: C12_42  and  C13_43 
REMARK       I    between atoms: C13_43  and  N13_45 
REMARK   15  A    between atoms: N13_45  and  C14_47 
REMARK   16  A    between atoms: C14_47  and  C15_48 
REMARK       I    between atoms: C15_48  and  N14_50 
REMARK   17  A    between atoms: N14_50  and  N15_52 
ROOT
HETATM    1  N1  UNL     1      19.517  35.853 110.958  1.00  0.00    -0.170 NA
HETATM    2  C1  UNL     1      19.813  35.255 110.019  1.00  0.00     0.199 C 
HETATM    3  N2  UNL     1      20.170  34.558 108.891  1.00  0.00    -0.213 N 
ATOM      4  H2  UNL     1      21.131  34.633 108.558  1.00  0.00     0.201 HD
ENDROOT
BRANCH   3   5
HETATM    5  N3  UNL     1      19.246  33.721 108.148  1.00  0.00    -0.167 N 
BRANCH   5   6
HETATM    6  N4  UNL     1      19.634  32.401 108.161  1.00  0.00    -0.321 N 
ATOM      7  H42 UNL     1      20.418  31.928 108.609  1.00  0.00     0.179 HD
ATOM      8  H41 UNL     1      18.958  31.805 107.682  1.00  0.00     0.179 HD
ENDBRANCH   5   6
BRANCH   5   9
HETATM    9  C2  UNL     1      18.227  34.364 107.504  1.00  0.00     0.225 C 
BRANCH   9  10
HETATM   10  O1  UNL     1      17.140  34.403 108.313  1.00  0.00    -0.341 OA
ATOM     11  H1  UNL     1      16.353  34.357 107.784  1.00  0.00     0.219 HD
ENDBRANCH   9  10
BRANCH   9  12
HETATM   12  C3  UNL     1      17.925  35.017 106.269  1.00  0.00     0.179 A 
HETATM   13  N5  UNL     1      18.408  36.319 106.019  1.00  0.00    -0.322 N 
HETATM   14  C4  UNL     1      17.992  36.766 104.863  1.00  0.00     0.139 A 
ATOM     15  H5  UNL     1      19.005  36.845 106.658  1.00  0.00     0.169 HD
HETATM   16  C11 UNL     1      17.224  35.766 104.331  1.00  0.00     0.161 A 
HETATM   17  N11 UNL     1      17.196  34.704 105.214  1.00  0.00    -0.211 N 
BRANCH  14  18
HETATM   18  N6  UNL     1      18.287  37.982 104.218  1.00  0.00    -0.174 N 
ATOM     19  H6  UNL     1      19.236  38.089 103.859  1.00  0.00     0.186 HD
BRANCH  18  20
HETATM   20  C5  UNL     1      17.489  38.966 104.034  1.00  0.00     0.700 A 
HETATM   21  N7  UNL     1      17.939  40.203 103.747  1.00  0.00    -0.167 N 
HETATM   22  C6  UNL     1      17.117  41.242 103.552  1.00  0.00     0.191 A 
ATOM     23  H7  UNL     1      18.946  40.353 103.676  1.00  0.00     0.186 HD
HETATM   24  N8  UNL     1      15.793  41.052 103.644  1.00  0.00    -0.168 N 
HETATM   25  C10 UNL     1      15.294  39.824 103.932  1.00  0.00     0.692 A 
ATOM     26  H8  UNL     1      15.157  41.836 103.498  1.00  0.00     0.186 HD
HETATM   27  N10 UNL     1      16.156  38.819 104.118  1.00  0.00    -0.022 N 
ATOM     28  H10 UNL     1      15.783  37.895 104.333  1.00  0.00     0.203 HD
BRANCH  22  29
HETATM   29  C7  UNL     1      17.599  42.553 103.246  1.00  0.00    -0.027 C 
HETATM   30  C8  UNL     1      17.982  43.660 102.998  1.00  0.00    -0.072 C 
BRANCH  30  31
HETATM   31  C9  UNL     1      18.417  45.011 102.699  1.00  0.00     0.258 C 
BRANCH  31  32
HETATM   32  O2  UNL     1      17.355  45.807 102.257  1.00  0.00    -0.389 OA
ATOM     33  H2  UNL     1      17.376  45.925 101.314  1.00  0.00     0.210 HD
ENDBRANCH  31  32
ENDBRANCH  30  31
ENDBRANCH  22  29
BRANCH  25  34
HETATM   34  N9  UNL     1      14.018  39.672 104.015  1.00  0.00    -0.234 N 
ATOM     35  H92 UNL     1      13.565  38.759 103.962  1.00  0.00     0.174 HD
ATOM     36  H91 UNL     1      13.429  40.495 104.139  1.00  0.00     0.174 HD
ENDBRANCH  25  34
ENDBRANCH  18  20
ENDBRANCH  14  18
BRANCH  17  37
HETATM   37  S1  UNL     1      16.158  33.363 104.904  1.00  0.00     0.330 S 
HETATM   38  O3  UNL     1      15.797  33.480 103.361  1.00  0.00    -0.182 OA
HETATM   39  O4  UNL     1      16.911  32.042 104.853  1.00  0.00    -0.182 OA
BRANCH  37  40
HETATM   40  N12 UNL     1      14.699  33.323 105.670  1.00  0.00    -0.273 N 
HETATM   41  C12 UNL     1      13.454  33.615 105.219  1.00  0.00     0.175 C 
ATOM     42  H12 UNL     1      14.739  33.029 106.646  1.00  0.00     0.179 HD
BRANCH  41  43
HETATM   43  C13 UNL     1      12.475  33.416 106.353  1.00  0.00     0.257 C 
HETATM   44  O5  UNL     1      11.261  33.366 106.080  1.00  0.00    -0.267 OA
HETATM   45  N13 UNL     1      12.988  33.298 107.664  1.00  0.00    -0.348 N 
ATOM     46  H13 UNL     1      13.989  33.348 107.852  1.00  0.00     0.163 HD
BRANCH  45  47
HETATM   47  C14 UNL     1      12.028  33.104 108.730  1.00  0.00     0.227 C 
BRANCH  47  48
HETATM   48  C15 UNL     1      12.256  34.074 109.817  1.00  0.00     0.249 C 
HETATM   49  O6  UNL     1      11.488  34.217 110.818  1.00  0.00    -0.270 OA
HETATM   50  N14 UNL     1      13.400  34.936 109.805  1.00  0.00    -0.286 N 
ATOM     51  H14 UNL     1      14.048  34.874 109.019  1.00  0.00     0.184 HD
BRANCH  50  52
HETATM   52  N15 UNL     1      13.668  35.850 110.811  1.00  0.00    -0.201 NA
HETATM   53  C16 UNL     1      14.807  35.420 111.625  1.00  0.00     0.144 C 
HETATM   54  C17 UNL     1      15.315  36.832 111.589  1.00  0.00     0.140 C 
HETATM   55  N16 UNL     1      16.645  36.979 111.030  1.00  0.00    -0.334 N 
HETATM   56  C19 UNL     1      14.365  37.042 110.457  1.00  0.00     0.205 C 
HETATM   57  C18 UNL     1      16.504  37.197 109.636  1.00  0.00     0.317 C 
ATOM     58  H16 UNL     1      17.523  36.933 111.546  1.00  0.00     0.164 HD
HETATM   59  O7  UNL     1      17.416  37.560 108.839  1.00  0.00    -0.247 OA
HETATM   60  N17 UNL     1      15.160  36.946 109.242  1.00  0.00    -0.323 N 
ATOM     61  H17 UNL     1      14.824  36.741 108.301  1.00  0.00     0.166 HD
ENDBRANCH  50  52
ENDBRANCH  47  48
ENDBRANCH  45  47
ENDBRANCH  41  43
ENDBRANCH  37  40
ENDBRANCH  17  37
ENDBRANCH   9  12
ENDBRANCH   5   9
ENDBRANCH   3   5
TORSDOF 17
ENDMDL
MODEL 4
REMARK VINA RESULT: -8.447177367      3.785      5.192
REMARK  17 active torsions:
REMARK  status: ('A' for Active; 'I' for Inactive)
REMARK    1  A    between atoms: N2_3  and  N3_5 
REMARK    2  A    between atoms: N3_5  and  N4_6 
REMARK    3  A    between atoms: N3_5  and  C2_9 
REMARK    4  A    between atoms: C2_9  and  O1_10 
REMARK    5  A    between atoms: C2_9  and  C3_12 
REMARK    6  A    between atoms: C4_15  and  N6_16 
REMARK    7  A    between atoms: N6_16  and  C5_18 
REMARK    8  A    between atoms: C6_21  and  C7_22 
REMARK    9  A    between atoms: C8_23  and  C9_24 
REMARK   10  A    between atoms: C9_24  and  O2_25 
REMARK   11  A    between atoms: C10_29  and  N9_30 
REMARK   12  A    between atoms: N11_36  and  S1_37 
REMARK   13  A    between atoms: S1_37  and  N12_40 
REMARK   14  A    between atoms: C12_42  and  C13_43 
REMARK       I    between atoms: C13_43  and  N13_45 
REMARK   15  A    between atoms: N13_45  and  C14_47 
REMARK   16  A    between atoms: C14_47  and  C15_48 
REMARK       I    between atoms: C15_48  and  N14_50 
REMARK   17  A    between atoms: N14_50  and  N15_52 
ROOT
HETATM    1  N1  UNL     1      21.081  33.164  99.225  1.00  0.00    -0.170 NA
HETATM    2  C1  UNL     1      20.194  33.896  99.292  1.00  0.00     0.199 C 
HETATM    3  N2  UNL     1      19.148  34.783  99.368  1.00  0.00    -0.213 N 
ATOM      4  H2  UNL     1      18.862  35.269  98.518  1.00  0.00     0.201 HD
ENDROOT
BRANCH   3   5
HETATM    5  N3  UNL     1      18.430  35.063 100.598  1.00  0.00    -0.167 N 
BRANCH   5   6
HETATM    6  N4  UNL     1      17.482  34.102 100.863  1.00  0.00    -0.321 N 
ATOM      7  H42 UNL     1      17.374  33.144 100.529  1.00  0.00     0.179 HD
ATOM      8  H41 UNL     1      16.821  34.412 101.575  1.00  0.00     0.179 HD
ENDBRANCH   5   6
BRANCH   5   9
HETATM    9  C2  UNL     1      18.736  36.238 101.226  1.00  0.00     0.225 C 
BRANCH   9  10
HETATM   10  O1  UNL     1      20.016  36.579 100.938  1.00  0.00    -0.341 OA
ATOM     11  H1  UNL     1      20.541  36.520 101.727  1.00  0.00     0.219 HD
ENDBRANCH   9  10
BRANCH   9  12
HETATM   12  C3  UNL     1      18.158  37.231 102.075  1.00  0.00     0.179 A 
HETATM   13  N5  UNL     1      18.629  38.561 102.034  1.00  0.00    -0.322 N 
HETATM   14  C4  UNL     1      18.013  39.310 102.910  1.00  0.00     0.139 A 
ATOM     15  H5  UNL     1      19.357  38.894 101.402  1.00  0.00     0.169 HD
HETATM   16  C11 UNL     1      17.125  38.486 103.547  1.00  0.00     0.161 A 
HETATM   17  N11 UNL     1      17.235  37.214 103.019  1.00  0.00    -0.211 N 
BRANCH  14  18
HETATM   18  N6  UNL     1      18.144  40.691 103.153  1.00  0.00    -0.174 N 
ATOM     19  H6  UNL     1      18.274  40.973 104.124  1.00  0.00     0.186 HD
BRANCH  18  20
HETATM   20  C5  UNL     1      18.118  41.628 102.281  1.00  0.00     0.700 A 
HETATM   21  N7  UNL     1      18.658  41.476 101.056  1.00  0.00    -0.167 N 
HETATM   22  C6  UNL     1      18.638  42.447 100.134  1.00  0.00     0.191 A 
ATOM     23  H7  UNL     1      19.100  40.586 100.823  1.00  0.00     0.186 HD
HETATM   24  N8  UNL     1      18.060  43.619 100.434  1.00  0.00    -0.168 N 
HETATM   25  C10 UNL     1      17.503  43.818 101.655  1.00  0.00     0.692 A 
ATOM     26  H8  UNL     1      18.039  44.366  99.739  1.00  0.00     0.186 HD
HETATM   27  N10 UNL     1      17.549  42.818 102.540  1.00  0.00    -0.022 N 
ATOM     28  H10 UNL     1      17.130  42.964 103.459  1.00  0.00     0.203 HD
BRANCH  22  29
HETATM   29  C7  UNL     1      19.212  42.281  98.835  1.00  0.00    -0.027 C 
HETATM   30  C8  UNL     1      19.714  42.134  97.758  1.00  0.00    -0.072 C 
BRANCH  30  31
HETATM   31  C9  UNL     1      20.350  41.957  96.466  1.00  0.00     0.258 C 
BRANCH  31  32
HETATM   32  O2  UNL     1      19.735  40.940  95.727  1.00  0.00    -0.389 OA
ATOM     33  H2  UNL     1      19.998  40.079  96.032  1.00  0.00     0.210 HD
ENDBRANCH  31  32
ENDBRANCH  30  31
ENDBRANCH  22  29
BRANCH  25  34
HETATM   34  N9  UNL     1      16.956  44.954 101.914  1.00  0.00    -0.234 N 
ATOM     35  H92 UNL     1      16.857  45.692 101.217  1.00  0.00     0.174 HD
ATOM     36  H91 UNL     1      16.603  45.129 102.855  1.00  0.00     0.174 HD
ENDBRANCH  25  34
ENDBRANCH  18  20
ENDBRANCH  14  18
BRANCH  17  37
HETATM   37  S1  UNL     1      16.372  35.911 103.745  1.00  0.00     0.330 S 
HETATM   38  O3  UNL     1      15.323  36.611 104.712  1.00  0.00    -0.182 OA
HETATM   39  O4  UNL     1      15.385  35.260 102.787  1.00  0.00    -0.182 OA
BRANCH  37  40
HETATM   40  N12 UNL     1      17.209  34.877 104.717  1.00  0.00    -0.273 N 
HETATM   41  C12 UNL     1      17.738  33.655 104.463  1.00  0.00     0.175 C 
ATOM     42  H12 UNL     1      17.354  35.213 105.670  1.00  0.00     0.179 HD
BRANCH  41  43
HETATM   43  C13 UNL     1      18.396  33.146 105.725  1.00  0.00     0.257 C 
HETATM   44  O5  UNL     1      18.628  31.926 105.816  1.00  0.00    -0.267 OA
HETATM   45  N13 UNL     1      18.710  34.079 106.738  1.00  0.00    -0.348 N 
ATOM     46  H13 UNL     1      18.501  35.072 106.631  1.00  0.00     0.163 HD
BRANCH  45  47
HETATM   47  C14 UNL     1      19.342  33.565 107.933  1.00  0.00     0.227 C 
BRANCH  47  48
HETATM   48  C15 UNL     1      19.252  34.545 109.031  1.00  0.00     0.249 C 
HETATM   49  O6  UNL     1      20.200  35.315 109.379  1.00  0.00    -0.270 OA
HETATM   50  N14 UNL     1      18.046  34.691 109.790  1.00  0.00    -0.286 N 
ATOM     51  H14 UNL     1      17.253  34.090 109.563  1.00  0.00     0.184 HD
BRANCH  50  52
HETATM   52  N15 UNL     1      17.906  35.608 110.817  1.00  0.00    -0.201 NA
HETATM   53  C16 UNL     1      16.953  36.661 110.458  1.00  0.00     0.144 C 
HETATM   54  C17 UNL     1      16.366  36.545 111.834  1.00  0.00     0.140 C 
HETATM   55  N16 UNL     1      14.952  36.222 111.860  1.00  0.00    -0.334 N 
HETATM   56  C19 UNL     1      17.090  35.244 111.928  1.00  0.00     0.205 C 
HETATM   57  C18 UNL     1      14.835  34.809 111.899  1.00  0.00     0.317 C 
ATOM     58  H16 UNL     1      14.182  36.891 111.852  1.00  0.00     0.164 HD
HETATM   59  O7  UNL     1      13.778  34.153 112.123  1.00  0.00    -0.247 OA
HETATM   60  N17 UNL     1      16.101  34.213 111.646  1.00  0.00    -0.323 N 
ATOM     61  H17 UNL     1      16.280  33.259 111.332  1.00  0.00     0.166 HD
ENDBRANCH  50  52
ENDBRANCH  47  48
ENDBRANCH  45  47
ENDBRANCH  41  43
ENDBRANCH  37  40
ENDBRANCH  17  37
ENDBRANCH   9  12
ENDBRANCH   5   9
ENDBRANCH   3   5
TORSDOF 17
ENDMDL
MODEL 5
REMARK VINA RESULT: -8.432615193      2.945      4.304
REMARK  17 active torsions:
REMARK  status: ('A' for Active; 'I' for Inactive)
REMARK    1  A    between atoms: N2_3  and  N3_5 
REMARK    2  A    between atoms: N3_5  and  N4_6 
REMARK    3  A    between atoms: N3_5  and  C2_9 
REMARK    4  A    between atoms: C2_9  and  O1_10 
REMARK    5  A    between atoms: C2_9  and  C3_12 
REMARK    6  A    between atoms: C4_15  and  N6_16 
REMARK    7  A    between atoms: N6_16  and  C5_18 
REMARK    8  A    between atoms: C6_21  and  C7_22 
REMARK    9  A    between atoms: C8_23  and  C9_24 
REMARK   10  A    between atoms: C9_24  and  O2_25 
REMARK   11  A    between atoms: C10_29  and  N9_30 
REMARK   12  A    between atoms: N11_36  and  S1_37 
REMARK   13  A    between atoms: S1_37  and  N12_40 
REMARK   14  A    between atoms: C12_42  and  C13_43 
REMARK       I    between atoms: C13_43  and  N13_45 
REMARK   15  A    between atoms: N13_45  and  C14_47 
REMARK   16  A    between atoms: C14_47  and  C15_48 
REMARK       I    between atoms: C15_48  and  N14_50 
REMARK   17  A    between atoms: N14_50  and  N15_52 
ROOT
HETATM    1  N1  UNL     1      18.316  38.980  98.242  1.00  0.00    -0.170 NA
HETATM    2  C1  UNL     1      17.835  38.034  98.689  1.00  0.00     0.199 C 
HETATM    3  N2  UNL     1      17.246  36.916  99.228  1.00  0.00    -0.213 N 
ATOM      4  H2  UNL     1      16.340  36.621  98.864  1.00  0.00     0.201 HD
ENDROOT
BRANCH   3   5
HETATM    5  N3  UNL     1      17.850  36.133 100.290  1.00  0.00    -0.167 N 
BRANCH   5   6
HETATM    6  N4  UNL     1      17.416  34.827 100.269  1.00  0.00    -0.321 N 
ATOM      7  H42 UNL     1      16.482  34.421 100.322  1.00  0.00     0.179 HD
ATOM      8  H41 UNL     1      18.184  34.178 100.102  1.00  0.00     0.179 HD
ENDBRANCH   5   6
BRANCH   5   9
HETATM    9  C2  UNL     1      18.653  36.811 101.163  1.00  0.00     0.225 C 
BRANCH   9  10
HETATM   10  O1  UNL     1      19.916  36.326 101.079  1.00  0.00    -0.341 OA
ATOM     11  H1  UNL     1      20.403  36.831 100.438  1.00  0.00     0.219 HD
ENDBRANCH   9  10
BRANCH   9  12
HETATM   12  C3  UNL     1      18.611  37.864 102.128  1.00  0.00     0.179 A 
HETATM   13  N5  UNL     1      19.458  38.985 101.992  1.00  0.00    -0.322 N 
HETATM   14  C4  UNL     1      19.310  39.816 102.989  1.00  0.00     0.139 A 
ATOM     15  H5  UNL     1      20.104  39.127 101.214  1.00  0.00     0.169 HD
HETATM   16  C11 UNL     1      18.363  39.257 103.804  1.00  0.00     0.161 A 
HETATM   17  N11 UNL     1      17.951  38.058 103.255  1.00  0.00    -0.211 N 
BRANCH  14  18
HETATM   18  N6  UNL     1      19.919  41.067 103.206  1.00  0.00    -0.174 N 
ATOM     19  H6  UNL     1      20.608  41.115 103.956  1.00  0.00     0.186 HD
BRANCH  18  20
HETATM   20  C5  UNL     1      19.697  42.150 102.560  1.00  0.00     0.700 A 
HETATM   21  N7  UNL     1      19.453  43.316 103.189  1.00  0.00    -0.167 N 
HETATM   22  C6  UNL     1      19.220  44.457 102.526  1.00  0.00     0.191 A 
ATOM     23  H7  UNL     1      19.445  43.330 104.209  1.00  0.00     0.186 HD
HETATM   24  N8  UNL     1      19.228  44.446 101.186  1.00  0.00    -0.168 N 
HETATM   25  C10 UNL     1      19.468  43.295 100.510  1.00  0.00     0.692 A 
ATOM     26  H8  UNL     1      19.051  45.309 100.671  1.00  0.00     0.186 HD
HETATM   27  N10 UNL     1      19.696  42.183 101.216  1.00  0.00    -0.022 N 
ATOM     28  H10 UNL     1      19.878  41.316 100.710  1.00  0.00     0.203 HD
BRANCH  22  29
HETATM   29  C7  UNL     1      18.962  45.692 103.198  1.00  0.00    -0.027 C 
HETATM   30  C8  UNL     1      18.726  46.716 103.772  1.00  0.00    -0.072 C 
BRANCH  30  31
HETATM   31  C9  UNL     1      18.414  47.946 104.475  1.00  0.00     0.258 C 
BRANCH  31  32
HETATM   32  O2  UNL     1      17.169  48.456 104.091  1.00  0.00    -0.389 OA
ATOM     33  H2  UNL     1      16.561  48.478 104.820  1.00  0.00     0.210 HD
ENDBRANCH  31  32
ENDBRANCH  30  31
ENDBRANCH  22  29
BRANCH  25  34
HETATM   34  N9  UNL     1      19.469  43.315  99.223  1.00  0.00    -0.234 N 
ATOM     35  H92 UNL     1      18.701  43.703  98.676  1.00  0.00     0.174 HD
ATOM     36  H91 UNL     1      20.269  42.928  98.723  1.00  0.00     0.174 HD
ENDBRANCH  25  34
ENDBRANCH  18  20
ENDBRANCH  14  18
BRANCH  17  37
HETATM   37  S1  UNL     1      16.895  37.029 104.147  1.00  0.00     0.330 S 
HETATM   38  O3  UNL     1      16.258  37.970 105.258  1.00  0.00    -0.182 OA
HETATM   39  O4  UNL     1      15.621  36.699 103.384  1.00  0.00    -0.182 OA
BRANCH  37  40
HETATM   40  N12 UNL     1      17.563  35.782 104.993  1.00  0.00    -0.273 N 
HETATM   41  C12 UNL     1      17.582  34.450 104.740  1.00  0.00     0.175 C 
ATOM     42  H12 UNL     1      18.043  36.059 105.850  1.00  0.00     0.179 HD
BRANCH  41  43
HETATM   43  C13 UNL     1      18.330  33.761 105.858  1.00  0.00     0.257 C 
HETATM   44  O5  UNL     1      18.552  32.540 105.752  1.00  0.00    -0.267 OA
HETATM   45  N13 UNL     1      18.737  34.537 106.966  1.00  0.00    -0.348 N 
ATOM     46  H13 UNL     1      18.535  35.535 107.021  1.00  0.00     0.163 HD
BRANCH  45  47
HETATM   47  C14 UNL     1      19.455  33.853 108.020  1.00  0.00     0.227 C 
BRANCH  47  48
HETATM   48  C15 UNL     1      19.434  34.646 109.263  1.00  0.00     0.249 C 
HETATM   49  O6  UNL     1      20.399  35.365 109.666  1.00  0.00    -0.270 OA
HETATM   50  N14 UNL     1      18.280  34.651 110.112  1.00  0.00    -0.286 N 
ATOM     51  H14 UNL     1      17.476  34.083 109.845  1.00  0.00     0.184 HD
BRANCH  50  52
HETATM   52  N15 UNL     1      18.205  35.393 111.278  1.00  0.00    -0.201 NA
HETATM   53  C16 UNL     1      17.355  36.573 111.100  1.00  0.00     0.144 C 
HETATM   54  C17 UNL     1      16.737  36.282 112.436  1.00  0.00     0.140 C 
HETATM   55  N16 UNL     1      15.300  36.088 112.405  1.00  0.00    -0.334 N 
HETATM   56  C19 UNL     1      17.341  34.923 112.311  1.00  0.00     0.205 C 
HETATM   57  C18 UNL     1      15.057  34.705 112.206  1.00  0.00     0.317 C 
ATOM     58  H16 UNL     1      14.592  36.815 112.507  1.00  0.00     0.164 HD
HETATM   59  O7  UNL     1      13.943  34.118 112.314  1.00  0.00    -0.247 OA
HETATM   60  N17 UNL     1      16.270  34.047 111.858  1.00  0.00    -0.323 N 
ATOM     61  H17 UNL     1      16.368  33.148 111.388  1.00  0.00     0.166 HD
ENDBRANCH  50  52
ENDBRANCH  47  48
ENDBRANCH  45  47
ENDBRANCH  41  43
ENDBRANCH  37  40
ENDBRANCH  17  37
ENDBRANCH   9  12
ENDBRANCH   5   9
ENDBRANCH   3   5
TORSDOF 17
ENDMDL
