MODEL 1
REMARK VINA RESULT: -8.935839011      0.000      0.000
REMARK  12 active torsions:
REMARK  status: ('A' for Active; 'I' for Inactive)
REMARK    1  A    between atoms: C2_2  and  N1_3 
REMARK       I    between atoms: N1_3  and  C3_5 
REMARK    2  A    between atoms: C3_5  and  C4_7 
REMARK    3  A    between atoms: C6_10  and  N3_11 
REMARK    4  A    between atoms: C6_10  and  C7_15 
REMARK       I    between atoms: C7_15  and  N4_17 
REMARK    5  A    between atoms: N4_17  and  N5_18 
REMARK    6  A    between atoms: N5_18  and  N6_20 
REMARK    7  A    between atoms: C9_25  and  S2_26 
REMARK    8  A    between atoms: N7_30  and  N8_31 
REMARK       I    between atoms: N8_31  and  C10_33 
REMARK    9  A    between atoms: C10_33  and  C11_35 
REMARK       I    between atoms: N9_36  and  C12_38 
REMARK   10  A    between atoms: C12_38  and  C13_40 
REMARK   11  A    between atoms: C13_40  and  N10_41 
REMARK   12  A    between atoms: C19_51  and  O10_52 
ROOT
HETATM    1  C4  UNL     1      18.200  35.617 102.758  1.00  0.00     0.172 C 
HETATM    2  C5  UNL     1      18.589  36.787 103.730  1.00  0.00     0.147 C 
HETATM    3  N2  UNL     1      17.348  37.042 104.446  1.00  0.00    -0.320 N 
HETATM    4  C6  UNL     1      17.018  38.286 104.827  1.00  0.00     0.343 C 
HETATM    5  S1  UNL     1      17.593  38.369 106.575  1.00  0.00    -0.092 SA
HETATM    6  C8  UNL     1      17.394  36.513 106.792  1.00  0.00     0.154 C 
HETATM    7  C9  UNL     1      16.995  36.066 105.500  1.00  0.00     0.260 C 
HETATM    8  N7  UNL     1      17.775  34.790 105.093  1.00  0.00    -0.223 N 
HETATM    9  C19 UNL     1      17.837  34.707 103.734  1.00  0.00     0.151 C 
ENDROOT
BRANCH   8  10
HETATM   10  N8  UNL     1      18.402  34.056 106.006  1.00  0.00    -0.258 N 
HETATM   11  C10 UNL     1      18.587  32.742 106.476  1.00  0.00     0.275 C 
HETATM   12  O6  UNL     1      18.228  31.695 106.076  1.00  0.00    -0.265 OA
ATOM     13  H8  UNL     1      18.962  34.682 106.586  1.00  0.00     0.190 HD
BRANCH  11  14
HETATM   14  C11 UNL     1      19.412  32.674 107.771  1.00  0.00     0.166 C 
HETATM   15  N9  UNL     1      19.440  33.651 108.693  1.00  0.00    -0.330 N 
HETATM   16  C12 UNL     1      19.703  34.966 108.954  1.00  0.00     0.240 C 
ATOM     17  H9  UNL     1      19.134  33.234 109.572  1.00  0.00     0.168 HD
HETATM   18  O7  UNL     1      20.075  35.880 108.189  1.00  0.00    -0.271 OA
BRANCH  16  19
HETATM   19  C13 UNL     1      19.540  35.445 110.458  1.00  0.00     0.236 C 
BRANCH  19  20
HETATM   20  N10 UNL     1      18.170  35.400 110.756  1.00  0.00    -0.300 N 
HETATM   21  C14 UNL     1      17.540  34.375 111.362  1.00  0.00     0.108 A 
HETATM   22  C15 UNL     1      16.214  34.488 111.790  1.00  0.00     0.022 A 
HETATM   23  C16 UNL     1      15.595  33.335 112.535  1.00  0.00     0.056 C 
HETATM   24  C17 UNL     1      15.547  35.646 111.565  1.00  0.00     0.256 A 
HETATM   25  O8  UNL     1      14.324  35.756 111.904  1.00  0.00    -0.267 OA
HETATM   26  N11 UNL     1      16.174  36.654 110.961  1.00  0.00    -0.275 N 
HETATM   27  C18 UNL     1      17.458  36.538 110.570  1.00  0.00     0.329 A 
ATOM     28  H11 UNL     1      15.674  37.527 110.792  1.00  0.00     0.173 HD
HETATM   29  O9  UNL     1      17.970  37.508 110.007  1.00  0.00    -0.246 OA
ENDBRANCH  19  20
ENDBRANCH  16  19
ENDBRANCH  11  14
ENDBRANCH   8  10
BRANCH   7  30
HETATM   30  S2  UNL     1      15.327  35.591 105.325  1.00  0.00     0.155 S 
HETATM   31  O3  UNL     1      14.382  36.311 106.286  1.00  0.00    -0.592 OA
HETATM   32  O4  UNL     1      15.147  34.092 105.358  1.00  0.00    -0.592 OA
HETATM   33  O5  UNL     1      14.718  35.967 103.747  1.00  0.00    -0.592 OA
ENDBRANCH   7  30
BRANCH   9  34
HETATM   34  O10 UNL     1      17.414  33.472 103.200  1.00  0.00    -0.347 OA
ATOM     35  H10 UNL     1      16.651  33.121 103.644  1.00  0.00     0.219 HD
ENDBRANCH   9  34
BRANCH   1  36
HETATM   36  C3  UNL     1      19.070  35.452 101.670  1.00  0.00     0.234 C 
HETATM   37  N1  UNL     1      19.010  34.250 100.822  1.00  0.00    -0.340 N 
ATOM     38  H1  UNL     1      18.340  33.511 101.031  1.00  0.00     0.167 HD
HETATM   39  O1  UNL     1      19.914  36.268 101.338  1.00  0.00    -0.272 OA
BRANCH  37  40
HETATM   40  C2  UNL     1      19.880  34.123  99.724  1.00  0.00     0.059 C 
HETATM   41  C1  UNL     1      21.089  33.249  99.887  1.00  0.00     0.055 C 
ENDBRANCH  37  40
ENDBRANCH   1  36
BRANCH   4  42
HETATM   42  N3  UNL     1      15.552  38.578 104.848  1.00  0.00    -0.032 N 
ATOM     43  H33 UNL     1      15.075  38.035 104.128  1.00  0.00     0.279 HD
ATOM     44  H32 UNL     1      15.127  38.179 105.683  1.00  0.00     0.279 HD
ATOM     45  H31 UNL     1      15.304  39.564 104.765  1.00  0.00     0.279 HD
ENDBRANCH   4  42
BRANCH   4  46
HETATM   46  C7  UNL     1      17.491  39.498 104.071  1.00  0.00     0.381 C 
HETATM   47  O2  UNL     1      18.080  40.391 104.144  1.00  0.00    -0.249 OA
HETATM   48  N4  UNL     1      16.822  39.205 102.719  1.00  0.00    -0.266 NA
BRANCH  48  49
HETATM   49  N5  UNL     1      16.290  38.979 101.635  1.00  0.00    -0.179 N 
ATOM     50  H5  UNL     1      16.379  39.688 100.907  1.00  0.00     0.223 HD
BRANCH  49  51
HETATM   51  N6  UNL     1      15.562  37.803 101.323  1.00  0.00    -0.320 N 
ATOM     52  H62 UNL     1      15.964  37.192 100.613  1.00  0.00     0.179 HD
ATOM     53  H61 UNL     1      14.678  37.536 101.755  1.00  0.00     0.179 HD
ENDBRANCH  49  51
ENDBRANCH  48  49
ENDBRANCH   4  46
TORSDOF 12
ENDMDL
MODEL 2
REMARK VINA RESULT: -8.865667698      2.398      3.182
REMARK  12 active torsions:
REMARK  status: ('A' for Active; 'I' for Inactive)
REMARK    1  A    between atoms: C2_2  and  N1_3 
REMARK       I    between atoms: N1_3  and  C3_5 
REMARK    2  A    between atoms: C3_5  and  C4_7 
REMARK    3  A    between atoms: C6_10  and  N3_11 
REMARK    4  A    between atoms: C6_10  and  C7_15 
REMARK       I    between atoms: C7_15  and  N4_17 
REMARK    5  A    between atoms: N4_17  and  N5_18 
REMARK    6  A    between atoms: N5_18  and  N6_20 
REMARK    7  A    between atoms: C9_25  and  S2_26 
REMARK    8  A    between atoms: N7_30  and  N8_31 
REMARK       I    between atoms: N8_31  and  C10_33 
REMARK    9  A    between atoms: C10_33  and  C11_35 
REMARK       I    between atoms: N9_36  and  C12_38 
REMARK   10  A    between atoms: C12_38  and  C13_40 
REMARK   11  A    between atoms: C13_40  and  N10_41 
REMARK   12  A    between atoms: C19_51  and  O10_52 
ROOT
HETATM    1  C4  UNL     1      16.737  35.624 103.385  1.00  0.00     0.172 C 
HETATM    2  C5  UNL     1      18.191  36.185 103.199  1.00  0.00     0.147 C 
HETATM    3  N2  UNL     1      18.181  37.395 104.007  1.00  0.00    -0.320 N 
HETATM    4  C6  UNL     1      18.883  38.477 103.634  1.00  0.00     0.343 C 
HETATM    5  S1  UNL     1      20.454  38.320 104.583  1.00  0.00    -0.092 SA
HETATM    6  C8  UNL     1      19.604  37.344 105.945  1.00  0.00     0.154 C 
HETATM    7  C9  UNL     1      18.269  37.199 105.470  1.00  0.00     0.260 C 
HETATM    8  N7  UNL     1      17.766  35.747 105.676  1.00  0.00    -0.223 N 
HETATM    9  C19 UNL     1      16.798  35.466 104.759  1.00  0.00     0.151 C 
ENDROOT
BRANCH   8  10
HETATM   10  N8  UNL     1      18.378  34.929 106.524  1.00  0.00    -0.258 N 
HETATM   11  C10 UNL     1      18.618  33.574 106.822  1.00  0.00     0.275 C 
HETATM   12  O6  UNL     1      18.356  32.575 106.257  1.00  0.00    -0.265 OA
ATOM     13  H8  UNL     1      18.856  35.496 107.224  1.00  0.00     0.190 HD
BRANCH  11  14
HETATM   14  C11 UNL     1      19.358  33.369 108.153  1.00  0.00     0.166 C 
HETATM   15  N9  UNL     1      18.973  33.924 109.315  1.00  0.00    -0.330 N 
HETATM   16  C12 UNL     1      18.700  35.078 109.994  1.00  0.00     0.240 C 
ATOM     17  H9  UNL     1      18.820  33.156 109.970  1.00  0.00     0.168 HD
HETATM   18  O7  UNL     1      18.719  36.264 109.606  1.00  0.00    -0.271 OA
BRANCH  16  19
HETATM   19  C13 UNL     1      18.311  34.935 111.525  1.00  0.00     0.236 C 
BRANCH  19  20
HETATM   20  N10 UNL     1      17.168  35.720 111.733  1.00  0.00    -0.300 N 
HETATM   21  C14 UNL     1      16.152  35.860 110.859  1.00  0.00     0.108 A 
HETATM   22  C15 UNL     1      14.967  36.509 111.219  1.00  0.00     0.022 A 
HETATM   23  C16 UNL     1      13.838  36.558 110.224  1.00  0.00     0.056 C 
HETATM   24  C17 UNL     1      14.854  37.028 112.466  1.00  0.00     0.256 A 
HETATM   25  O8  UNL     1      13.804  37.664 112.803  1.00  0.00    -0.267 OA
HETATM   26  N11 UNL     1      15.864  36.891 113.324  1.00  0.00    -0.275 N 
HETATM   27  C18 UNL     1      16.994  36.247 112.969  1.00  0.00     0.329 A 
ATOM     28  H11 UNL     1      15.782  37.279 114.264  1.00  0.00     0.173 HD
HETATM   29  O9  UNL     1      17.891  36.169 113.811  1.00  0.00    -0.246 OA
ENDBRANCH  19  20
ENDBRANCH  16  19
ENDBRANCH  11  14
ENDBRANCH   8  10
BRANCH   7  30
HETATM   30  S2  UNL     1      17.055  38.163 106.267  1.00  0.00     0.155 S 
HETATM   31  O3  UNL     1      15.929  38.617 105.339  1.00  0.00    -0.592 OA
HETATM   32  O4  UNL     1      17.649  39.307 107.053  1.00  0.00    -0.592 OA
HETATM   33  O5  UNL     1      16.256  37.274 107.522  1.00  0.00    -0.592 OA
ENDBRANCH   7  30
BRANCH   9  34
HETATM   34  O10 UNL     1      15.604  34.950 105.302  1.00  0.00    -0.347 OA
ATOM     35  H10 UNL     1      14.832  35.420 105.009  1.00  0.00     0.219 HD
ENDBRANCH   9  34
BRANCH   1  36
HETATM   36  C3  UNL     1      16.338  34.707 102.403  1.00  0.00     0.234 C 
HETATM   37  N1  UNL     1      15.786  33.392 102.768  1.00  0.00    -0.340 N 
ATOM     38  H1  UNL     1      15.704  33.127 103.749  1.00  0.00     0.167 HD
HETATM   39  O1  UNL     1      16.401  34.917 101.203  1.00  0.00    -0.272 OA
BRANCH  37  40
HETATM   40  C2  UNL     1      15.371  32.501 101.761  1.00  0.00     0.059 C 
HETATM   41  C1  UNL     1      14.962  31.118 102.176  1.00  0.00     0.055 C 
ENDBRANCH  37  40
ENDBRANCH   1  36
BRANCH   4  42
HETATM   42  N3  UNL     1      18.283  39.791 104.021  1.00  0.00    -0.032 N 
ATOM     43  H33 UNL     1      17.865  39.727 104.949  1.00  0.00     0.279 HD
ATOM     44  H32 UNL     1      19.019  40.472 104.202  1.00  0.00     0.279 HD
ATOM     45  H31 UNL     1      17.607  40.172 103.358  1.00  0.00     0.279 HD
ENDBRANCH   4  42
BRANCH   4  46
HETATM   46  C7  UNL     1      19.181  38.769 102.188  1.00  0.00     0.381 C 
HETATM   47  O2  UNL     1      18.946  38.489 101.181  1.00  0.00    -0.249 OA
HETATM   48  N4  UNL     1      20.188  39.913 102.384  1.00  0.00    -0.266 NA
BRANCH  48  49
HETATM   49  N5  UNL     1      20.994  40.827 102.531  1.00  0.00    -0.179 N 
ATOM     50  H5  UNL     1      21.977  40.579 102.643  1.00  0.00     0.223 HD
BRANCH  49  51
HETATM   51  N6  UNL     1      20.658  42.205 102.555  1.00  0.00    -0.320 N 
ATOM     52  H62 UNL     1      21.299  42.840 102.081  1.00  0.00     0.179 HD
ATOM     53  H61 UNL     1      19.831  42.592 103.009  1.00  0.00     0.179 HD
ENDBRANCH  49  51
ENDBRANCH  48  49
ENDBRANCH   4  46
TORSDOF 12
ENDMDL
MODEL 3
REMARK VINA RESULT: -8.851687458      1.747      1.986
REMARK  12 active torsions:
REMARK  status: ('A' for Active; 'I' for Inactive)
REMARK    1  A    between atoms: C2_2  and  N1_3 
REMARK       I    between atoms: N1_3  and  C3_5 
REMARK    2  A    between atoms: C3_5  and  C4_7 
REMARK    3  A    between atoms: C6_10  and  N3_11 
REMARK    4  A    between atoms: C6_10  and  C7_15 
REMARK       I    between atoms: C7_15  and  N4_17 
REMARK    5  A    between atoms: N4_17  and  N5_18 
REMARK    6  A    between atoms: N5_18  and  N6_20 
REMARK    7  A    between atoms: C9_25  and  S2_26 
REMARK    8  A    between atoms: N7_30  and  N8_31 
REMARK       I    between atoms: N8_31  and  C10_33 
REMARK    9  A    between atoms: C10_33  and  C11_35 
REMARK       I    between atoms: N9_36  and  C12_38 
REMARK   10  A    between atoms: C12_38  and  C13_40 
REMARK   11  A    between atoms: C13_40  and  N10_41 
REMARK   12  A    between atoms: C19_51  and  O10_52 
ROOT
HETATM    1  C4  UNL     1      18.090  35.982 102.199  1.00  0.00     0.172 C 
HETATM    2  C5  UNL     1      19.306  36.801 102.757  1.00  0.00     0.147 C 
HETATM    3  N2  UNL     1      18.672  37.768 103.641  1.00  0.00    -0.320 N 
HETATM    4  C6  UNL     1      19.170  39.007 103.775  1.00  0.00     0.343 C 
HETATM    5  S1  UNL     1      20.214  38.891 105.288  1.00  0.00    -0.092 SA
HETATM    6  C8  UNL     1      19.163  37.495 105.979  1.00  0.00     0.154 C 
HETATM    7  C9  UNL     1      18.213  37.250 104.947  1.00  0.00     0.260 C 
HETATM    8  N7  UNL     1      18.048  35.728 104.700  1.00  0.00    -0.223 N 
HETATM    9  C19 UNL     1      17.632  35.517 103.420  1.00  0.00     0.151 C 
ENDROOT
BRANCH   8  10
HETATM   10  N8  UNL     1      18.453  34.845 105.606  1.00  0.00    -0.258 N 
HETATM   11  C10 UNL     1      18.258  33.534 106.080  1.00  0.00     0.275 C 
HETATM   12  O6  UNL     1      17.604  32.635 105.691  1.00  0.00    -0.265 OA
ATOM     13  H8  UNL     1      19.180  35.281 106.172  1.00  0.00     0.190 HD
BRANCH  11  14
HETATM   14  C11 UNL     1      19.050  33.229 107.360  1.00  0.00     0.166 C 
HETATM   15  N9  UNL     1      18.791  33.793 108.552  1.00  0.00    -0.330 N 
HETATM   16  C12 UNL     1      18.674  34.954 109.264  1.00  0.00     0.240 C 
ATOM     17  H9  UNL     1      18.602  33.030 109.203  1.00  0.00     0.168 HD
HETATM   18  O7  UNL     1      18.787  36.140 108.894  1.00  0.00    -0.271 OA
BRANCH  16  19
HETATM   19  C13 UNL     1      18.362  34.816 110.814  1.00  0.00     0.236 C 
BRANCH  19  20
HETATM   20  N10 UNL     1      17.154  35.488 111.051  1.00  0.00    -0.300 N 
HETATM   21  C14 UNL     1      15.957  35.135 110.544  1.00  0.00     0.108 A 
HETATM   22  C15 UNL     1      14.776  35.745 110.978  1.00  0.00     0.022 A 
HETATM   23  C16 UNL     1      13.463  35.247 110.434  1.00  0.00     0.056 C 
HETATM   24  C17 UNL     1      14.846  36.727 111.910  1.00  0.00     0.256 A 
HETATM   25  O8  UNL     1      13.790  37.329 112.287  1.00  0.00    -0.267 OA
HETATM   26  N11 UNL     1      16.034  37.075 112.403  1.00  0.00    -0.275 N 
HETATM   27  C18 UNL     1      17.163  36.466 111.989  1.00  0.00     0.329 A 
ATOM     28  H11 UNL     1      16.090  37.812 113.105  1.00  0.00     0.173 HD
HETATM   29  O9  UNL     1      18.227  36.847 112.481  1.00  0.00    -0.246 OA
ENDBRANCH  19  20
ENDBRANCH  16  19
ENDBRANCH  11  14
ENDBRANCH   8  10
BRANCH   7  30
HETATM   30  S2  UNL     1      16.582  37.786 105.252  1.00  0.00     0.155 S 
HETATM   31  O3  UNL     1      16.500  38.984 106.197  1.00  0.00    -0.592 OA
HETATM   32  O4  UNL     1      15.672  36.658 105.675  1.00  0.00    -0.592 OA
HETATM   33  O5  UNL     1      15.803  38.319 103.799  1.00  0.00    -0.592 OA
ENDBRANCH   7  30
BRANCH   9  34
HETATM   34  O10 UNL     1      16.490  34.698 103.300  1.00  0.00    -0.347 OA
ATOM     35  H10 UNL     1      16.298  34.215 104.094  1.00  0.00     0.219 HD
ENDBRANCH   9  34
BRANCH   1  36
HETATM   36  C3  UNL     1      18.359  35.268 101.023  1.00  0.00     0.234 C 
HETATM   37  N1  UNL     1      19.665  35.371 100.351  1.00  0.00    -0.340 N 
ATOM     38  H1  UNL     1      20.388  35.983 100.730  1.00  0.00     0.167 HD
HETATM   39  O1  UNL     1      17.565  34.518 100.480  1.00  0.00    -0.272 OA
BRANCH  37  40
HETATM   40  C2  UNL     1      19.915  34.626  99.185  1.00  0.00     0.059 C 
HETATM   41  C1  UNL     1      20.984  33.574  99.242  1.00  0.00     0.055 C 
ENDBRANCH  37  40
ENDBRANCH   1  36
BRANCH   4  42
HETATM   42  N3  UNL     1      18.158  40.076 104.038  1.00  0.00    -0.032 N 
ATOM     43  H33 UNL     1      18.070  40.685 103.224  1.00  0.00     0.279 HD
ATOM     44  H32 UNL     1      17.222  39.674 104.062  1.00  0.00     0.279 HD
ATOM     45  H31 UNL     1      18.322  40.633 104.876  1.00  0.00     0.279 HD
ENDBRANCH   4  42
BRANCH   4  46
HETATM   46  C7  UNL     1      19.939  39.676 102.667  1.00  0.00     0.381 C 
HETATM   47  O2  UNL     1      20.895  40.078 102.395  1.00  0.00    -0.249 OA
HETATM   48  N4  UNL     1      18.829  39.718 101.605  1.00  0.00    -0.266 NA
BRANCH  48  49
HETATM   49  N5  UNL     1      17.948  39.757 100.751  1.00  0.00    -0.179 N 
ATOM     50  H5  UNL     1      18.143  40.270  99.892  1.00  0.00     0.223 HD
BRANCH  49  51
HETATM   51  N6  UNL     1      16.677  39.139 100.873  1.00  0.00    -0.320 N 
ATOM     52  H62 UNL     1      16.356  38.940 101.820  1.00  0.00     0.179 HD
ATOM     53  H61 UNL     1      16.077  38.886 100.088  1.00  0.00     0.179 HD
ENDBRANCH  49  51
ENDBRANCH  48  49
ENDBRANCH   4  46
TORSDOF 12
ENDMDL
MODEL 4
REMARK VINA RESULT: -8.567958847      2.095      2.770
REMARK  12 active torsions:
REMARK  status: ('A' for Active; 'I' for Inactive)
REMARK    1  A    between atoms: C2_2  and  N1_3 
REMARK       I    between atoms: N1_3  and  C3_5 
REMARK    2  A    between atoms: C3_5  and  C4_7 
REMARK    3  A    between atoms: C6_10  and  N3_11 
REMARK    4  A    between atoms: C6_10  and  C7_15 
REMARK       I    between atoms: C7_15  and  N4_17 
REMARK    5  A    between atoms: N4_17  and  N5_18 
REMARK    6  A    between atoms: N5_18  and  N6_20 
REMARK    7  A    between atoms: C9_25  and  S2_26 
REMARK    8  A    between atoms: N7_30  and  N8_31 
REMARK       I    between atoms: N8_31  and  C10_33 
REMARK    9  A    between atoms: C10_33  and  C11_35 
REMARK       I    between atoms: N9_36  and  C12_38 
REMARK   10  A    between atoms: C12_38  and  C13_40 
REMARK   11  A    between atoms: C13_40  and  N10_41 
REMARK   12  A    between atoms: C19_51  and  O10_52 
ROOT
HETATM    1  C4  UNL     1      16.480  35.655 103.516  1.00  0.00     0.172 C 
HETATM    2  C5  UNL     1      17.911  36.255 103.286  1.00  0.00     0.147 C 
HETATM    3  N2  UNL     1      17.907  37.445 104.123  1.00  0.00    -0.320 N 
HETATM    4  C6  UNL     1      18.568  38.551 103.748  1.00  0.00     0.343 C 
HETATM    5  S1  UNL     1      20.179  38.410 104.629  1.00  0.00    -0.092 SA
HETATM    6  C8  UNL     1      19.408  37.382 106.000  1.00  0.00     0.154 C 
HETATM    7  C9  UNL     1      18.059  37.217 105.576  1.00  0.00     0.260 C 
HETATM    8  N7  UNL     1      17.597  35.750 105.766  1.00  0.00    -0.223 N 
HETATM    9  C19 UNL     1      16.599  35.467 104.882  1.00  0.00     0.151 C 
ENDROOT
BRANCH   8  10
HETATM   10  N8  UNL     1      18.262  34.926 106.569  1.00  0.00    -0.258 N 
HETATM   11  C10 UNL     1      18.591  33.576 106.790  1.00  0.00     0.275 C 
HETATM   12  O6  UNL     1      18.397  32.596 106.167  1.00  0.00    -0.265 OA
ATOM     13  H8  UNL     1      18.700  35.483 107.303  1.00  0.00     0.190 HD
BRANCH  11  14
HETATM   14  C11 UNL     1      19.341  33.344 108.111  1.00  0.00     0.166 C 
HETATM   15  N9  UNL     1      18.979  33.892 109.283  1.00  0.00    -0.330 N 
HETATM   16  C12 UNL     1      18.732  35.044 109.977  1.00  0.00     0.240 C 
ATOM     17  H9  UNL     1      18.820  33.121 109.931  1.00  0.00     0.168 HD
HETATM   18  O7  UNL     1      18.766  36.234 109.601  1.00  0.00    -0.271 OA
BRANCH  16  19
HETATM   19  C13 UNL     1      18.356  34.890 111.511  1.00  0.00     0.236 C 
BRANCH  19  20
HETATM   20  N10 UNL     1      17.217  35.677 111.735  1.00  0.00    -0.300 N 
HETATM   21  C14 UNL     1      16.196  35.829 110.870  1.00  0.00     0.108 A 
HETATM   22  C15 UNL     1      15.016  36.479 111.245  1.00  0.00     0.022 A 
HETATM   23  C16 UNL     1      13.880  36.541 110.259  1.00  0.00     0.056 C 
HETATM   24  C17 UNL     1      14.913  36.985 112.499  1.00  0.00     0.256 A 
HETATM   25  O8  UNL     1      13.867  37.620 112.849  1.00  0.00    -0.267 OA
HETATM   26  N11 UNL     1      15.929  36.835 113.348  1.00  0.00    -0.275 N 
HETATM   27  C18 UNL     1      17.054  36.191 112.978  1.00  0.00     0.329 A 
ATOM     28  H11 UNL     1      15.854  37.214 114.292  1.00  0.00     0.173 HD
HETATM   29  O9  UNL     1      17.956  36.101 113.812  1.00  0.00    -0.246 OA
ENDBRANCH  19  20
ENDBRANCH  16  19
ENDBRANCH  11  14
ENDBRANCH   8  10
BRANCH   7  30
HETATM   30  S2  UNL     1      16.856  38.133 106.443  1.00  0.00     0.155 S 
HETATM   31  O3  UNL     1      17.390  39.435 107.038  1.00  0.00    -0.592 OA
HETATM   32  O4  UNL     1      16.117  37.298 107.461  1.00  0.00    -0.592 OA
HETATM   33  O5  UNL     1      15.557  38.625 105.407  1.00  0.00    -0.592 OA
ENDBRANCH   7  30
BRANCH   9  34
HETATM   34  O10 UNL     1      15.440  34.910 105.460  1.00  0.00    -0.347 OA
ATOM     35  H10 UNL     1      15.307  34.002 105.216  1.00  0.00     0.219 HD
ENDBRANCH   9  34
BRANCH   1  36
HETATM   36  C3  UNL     1      16.061  34.752 102.529  1.00  0.00     0.234 C 
HETATM   37  N1  UNL     1      15.839  33.331 102.841  1.00  0.00    -0.340 N 
ATOM     38  H1  UNL     1      16.005  32.983 103.786  1.00  0.00     0.167 HD
HETATM   39  O1  UNL     1      15.844  35.058 101.368  1.00  0.00    -0.272 OA
BRANCH  37  40
HETATM   40  C2  UNL     1      15.397  32.452 101.836  1.00  0.00     0.059 C 
HETATM   41  C1  UNL     1      15.011  31.060 102.243  1.00  0.00     0.055 C 
ENDBRANCH  37  40
ENDBRANCH   1  36
BRANCH   4  42
HETATM   42  N3  UNL     1      17.954  39.841 104.190  1.00  0.00    -0.032 N 
ATOM     43  H33 UNL     1      17.059  39.666 104.647  1.00  0.00     0.279 HD
ATOM     44  H32 UNL     1      18.480  40.230 104.972  1.00  0.00     0.279 HD
ATOM     45  H31 UNL     1      17.843  40.543 103.458  1.00  0.00     0.279 HD
ENDBRANCH   4  42
BRANCH   4  46
HETATM   46  C7  UNL     1      18.800  38.884 102.299  1.00  0.00     0.381 C 
HETATM   47  O2  UNL     1      19.555  39.023 101.551  1.00  0.00    -0.249 OA
HETATM   48  N4  UNL     1      17.336  39.036 101.857  1.00  0.00    -0.266 NA
BRANCH  48  49
HETATM   49  N5  UNL     1      16.169  39.161 101.496  1.00  0.00    -0.179 N 
ATOM     50  H5  UNL     1      15.999  39.551 100.569  1.00  0.00     0.223 HD
BRANCH  49  51
HETATM   51  N6  UNL     1      15.040  38.802 102.275  1.00  0.00    -0.320 N 
ATOM     52  H62 UNL     1      14.206  39.377 102.162  1.00  0.00     0.179 HD
ATOM     53  H61 UNL     1      15.010  38.020 102.928  1.00  0.00     0.179 HD
ENDBRANCH  49  51
ENDBRANCH  48  49
ENDBRANCH   4  46
TORSDOF 12
ENDMDL
MODEL 5
REMARK VINA RESULT: -8.548970031      3.343      6.270
REMARK  12 active torsions:
REMARK  status: ('A' for Active; 'I' for Inactive)
REMARK    1  A    between atoms: C2_2  and  N1_3 
REMARK       I    between atoms: N1_3  and  C3_5 
REMARK    2  A    between atoms: C3_5  and  C4_7 
REMARK    3  A    between atoms: C6_10  and  N3_11 
REMARK    4  A    between atoms: C6_10  and  C7_15 
REMARK       I    between atoms: C7_15  and  N4_17 
REMARK    5  A    between atoms: N4_17  and  N5_18 
REMARK    6  A    between atoms: N5_18  and  N6_20 
REMARK    7  A    between atoms: C9_25  and  S2_26 
REMARK    8  A    between atoms: N7_30  and  N8_31 
REMARK       I    between atoms: N8_31  and  C10_33 
REMARK    9  A    between atoms: C10_33  and  C11_35 
REMARK       I    between atoms: N9_36  and  C12_38 
REMARK   10  A    between atoms: C12_38  and  C13_40 
REMARK   11  A    between atoms: C13_40  and  N10_41 
REMARK   12  A    between atoms: C19_51  and  O10_52 
ROOT
HETATM    1  C4  UNL     1      18.061  41.955 101.762  1.00  0.00     0.172 C 
HETATM    2  C5  UNL     1      16.852  41.553 102.678  1.00  0.00     0.147 C 
HETATM    3  N2  UNL     1      16.364  40.330 102.059  1.00  0.00    -0.320 N 
HETATM    4  C6  UNL     1      15.054  40.038 102.054  1.00  0.00     0.343 C 
HETATM    5  S1  UNL     1      14.855  38.923 103.506  1.00  0.00    -0.092 SA
HETATM    6  C8  UNL     1      16.635  38.337 103.377  1.00  0.00     0.154 C 
HETATM    7  C9  UNL     1      17.166  39.113 102.307  1.00  0.00     0.260 C 
HETATM    8  N7  UNL     1      18.568  39.666 102.670  1.00  0.00    -0.223 N 
HETATM    9  C19 UNL     1      18.806  40.805 101.962  1.00  0.00     0.151 C 
ENDROOT
BRANCH   8  10
HETATM   10  N8  UNL     1      19.271  39.136 103.665  1.00  0.00    -0.258 N 
HETATM   11  C10 UNL     1      20.373  38.313 103.964  1.00  0.00     0.275 C 
HETATM   12  O6  UNL     1      21.201  37.815 103.292  1.00  0.00    -0.265 OA
ATOM     13  H8  UNL     1      18.856  39.441 104.545  1.00  0.00     0.190 HD
BRANCH  11  14
HETATM   14  C11 UNL     1      20.508  38.004 105.463  1.00  0.00     0.166 C 
HETATM   15  N9  UNL     1      19.464  37.751 106.271  1.00  0.00    -0.330 N 
HETATM   16  C12 UNL     1      18.279  38.204 106.781  1.00  0.00     0.240 C 
ATOM     17  H9  UNL     1      19.623  36.829 106.677  1.00  0.00     0.168 HD
HETATM   18  O7  UNL     1      17.659  39.264 106.558  1.00  0.00    -0.271 OA
BRANCH  16  19
HETATM   19  C13 UNL     1      17.553  37.273 107.841  1.00  0.00     0.236 C 
BRANCH  19  20
HETATM   20  N10 UNL     1      17.835  35.947 107.484  1.00  0.00    -0.300 N 
HETATM   21  C14 UNL     1      17.510  35.372 106.310  1.00  0.00     0.108 A 
HETATM   22  C15 UNL     1      17.991  34.106 105.961  1.00  0.00     0.022 A 
HETATM   23  C16 UNL     1      17.658  33.556 104.600  1.00  0.00     0.056 C 
HETATM   24  C17 UNL     1      18.782  33.440 106.837  1.00  0.00     0.256 A 
HETATM   25  O8  UNL     1      19.196  32.267 106.562  1.00  0.00    -0.267 OA
HETATM   26  N11 UNL     1      19.097  34.011 107.998  1.00  0.00    -0.275 N 
HETATM   27  C18 UNL     1      18.640  35.239 108.314  1.00  0.00     0.329 A 
ATOM     28  H11 UNL     1      19.693  33.512 108.659  1.00  0.00     0.173 HD
HETATM   29  O9  UNL     1      18.963  35.701 109.410  1.00  0.00    -0.246 OA
ENDBRANCH  19  20
ENDBRANCH  16  19
ENDBRANCH  11  14
ENDBRANCH   8  10
BRANCH   7  30
HETATM   30  S2  UNL     1      17.441  38.274 100.804  1.00  0.00     0.155 S 
HETATM   31  O3  UNL     1      17.195  39.138  99.568  1.00  0.00    -0.592 OA
HETATM   32  O4  UNL     1      16.712  36.954 100.737  1.00  0.00    -0.592 OA
HETATM   33  O5  UNL     1      19.088  37.755 100.655  1.00  0.00    -0.592 OA
ENDBRANCH   7  30
BRANCH   9  34
HETATM   34  O10 UNL     1      20.027  40.816 101.258  1.00  0.00    -0.347 OA
ATOM     35  H10 UNL     1      20.779  40.686 101.823  1.00  0.00     0.219 HD
ENDBRANCH   9  34
BRANCH   1  36
HETATM   36  C3  UNL     1      18.453  43.296 101.871  1.00  0.00     0.234 C 
HETATM   37  N1  UNL     1      18.723  43.908 103.182  1.00  0.00    -0.340 N 
ATOM     38  H1  UNL     1      18.609  43.359 104.035  1.00  0.00     0.167 HD
HETATM   39  O1  UNL     1      18.610  44.043 100.919  1.00  0.00    -0.272 OA
BRANCH  37  40
HETATM   40  C2  UNL     1      19.138  45.250 103.259  1.00  0.00     0.059 C 
HETATM   41  C1  UNL     1      18.085  46.295 103.488  1.00  0.00     0.055 C 
ENDBRANCH  37  40
ENDBRANCH   1  36
BRANCH   4  42
HETATM   42  N3  UNL     1      14.577  39.271 100.862  1.00  0.00    -0.032 N 
ATOM     43  H33 UNL     1      15.363  38.814 100.401  1.00  0.00     0.279 HD
ATOM     44  H32 UNL     1      14.045  38.455 101.160  1.00  0.00     0.279 HD
ATOM     45  H31 UNL     1      14.039  39.812 100.184  1.00  0.00     0.279 HD
ENDBRANCH   4  42
BRANCH   4  46
HETATM   46  C7  UNL     1      14.001  41.113 102.081  1.00  0.00     0.381 C 
HETATM   47  O2  UNL     1      13.792  42.128 101.809  1.00  0.00    -0.249 OA
HETATM   48  N4  UNL     1      12.872  40.317 102.754  1.00  0.00    -0.266 NA
BRANCH  48  49
HETATM   49  N5  UNL     1      11.964  39.689 103.292  1.00  0.00    -0.179 N 
ATOM     50  H5  UNL     1      12.128  38.705 103.501  1.00  0.00     0.223 HD
BRANCH  49  51
HETATM   51  N6  UNL     1      10.704  40.235 103.645  1.00  0.00    -0.320 N 
ATOM     52  H62 UNL     1      10.589  40.527 104.615  1.00  0.00     0.179 HD
ATOM     53  H61 UNL     1       9.921  40.351 103.002  1.00  0.00     0.179 HD
ENDBRANCH  49  51
ENDBRANCH  48  49
ENDBRANCH   4  46
TORSDOF 12
ENDMDL
