MODEL 1
REMARK VINA RESULT: -9.302631040      0.000      0.000
REMARK  17 active torsions:
REMARK  status: ('A' for Active; 'I' for Inactive)
REMARK    1  A    between atoms: N1_1  and  C1_4 
REMARK    2  A    between atoms: C2_7  and  N3_8 
REMARK    3  A    between atoms: C4_10  and  N4_11 
REMARK    4  A    between atoms: C5_15  and  S1_16 
REMARK    5  A    between atoms: S1_16  and  N5_19 
REMARK    6  A    between atoms: N5_19  and  C6_21 
REMARK    7  A    between atoms: C6_21  and  C7_22 
REMARK    8  A    between atoms: C7_22  and  O3_23 
REMARK    9  A    between atoms: O3_23  and  C8_24 
REMARK   10  A    between atoms: C13_34  and  N8_35 
REMARK   11  A    between atoms: N8_35  and  C14_37 
REMARK   12  A    between atoms: C15_38  and  N9_39 
REMARK   13  A    between atoms: C18_45  and  S2_46 
REMARK   14  A    between atoms: S2_46  and  N10_49 
REMARK   15  A    between atoms: N10_49  and  N11_50 
REMARK   16  A    between atoms: N10_49  and  N12_53 
REMARK   17  A    between atoms: C19_56  and  O7_57 
ROOT
HETATM    1  C1  UNL     1      19.217  32.167 107.390  1.00  0.00     0.705 A 
HETATM    2  N2  UNL     1      18.964  32.633 106.157  1.00  0.00    -0.022 N 
ATOM      3  H2  UNL     1      19.057  32.026 105.343  1.00  0.00     0.203 HD
HETATM    4  C2  UNL     1      18.583  33.925 106.014  1.00  0.00     0.709 A 
HETATM    5  N7  UNL     1      18.478  34.673 107.096  1.00  0.00    -0.021 N 
ATOM      6  H7  UNL     1      18.191  35.644 106.975  1.00  0.00     0.203 HD
HETATM    7  C13 UNL     1      18.726  34.238 108.369  1.00  0.00     0.707 A 
HETATM    8  N13 UNL     1      19.101  32.955 108.485  1.00  0.00    -0.022 N 
ATOM      9  H13 UNL     1      19.301  32.568 109.407  1.00  0.00     0.203 HD
ENDROOT
BRANCH   4  10
HETATM   10  N3  UNL     1      18.301  34.481 104.739  1.00  0.00    -0.213 N 
HETATM   11  C3  UNL     1      17.690  33.810 103.629  1.00  0.00     0.175 C 
HETATM   12  C4  UNL     1      17.978  34.707 102.410  1.00  0.00     0.223 C 
HETATM   13  C5  UNL     1      19.022  35.674 102.930  1.00  0.00     0.179 C 
HETATM   14  C12 UNL     1      18.600  35.840 104.355  1.00  0.00     0.165 C 
BRANCH  12  15
HETATM   15  N4  UNL     1      18.508  33.892 101.319  1.00  0.00    -0.072 N 
ATOM     16  H43 UNL     1      18.284  34.282 100.403  1.00  0.00     0.274 HD
ATOM     17  H42 UNL     1      19.524  33.947 101.257  1.00  0.00     0.274 HD
ATOM     18  H41 UNL     1      18.178  32.932 101.420  1.00  0.00     0.274 HD
ENDBRANCH  12  15
BRANCH  13  19
HETATM   19  S1  UNL     1      19.219  37.142 102.015  1.00  0.00     0.234 S 
HETATM   20  O1  UNL     1      19.768  36.720 100.638  1.00  0.00    -0.205 OA
HETATM   21  O2  UNL     1      20.371  37.913 102.689  1.00  0.00    -0.205 OA
BRANCH  19  22
HETATM   22  N5  UNL     1      17.883  38.118 101.822  1.00  0.00    -0.317 N 
ATOM     23  H5  UNL     1      17.049  37.953 102.385  1.00  0.00     0.172 HD
BRANCH  22  24
HETATM   24  C6  UNL     1      17.897  39.168 100.889  1.00  0.00     0.158 C 
BRANCH  24  25
HETATM   25  C7  UNL     1      17.672  40.530 101.582  1.00  0.00     0.188 C 
BRANCH  25  26
HETATM   26  O3  UNL     1      18.122  40.421 102.881  1.00  0.00    -0.382 OA
BRANCH  26  27
HETATM   27  C8  UNL     1      19.010  41.373 103.289  1.00  0.00     0.148 C 
HETATM   28  C9  UNL     1      20.345  41.294 102.538  1.00  0.00     0.155 C 
HETATM   29  N6  UNL     1      20.888  42.614 102.875  1.00  0.00    -0.359 N 
HETATM   30  C10 UNL     1      19.824  43.528 103.061  1.00  0.00     0.220 C 
ATOM     31  H6  UNL     1      21.880  42.838 102.961  1.00  0.00     0.162 HD
HETATM   32  O4  UNL     1      19.964  44.738 103.343  1.00  0.00    -0.274 OA
HETATM   33  C11 UNL     1      18.560  42.783 102.865  1.00  0.00     0.136 C 
ENDBRANCH  26  27
ENDBRANCH  25  26
ENDBRANCH  24  25
ENDBRANCH  22  24
ENDBRANCH  19  22
ENDBRANCH  13  19
ENDBRANCH   4  10
BRANCH   1  34
HETATM   34  N1  UNL     1      19.577  30.932 107.501  1.00  0.00    -0.234 N 
ATOM     35  H12 UNL     1      20.450  30.605 107.090  1.00  0.00     0.174 HD
ATOM     36  H11 UNL     1      18.958  30.304 108.013  1.00  0.00     0.174 HD
ENDBRANCH   1  34
BRANCH   7  37
HETATM   37  N8  UNL     1      18.580  35.066 109.275  1.00  0.00    -0.216 N 
ATOM     38  H8  UNL     1      19.428  35.623 109.390  1.00  0.00     0.178 HD
BRANCH  37  39
HETATM   39  C14 UNL     1      17.605  35.469 110.188  1.00  0.00     0.159 C 
HETATM   40  C15 UNL     1      17.950  35.446 111.629  1.00  0.00     0.209 C 
HETATM   41  C16 UNL     1      17.809  36.844 112.209  1.00  0.00     0.036 C 
HETATM   42  C17 UNL     1      16.405  37.359 112.031  1.00  0.00     0.026 C 
HETATM   43  C18 UNL     1      15.914  37.291 110.617  1.00  0.00     0.158 C 
HETATM   44  C19 UNL     1      16.973  36.756 109.719  1.00  0.00     0.163 C 
BRANCH  40  45
HETATM   45  N9  UNL     1      19.243  34.944 111.968  1.00  0.00    -0.073 N 
ATOM     46  H93 UNL     1      19.508  34.207 111.313  1.00  0.00     0.274 HD
ATOM     47  H92 UNL     1      19.950  35.647 111.753  1.00  0.00     0.274 HD
ATOM     48  H91 UNL     1      19.368  34.614 112.925  1.00  0.00     0.274 HD
ENDBRANCH  40  45
BRANCH  43  49
HETATM   49  S2  UNL     1      14.388  36.414 110.471  1.00  0.00     0.252 S 
HETATM   50  O5  UNL     1      13.652  36.956 109.266  1.00  0.00    -0.208 OA
HETATM   51  O6  UNL     1      13.572  36.478 111.715  1.00  0.00    -0.208 OA
BRANCH  49  52
HETATM   52  N10 UNL     1      14.747  34.733 110.175  1.00  0.00    -0.035 NA
BRANCH  52  53
HETATM   53  N11 UNL     1      14.255  34.295 108.964  1.00  0.00    -0.332 NA
ATOM     54 2H11 UNL     1      14.968  34.097 108.262  1.00  0.00     0.173 HD
ATOM     55 1H11 UNL     1      13.608  33.512 109.066  1.00  0.00     0.173 HD
ENDBRANCH  52  53
BRANCH  52  56
HETATM   56  N12 UNL     1      14.397  33.944 111.261  1.00  0.00    -0.332 NA
ATOM     57 2H12 UNL     1      13.461  34.118 111.629  1.00  0.00     0.173 HD
ATOM     58 1H12 UNL     1      15.113  33.975 111.988  1.00  0.00     0.173 HD
ENDBRANCH  52  56
ENDBRANCH  49  52
ENDBRANCH  43  49
BRANCH  44  59
HETATM   59  O7  UNL     1      16.368  36.427 108.474  1.00  0.00    -0.392 OA
ATOM     60  H7  UNL     1      16.818  36.970 107.838  1.00  0.00     0.210 HD
ENDBRANCH  44  59
ENDBRANCH  37  39
ENDBRANCH   7  37
TORSDOF 17
ENDMDL
MODEL 2
REMARK VINA RESULT: -9.215729021      2.881      3.697
REMARK  17 active torsions:
REMARK  status: ('A' for Active; 'I' for Inactive)
REMARK    1  A    between atoms: N1_1  and  C1_4 
REMARK    2  A    between atoms: C2_7  and  N3_8 
REMARK    3  A    between atoms: C4_10  and  N4_11 
REMARK    4  A    between atoms: C5_15  and  S1_16 
REMARK    5  A    between atoms: S1_16  and  N5_19 
REMARK    6  A    between atoms: N5_19  and  C6_21 
REMARK    7  A    between atoms: C6_21  and  C7_22 
REMARK    8  A    between atoms: C7_22  and  O3_23 
REMARK    9  A    between atoms: O3_23  and  C8_24 
REMARK   10  A    between atoms: C13_34  and  N8_35 
REMARK   11  A    between atoms: N8_35  and  C14_37 
REMARK   12  A    between atoms: C15_38  and  N9_39 
REMARK   13  A    between atoms: C18_45  and  S2_46 
REMARK   14  A    between atoms: S2_46  and  N10_49 
REMARK   15  A    between atoms: N10_49  and  N11_50 
REMARK   16  A    between atoms: N10_49  and  N12_53 
REMARK   17  A    between atoms: C19_56  and  O7_57 
ROOT
HETATM    1  C1  UNL     1      19.139  32.111 107.187  1.00  0.00     0.705 A 
HETATM    2  N2  UNL     1      18.389  32.148 106.075  1.00  0.00    -0.022 N 
ATOM      3  H2  UNL     1      18.309  31.327 105.475  1.00  0.00     0.203 HD
HETATM    4  C2  UNL     1      17.741  33.295 105.764  1.00  0.00     0.709 A 
HETATM    5  N7  UNL     1      17.875  34.332 106.570  1.00  0.00    -0.021 N 
ATOM      6  H7  UNL     1      17.382  35.190 106.325  1.00  0.00     0.203 HD
HETATM    7  C13 UNL     1      18.629  34.337 107.711  1.00  0.00     0.707 A 
HETATM    8  N13 UNL     1      19.261  33.188 107.998  1.00  0.00    -0.022 N 
ATOM      9  H13 UNL     1      19.839  33.126 108.836  1.00  0.00     0.203 HD
ENDROOT
BRANCH   4  10
HETATM   10  N3  UNL     1      16.932  33.402 104.602  1.00  0.00    -0.213 N 
HETATM   11  C3  UNL     1      15.828  32.558 104.248  1.00  0.00     0.175 C 
HETATM   12  C4  UNL     1      15.571  32.841 102.756  1.00  0.00     0.223 C 
HETATM   13  C5  UNL     1      16.799  33.622 102.333  1.00  0.00     0.179 C 
HETATM   14  C12 UNL     1      17.106  34.399 103.573  1.00  0.00     0.165 C 
BRANCH  12  15
HETATM   15  N4  UNL     1      15.472  31.577 102.029  1.00  0.00    -0.072 N 
ATOM     16  H43 UNL     1      14.962  30.868 102.556  1.00  0.00     0.274 HD
ATOM     17  H42 UNL     1      14.845  31.642 101.227  1.00  0.00     0.274 HD
ATOM     18  H41 UNL     1      16.405  31.263 101.764  1.00  0.00     0.274 HD
ENDBRANCH  12  15
BRANCH  13  19
HETATM   19  S1  UNL     1      16.641  34.550 100.869  1.00  0.00     0.234 S 
HETATM   20  O1  UNL     1      15.740  35.752 101.216  1.00  0.00    -0.205 OA
HETATM   21  O2  UNL     1      15.805  33.685  99.905  1.00  0.00    -0.205 OA
BRANCH  19  22
HETATM   22  N5  UNL     1      18.040  35.078 100.133  1.00  0.00    -0.317 N 
ATOM     23  H5  UNL     1      18.084  35.141  99.116  1.00  0.00     0.172 HD
BRANCH  22  24
HETATM   24  C6  UNL     1      19.158  35.437 100.904  1.00  0.00     0.158 C 
BRANCH  24  25
HETATM   25  C7  UNL     1      19.196  36.962 101.151  1.00  0.00     0.188 C 
BRANCH  25  26
HETATM   26  O3  UNL     1      20.208  37.217 102.051  1.00  0.00    -0.382 OA
BRANCH  26  27
HETATM   27  C8  UNL     1      19.947  38.171 102.992  1.00  0.00     0.148 C 
HETATM   28  C9  UNL     1      18.446  38.345 103.252  1.00  0.00     0.155 C 
HETATM   29  N6  UNL     1      18.506  39.080 104.519  1.00  0.00    -0.359 N 
HETATM   30  C10 UNL     1      19.673  38.704 105.227  1.00  0.00     0.220 C 
ATOM     31  H6  UNL     1      17.813  39.757 104.842  1.00  0.00     0.162 HD
HETATM   32  O4  UNL     1      19.999  39.146 106.350  1.00  0.00    -0.274 OA
HETATM   33  C11 UNL     1      20.400  37.722 104.393  1.00  0.00     0.136 C 
ENDBRANCH  26  27
ENDBRANCH  25  26
ENDBRANCH  24  25
ENDBRANCH  22  24
ENDBRANCH  19  22
ENDBRANCH  13  19
ENDBRANCH   4  10
BRANCH   1  34
HETATM   34  N1  UNL     1      19.746  31.006 107.463  1.00  0.00    -0.234 N 
ATOM     35  H12 UNL     1      19.486  30.460 108.284  1.00  0.00     0.174 HD
ATOM     36  H11 UNL     1      20.487  30.703 106.832  1.00  0.00     0.174 HD
ENDBRANCH   1  34
BRANCH   7  37
HETATM   37  N8  UNL     1      18.649  35.391 108.356  1.00  0.00    -0.216 N 
ATOM     38  H8  UNL     1      19.489  35.928 108.136  1.00  0.00     0.178 HD
BRANCH  37  39
HETATM   39  C14 UNL     1      17.870  36.068 109.294  1.00  0.00     0.159 C 
HETATM   40  C15 UNL     1      17.096  37.245 108.835  1.00  0.00     0.209 C 
HETATM   41  C16 UNL     1      15.615  37.010 109.085  1.00  0.00     0.036 C 
HETATM   42  C17 UNL     1      15.351  36.768 110.549  1.00  0.00     0.026 C 
HETATM   43  C18 UNL     1      16.195  35.681 111.140  1.00  0.00     0.158 C 
HETATM   44  C19 UNL     1      17.073  35.075 110.102  1.00  0.00     0.163 C 
BRANCH  40  45
HETATM   45  N9  UNL     1      17.267  37.630 107.470  1.00  0.00    -0.073 N 
ATOM     46  H93 UNL     1      18.260  37.624 107.235  1.00  0.00     0.274 HD
ATOM     47  H92 UNL     1      16.926  36.888 106.860  1.00  0.00     0.274 HD
ATOM     48  H91 UNL     1      16.854  38.520 107.192  1.00  0.00     0.274 HD
ENDBRANCH  40  45
BRANCH  43  49
HETATM   49  S2  UNL     1      17.090  36.217 112.564  1.00  0.00     0.252 S 
HETATM   50  O5  UNL     1      16.114  36.328 113.714  1.00  0.00    -0.208 OA
HETATM   51  O6  UNL     1      17.838  37.483 112.325  1.00  0.00    -0.208 OA
BRANCH  49  52
HETATM   52  N10 UNL     1      18.264  34.992 112.967  1.00  0.00    -0.035 NA
BRANCH  52  53
HETATM   53  N11 UNL     1      17.751  34.025 113.805  1.00  0.00    -0.332 NA
ATOM     54 2H11 UNL     1      16.899  34.296 114.296  1.00  0.00     0.173 HD
ATOM     55 1H11 UNL     1      17.639  33.124 113.339  1.00  0.00     0.173 HD
ENDBRANCH  52  53
BRANCH  52  56
HETATM   56  N12 UNL     1      19.455  35.559 113.400  1.00  0.00    -0.332 NA
ATOM     57 2H12 UNL     1      20.010  34.964 114.015  1.00  0.00     0.173 HD
ATOM     58 1H12 UNL     1      19.302  36.489 113.790  1.00  0.00     0.173 HD
ENDBRANCH  52  56
ENDBRANCH  49  52
ENDBRANCH  43  49
BRANCH  44  59
HETATM   59  O7  UNL     1      18.052  34.282 110.765  1.00  0.00    -0.392 OA
ATOM     60  H7  UNL     1      17.555  33.587 111.181  1.00  0.00     0.210 HD
ENDBRANCH  44  59
ENDBRANCH  37  39
ENDBRANCH   7  37
TORSDOF 17
ENDMDL
MODEL 3
REMARK VINA RESULT: -9.178114120      2.231      3.362
REMARK  17 active torsions:
REMARK  status: ('A' for Active; 'I' for Inactive)
REMARK    1  A    between atoms: N1_1  and  C1_4 
REMARK    2  A    between atoms: C2_7  and  N3_8 
REMARK    3  A    between atoms: C4_10  and  N4_11 
REMARK    4  A    between atoms: C5_15  and  S1_16 
REMARK    5  A    between atoms: S1_16  and  N5_19 
REMARK    6  A    between atoms: N5_19  and  C6_21 
REMARK    7  A    between atoms: C6_21  and  C7_22 
REMARK    8  A    between atoms: C7_22  and  O3_23 
REMARK    9  A    between atoms: O3_23  and  C8_24 
REMARK   10  A    between atoms: C13_34  and  N8_35 
REMARK   11  A    between atoms: N8_35  and  C14_37 
REMARK   12  A    between atoms: C15_38  and  N9_39 
REMARK   13  A    between atoms: C18_45  and  S2_46 
REMARK   14  A    between atoms: S2_46  and  N10_49 
REMARK   15  A    between atoms: N10_49  and  N11_50 
REMARK   16  A    between atoms: N10_49  and  N12_53 
REMARK   17  A    between atoms: C19_56  and  O7_57 
ROOT
HETATM    1  C1  UNL     1      18.860  32.673 106.985  1.00  0.00     0.705 A 
HETATM    2  N2  UNL     1      18.672  32.976 105.691  1.00  0.00    -0.022 N 
ATOM      3  H2  UNL     1      18.825  32.275 104.966  1.00  0.00     0.203 HD
HETATM    4  C2  UNL     1      18.275  34.229 105.366  1.00  0.00     0.709 A 
HETATM    5  N7  UNL     1      18.090  35.102 106.338  1.00  0.00    -0.021 N 
ATOM      6  H7  UNL     1      17.792  36.043 106.080  1.00  0.00     0.203 HD
HETATM    7  C13 UNL     1      18.271  34.836 107.668  1.00  0.00     0.707 A 
HETATM    8  N13 UNL     1      18.664  33.587 107.964  1.00  0.00    -0.022 N 
ATOM      9  H13 UNL     1      18.816  33.324 108.937  1.00  0.00     0.203 HD
ENDROOT
BRANCH   4  10
HETATM   10  N3  UNL     1      18.058  34.615 104.017  1.00  0.00    -0.213 N 
HETATM   11  C3  UNL     1      17.697  33.754 102.928  1.00  0.00     0.175 C 
HETATM   12  C4  UNL     1      17.978  34.577 101.657  1.00  0.00     0.223 C 
HETATM   13  C5  UNL     1      18.785  35.752 102.174  1.00  0.00     0.179 C 
HETATM   14  C12 UNL     1      18.178  35.966 103.524  1.00  0.00     0.165 C 
BRANCH  12  15
HETATM   15  N4  UNL     1      18.756  33.774 100.717  1.00  0.00    -0.072 N 
ATOM     16  H43 UNL     1      19.696  33.580 101.063  1.00  0.00     0.274 HD
ATOM     17  H42 UNL     1      18.419  32.813 100.661  1.00  0.00     0.274 HD
ATOM     18  H41 UNL     1      18.768  34.232  99.806  1.00  0.00     0.274 HD
ENDBRANCH  12  15
BRANCH  13  19
HETATM   19  S1  UNL     1      18.848  37.146 101.134  1.00  0.00     0.234 S 
HETATM   20  O1  UNL     1      17.501  37.186 100.386  1.00  0.00    -0.205 OA
HETATM   21  O2  UNL     1      19.899  36.823 100.053  1.00  0.00    -0.205 OA
BRANCH  19  22
HETATM   22  N5  UNL     1      19.155  38.624 101.839  1.00  0.00    -0.317 N 
ATOM     23  H5  UNL     1      20.113  38.887 102.069  1.00  0.00     0.172 HD
BRANCH  22  24
HETATM   24  C6  UNL     1      18.102  39.511 102.118  1.00  0.00     0.158 C 
BRANCH  24  25
HETATM   25  C7  UNL     1      18.564  40.641 103.064  1.00  0.00     0.188 C 
BRANCH  25  26
HETATM   26  O3  UNL     1      17.506  40.954 103.893  1.00  0.00    -0.382 OA
BRANCH  26  27
HETATM   27  C8  UNL     1      16.260  40.713 103.390  1.00  0.00     0.148 C 
HETATM   28  C9  UNL     1      15.225  40.440 104.487  1.00  0.00     0.155 C 
HETATM   29  N6  UNL     1      13.996  40.628 103.710  1.00  0.00    -0.359 N 
HETATM   30  C10 UNL     1      14.231  41.567 102.677  1.00  0.00     0.220 C 
ATOM     31  H6  UNL     1      13.109  40.155 103.886  1.00  0.00     0.162 HD
HETATM   32  O4  UNL     1      13.372  41.951 101.853  1.00  0.00    -0.274 OA
HETATM   33  C11 UNL     1      15.648  41.983 102.769  1.00  0.00     0.136 C 
ENDBRANCH  26  27
ENDBRANCH  25  26
ENDBRANCH  24  25
ENDBRANCH  22  24
ENDBRANCH  19  22
ENDBRANCH  13  19
ENDBRANCH   4  10
BRANCH   1  34
HETATM   34  N1  UNL     1      19.237  31.472 107.270  1.00  0.00    -0.234 N 
ATOM     35  H12 UNL     1      19.169  30.726 106.577  1.00  0.00     0.174 HD
ATOM     36  H11 UNL     1      19.603  31.301 108.206  1.00  0.00     0.174 HD
ENDBRANCH   1  34
BRANCH   7  37
HETATM   37  N8  UNL     1      18.055  35.766 108.452  1.00  0.00    -0.216 N 
ATOM     38  H8  UNL     1      18.712  36.529 108.290  1.00  0.00     0.178 HD
BRANCH  37  39
HETATM   39  C14 UNL     1      17.183  36.085 109.493  1.00  0.00     0.159 C 
HETATM   40  C15 UNL     1      15.840  36.602 109.140  1.00  0.00     0.209 C 
HETATM   41  C16 UNL     1      14.774  35.681 109.712  1.00  0.00     0.036 C 
HETATM   42  C17 UNL     1      14.901  35.579 111.210  1.00  0.00     0.026 C 
HETATM   43  C18 UNL     1      16.274  35.195 111.671  1.00  0.00     0.158 C 
HETATM   44  C19 UNL     1      17.175  34.971 110.508  1.00  0.00     0.163 C 
BRANCH  40  45
HETATM   45  N9  UNL     1      15.573  36.793 107.750  1.00  0.00    -0.073 N 
ATOM     46  H93 UNL     1      16.226  37.478 107.367  1.00  0.00     0.274 HD
ATOM     47  H92 UNL     1      15.851  35.960 107.231  1.00  0.00     0.274 HD
ATOM     48  H91 UNL     1      14.619  37.051 107.499  1.00  0.00     0.274 HD
ENDBRANCH  40  45
BRANCH  43  49
HETATM   49  S2  UNL     1      16.939  36.339 112.839  1.00  0.00     0.252 S 
HETATM   50  O5  UNL     1      15.816  36.782 113.751  1.00  0.00    -0.208 OA
HETATM   51  O6  UNL     1      17.631  37.485 112.186  1.00  0.00    -0.208 OA
BRANCH  49  52
HETATM   52  N10 UNL     1      18.126  35.506 113.809  1.00  0.00    -0.035 NA
BRANCH  52  53
HETATM   53  N11 UNL     1      19.417  35.876 113.497  1.00  0.00    -0.332 NA
ATOM     54 2H11 UNL     1      19.991  36.132 114.300  1.00  0.00     0.173 HD
ATOM     55 1H11 UNL     1      19.888  35.190 112.907  1.00  0.00     0.173 HD
ENDBRANCH  52  53
BRANCH  52  56
HETATM   56  N12 UNL     1      17.902  34.136 113.811  1.00  0.00    -0.332 NA
ATOM     57 2H12 UNL     1      17.354  33.796 114.602  1.00  0.00     0.173 HD
ATOM     58 1H12 UNL     1      18.772  33.618 113.688  1.00  0.00     0.173 HD
ENDBRANCH  52  56
ENDBRANCH  49  52
ENDBRANCH  43  49
BRANCH  44  59
HETATM   59  O7  UNL     1      18.511  34.915 110.994  1.00  0.00    -0.392 OA
ATOM     60  H7  UNL     1      18.444  35.152 111.911  1.00  0.00     0.210 HD
ENDBRANCH  44  59
ENDBRANCH  37  39
ENDBRANCH   7  37
TORSDOF 17
ENDMDL
MODEL 4
REMARK VINA RESULT: -9.162440449      5.222      8.620
REMARK  17 active torsions:
REMARK  status: ('A' for Active; 'I' for Inactive)
REMARK    1  A    between atoms: N1_1  and  C1_4 
REMARK    2  A    between atoms: C2_7  and  N3_8 
REMARK    3  A    between atoms: C4_10  and  N4_11 
REMARK    4  A    between atoms: C5_15  and  S1_16 
REMARK    5  A    between atoms: S1_16  and  N5_19 
REMARK    6  A    between atoms: N5_19  and  C6_21 
REMARK    7  A    between atoms: C6_21  and  C7_22 
REMARK    8  A    between atoms: C7_22  and  O3_23 
REMARK    9  A    between atoms: O3_23  and  C8_24 
REMARK   10  A    between atoms: C13_34  and  N8_35 
REMARK   11  A    between atoms: N8_35  and  C14_37 
REMARK   12  A    between atoms: C15_38  and  N9_39 
REMARK   13  A    between atoms: C18_45  and  S2_46 
REMARK   14  A    between atoms: S2_46  and  N10_49 
REMARK   15  A    between atoms: N10_49  and  N11_50 
REMARK   16  A    between atoms: N10_49  and  N12_53 
REMARK   17  A    between atoms: C19_56  and  O7_57 
ROOT
HETATM    1  C1  UNL     1      18.705  38.488  96.898  1.00  0.00     0.705 A 
HETATM    2  N2  UNL     1      18.761  39.734  97.393  1.00  0.00    -0.022 N 
ATOM      3  H2  UNL     1      18.742  40.542  96.771  1.00  0.00     0.203 HD
HETATM    4  C2  UNL     1      18.845  39.899  98.735  1.00  0.00     0.709 A 
HETATM    5  N7  UNL     1      18.868  38.824  99.500  1.00  0.00    -0.021 N 
ATOM      6  H7  UNL     1      18.931  38.962 100.509  1.00  0.00     0.203 HD
HETATM    7  C13 UNL     1      18.813  37.538  99.037  1.00  0.00     0.707 A 
HETATM    8  N13 UNL     1      18.730  37.401  97.705  1.00  0.00    -0.022 N 
ATOM      9  H13 UNL     1      18.685  36.468  97.295  1.00  0.00     0.203 HD
ENDROOT
BRANCH   4  10
HETATM   10  N3  UNL     1      18.909  41.189  99.324  1.00  0.00    -0.213 N 
HETATM   11  C3  UNL     1      19.149  42.429  98.644  1.00  0.00     0.175 C 
HETATM   12  C4  UNL     1      19.509  43.432  99.756  1.00  0.00     0.223 C 
HETATM   13  C5  UNL     1      19.738  42.544 100.964  1.00  0.00     0.179 C 
HETATM   14  C12 UNL     1      18.741  41.454 100.732  1.00  0.00     0.165 C 
BRANCH  12  15
HETATM   15  N4  UNL     1      20.727  44.151  99.390  1.00  0.00    -0.072 N 
ATOM     16  H43 UNL     1      20.722  44.445  98.413  1.00  0.00     0.274 HD
ATOM     17  H42 UNL     1      20.774  45.074  99.821  1.00  0.00     0.274 HD
ATOM     18  H41 UNL     1      21.541  43.579  99.615  1.00  0.00     0.274 HD
ENDBRANCH  12  15
BRANCH  13  19
HETATM   19  S1  UNL     1      19.661  43.335 102.512  1.00  0.00     0.234 S 
HETATM   20  O1  UNL     1      19.987  44.820 102.253  1.00  0.00    -0.205 OA
HETATM   21  O2  UNL     1      20.855  42.797 103.326  1.00  0.00    -0.205 OA
BRANCH  19  22
HETATM   22  N5  UNL     1      18.244  43.204 103.379  1.00  0.00    -0.317 N 
ATOM     23  H5  UNL     1      18.276  42.959 104.368  1.00  0.00     0.172 HD
BRANCH  22  24
HETATM   24  C6  UNL     1      17.006  43.430 102.756  1.00  0.00     0.158 C 
BRANCH  24  25
HETATM   25  C7  UNL     1      16.030  42.261 103.019  1.00  0.00     0.188 C 
BRANCH  25  26
HETATM   26  O3  UNL     1      14.920  42.452 102.223  1.00  0.00    -0.382 OA
BRANCH  26  27
HETATM   27  C8  UNL     1      14.026  41.422 102.186  1.00  0.00     0.148 C 
HETATM   28  C9  UNL     1      14.604  40.164 101.528  1.00  0.00     0.155 C 
HETATM   29  N6  UNL     1      13.622  39.178 101.990  1.00  0.00    -0.359 N 
HETATM   30  C10 UNL     1      13.104  39.581 103.243  1.00  0.00     0.220 C 
ATOM     31  H6  UNL     1      13.354  38.332 101.486  1.00  0.00     0.162 HD
HETATM   32  O4  UNL     1      12.257  38.942 103.904  1.00  0.00    -0.274 OA
HETATM   33  C11 UNL     1      13.744  40.868 103.595  1.00  0.00     0.136 C 
ENDBRANCH  26  27
ENDBRANCH  25  26
ENDBRANCH  24  25
ENDBRANCH  22  24
ENDBRANCH  19  22
ENDBRANCH  13  19
ENDBRANCH   4  10
BRANCH   1  34
HETATM   34  N1  UNL     1      18.624  38.357  95.616  1.00  0.00    -0.234 N 
ATOM     35  H12 UNL     1      17.757  38.574  95.124  1.00  0.00     0.174 HD
ATOM     36  H11 UNL     1      19.453  38.031  95.121  1.00  0.00     0.174 HD
ENDBRANCH   1  34
BRANCH   7  37
HETATM   37  N8  UNL     1      18.845  36.642  99.888  1.00  0.00    -0.216 N 
ATOM     38  H8  UNL     1      19.381  35.844  99.546  1.00  0.00     0.178 HD
BRANCH  37  39
HETATM   39  C14 UNL     1      18.368  36.394 101.176  1.00  0.00     0.159 C 
HETATM   40  C15 UNL     1      17.605  35.145 101.405  1.00  0.00     0.209 C 
HETATM   41  C16 UNL     1      18.307  34.304 102.458  1.00  0.00     0.036 C 
HETATM   42  C17 UNL     1      18.437  35.065 103.752  1.00  0.00     0.026 C 
HETATM   43  C18 UNL     1      19.076  36.411 103.596  1.00  0.00     0.158 C 
HETATM   44  C19 UNL     1      19.465  36.647 102.179  1.00  0.00     0.163 C 
BRANCH  40  45
HETATM   45  N9  UNL     1      17.362  34.325 100.261  1.00  0.00    -0.073 N 
ATOM     46  H93 UNL     1      18.250  34.073  99.825  1.00  0.00     0.274 HD
ATOM     47  H92 UNL     1      17.034  33.408 100.560  1.00  0.00     0.274 HD
ATOM     48  H91 UNL     1      16.729  34.702  99.555  1.00  0.00     0.274 HD
ENDBRANCH  40  45
BRANCH  43  49
HETATM   49  S2  UNL     1      18.084  37.713 104.258  1.00  0.00     0.252 S 
HETATM   50  O5  UNL     1      17.294  37.153 105.420  1.00  0.00    -0.208 OA
HETATM   51  O6  UNL     1      17.214  38.347 103.229  1.00  0.00    -0.208 OA
BRANCH  49  52
HETATM   52  N10 UNL     1      19.145  38.953 104.873  1.00  0.00    -0.035 NA
BRANCH  52  53
HETATM   53  N11 UNL     1      19.086  40.113 104.130  1.00  0.00    -0.332 NA
ATOM     54 2H11 UNL     1      19.178  40.971 104.674  1.00  0.00     0.173 HD
ATOM     55 1H11 UNL     1      19.731  40.104 103.340  1.00  0.00     0.173 HD
ENDBRANCH  52  53
BRANCH  52  56
HETATM   56  N12 UNL     1      20.427  38.463 105.078  1.00  0.00    -0.332 NA
ATOM     57 2H12 UNL     1      20.828  37.972 104.279  1.00  0.00     0.173 HD
ATOM     58 1H12 UNL     1      20.481  37.916 105.938  1.00  0.00     0.173 HD
ENDBRANCH  52  56
ENDBRANCH  49  52
ENDBRANCH  43  49
BRANCH  44  59
HETATM   59  O7  UNL     1      19.775  38.028 102.034  1.00  0.00    -0.392 OA
ATOM     60  H7  UNL     1      20.685  38.098 102.296  1.00  0.00     0.210 HD
ENDBRANCH  44  59
ENDBRANCH  37  39
ENDBRANCH   7  37
TORSDOF 17
ENDMDL
MODEL 5
REMARK VINA RESULT: -9.122039670      4.690     12.942
REMARK  17 active torsions:
REMARK  status: ('A' for Active; 'I' for Inactive)
REMARK    1  A    between atoms: N1_1  and  C1_4 
REMARK    2  A    between atoms: C2_7  and  N3_8 
REMARK    3  A    between atoms: C4_10  and  N4_11 
REMARK    4  A    between atoms: C5_15  and  S1_16 
REMARK    5  A    between atoms: S1_16  and  N5_19 
REMARK    6  A    between atoms: N5_19  and  C6_21 
REMARK    7  A    between atoms: C6_21  and  C7_22 
REMARK    8  A    between atoms: C7_22  and  O3_23 
REMARK    9  A    between atoms: O3_23  and  C8_24 
REMARK   10  A    between atoms: C13_34  and  N8_35 
REMARK   11  A    between atoms: N8_35  and  C14_37 
REMARK   12  A    between atoms: C15_38  and  N9_39 
REMARK   13  A    between atoms: C18_45  and  S2_46 
REMARK   14  A    between atoms: S2_46  and  N10_49 
REMARK   15  A    between atoms: N10_49  and  N11_50 
REMARK   16  A    between atoms: N10_49  and  N12_53 
REMARK   17  A    between atoms: C19_56  and  O7_57 
ROOT
HETATM    1  C1  UNL     1      18.471  44.068 101.618  1.00  0.00     0.705 A 
HETATM    2  N2  UNL     1      18.209  42.937 102.291  1.00  0.00    -0.022 N 
ATOM      3  H2  UNL     1      17.858  42.971 103.247  1.00  0.00     0.203 HD
HETATM    4  C2  UNL     1      18.421  41.749 101.676  1.00  0.00     0.709 A 
HETATM    5  N7  UNL     1      18.878  41.755 100.437  1.00  0.00    -0.021 N 
ATOM      6  H7  UNL     1      19.034  40.854  99.985  1.00  0.00     0.203 HD
HETATM    7  C13 UNL     1      19.158  42.884  99.717  1.00  0.00     0.707 A 
HETATM    8  N13 UNL     1      18.940  44.048 100.348  1.00  0.00    -0.022 N 
ATOM      9  H13 UNL     1      19.128  44.926  99.866  1.00  0.00     0.203 HD
ENDROOT
BRANCH   4  10
HETATM   10  N3  UNL     1      18.165  40.516 102.330  1.00  0.00    -0.213 N 
HETATM   11  C3  UNL     1      17.000  39.694 102.182  1.00  0.00     0.175 C 
HETATM   12  C4  UNL     1      17.043  38.719 103.373  1.00  0.00     0.223 C 
HETATM   13  C5  UNL     1      18.109  39.314 104.272  1.00  0.00     0.179 C 
HETATM   14  C12 UNL     1      19.061  39.889 103.272  1.00  0.00     0.165 C 
BRANCH  12  15
HETATM   15  N4  UNL     1      15.741  38.701 104.037  1.00  0.00    -0.072 N 
ATOM     16  H43 UNL     1      14.971  38.818 103.378  1.00  0.00     0.274 HD
ATOM     17  H42 UNL     1      15.498  37.773 104.383  1.00  0.00     0.274 HD
ATOM     18  H41 UNL     1      15.726  39.404 104.776  1.00  0.00     0.274 HD
ENDBRANCH  12  15
BRANCH  13  19
HETATM   19  S1  UNL     1      18.796  38.235 105.451  1.00  0.00     0.234 S 
HETATM   20  O1  UNL     1      19.691  39.103 106.358  1.00  0.00    -0.205 OA
HETATM   21  O2  UNL     1      19.770  37.324 104.679  1.00  0.00    -0.205 OA
BRANCH  19  22
HETATM   22  N5  UNL     1      17.747  37.333 106.380  1.00  0.00    -0.317 N 
ATOM     23  H5  UNL     1      17.179  36.608 105.942  1.00  0.00     0.172 HD
BRANCH  22  24
HETATM   24  C6  UNL     1      17.640  37.565 107.761  1.00  0.00     0.158 C 
BRANCH  24  25
HETATM   25  C7  UNL     1      16.161  37.686 108.191  1.00  0.00     0.188 C 
BRANCH  25  26
HETATM   26  O3  UNL     1      16.107  37.526 109.560  1.00  0.00    -0.382 OA
BRANCH  26  27
HETATM   27  C8  UNL     1      15.153  36.667 110.024  1.00  0.00     0.148 C 
HETATM   28  C9  UNL     1      14.940  35.465 109.097  1.00  0.00     0.155 C 
HETATM   29  N6  UNL     1      14.216  34.579 110.014  1.00  0.00    -0.359 N 
HETATM   30  C10 UNL     1      14.629  34.839 111.343  1.00  0.00     0.220 C 
ATOM     31  H6  UNL     1      13.523  33.883 109.737  1.00  0.00     0.162 HD
HETATM   32  O4  UNL     1      14.205  34.235 112.352  1.00  0.00    -0.274 OA
HETATM   33  C11 UNL     1      15.624  35.933 111.293  1.00  0.00     0.136 C 
ENDBRANCH  26  27
ENDBRANCH  25  26
ENDBRANCH  24  25
ENDBRANCH  22  24
ENDBRANCH  19  22
ENDBRANCH  13  19
ENDBRANCH   4  10
BRANCH   1  34
HETATM   34  N1  UNL     1      18.260  45.188 102.225  1.00  0.00    -0.234 N 
ATOM     35  H12 UNL     1      19.004  45.878 102.320  1.00  0.00     0.174 HD
ATOM     36  H11 UNL     1      17.326  45.353 102.601  1.00  0.00     0.174 HD
ENDBRANCH   1  34
BRANCH   7  37
HETATM   37  N8  UNL     1      19.580  42.716  98.568  1.00  0.00    -0.216 N 
ATOM     38  H8  UNL     1      18.820  42.440  97.945  1.00  0.00     0.178 HD
BRANCH  37  39
HETATM   39  C14 UNL     1      20.783  42.789  97.865  1.00  0.00     0.159 C 
HETATM   40  C15 UNL     1      21.356  41.530  97.335  1.00  0.00     0.209 C 
HETATM   41  C16 UNL     1      21.491  41.628  95.824  1.00  0.00     0.036 C 
HETATM   42  C17 UNL     1      22.370  42.789  95.438  1.00  0.00     0.026 C 
HETATM   43  C18 UNL     1      21.947  44.091  96.045  1.00  0.00     0.158 C 
HETATM   44  C19 UNL     1      20.717  43.914  96.863  1.00  0.00     0.163 C 
BRANCH  40  45
HETATM   45  N9  UNL     1      20.655  40.327  97.648  1.00  0.00    -0.073 N 
ATOM     46  H93 UNL     1      21.248  39.723  98.219  1.00  0.00     0.274 HD
ATOM     47  H92 UNL     1      19.905  40.529  98.309  1.00  0.00     0.274 HD
ATOM     48  H91 UNL     1      20.283  39.796  96.861  1.00  0.00     0.274 HD
ENDBRANCH  40  45
BRANCH  43  49
HETATM   49  S2  UNL     1      23.252  44.878  96.937  1.00  0.00     0.252 S 
HETATM   50  O5  UNL     1      24.561  44.275  96.477  1.00  0.00    -0.208 OA
HETATM   51  O6  UNL     1      23.069  44.790  98.412  1.00  0.00    -0.208 OA
BRANCH  49  52
HETATM   52  N10 UNL     1      23.260  46.571  96.517  1.00  0.00    -0.035 NA
BRANCH  52  53
HETATM   53  N11 UNL     1      24.249  46.885  95.610  1.00  0.00    -0.332 NA
ATOM     54 2H11 UNL     1      24.938  46.147  95.459  1.00  0.00     0.173 HD
ATOM     55 1H11 UNL     1      23.874  47.228  94.726  1.00  0.00     0.173 HD
ENDBRANCH  52  53
BRANCH  52  56
HETATM   56  N12 UNL     1      23.240  47.371  97.651  1.00  0.00    -0.332 NA
ATOM     57 2H12 UNL     1      23.595  48.317  97.511  1.00  0.00     0.173 HD
ATOM     58 1H12 UNL     1      23.681  46.903  98.443  1.00  0.00     0.173 HD
ENDBRANCH  52  56
ENDBRANCH  49  52
ENDBRANCH  43  49
BRANCH  44  59
HETATM   59  O7  UNL     1      20.540  45.087  97.649  1.00  0.00    -0.392 OA
ATOM     60  H7  UNL     1      21.162  45.711  97.293  1.00  0.00     0.210 HD
ENDBRANCH  44  59
ENDBRANCH  37  39
ENDBRANCH   7  37
TORSDOF 17
ENDMDL
