MODEL 1
REMARK VINA RESULT: -9.583884942      0.000      0.000
REMARK  14 active torsions:
REMARK  status: ('A' for Active; 'I' for Inactive)
REMARK    1  A    between atoms: C2_2  and  S1_3 
REMARK    2  A    between atoms: S1_3  and  N1_6 
REMARK    3  A    between atoms: N1_6  and  C3_8 
REMARK    4  A    between atoms: C3_8  and  C4_9 
REMARK    5  A    between atoms: C3_8  and  C5_14 
REMARK    6  A    between atoms: C4_9  and  N2_10 
REMARK       I    between atoms: C5_14  and  N3_16 
REMARK    7  A    between atoms: N3_16  and  N4_18 
REMARK       I    between atoms: N4_18  and  C6_20 
REMARK    8  A    between atoms: C6_20  and  C7_22 
REMARK       I    between atoms: C7_22  and  N5_24 
REMARK    9  A    between atoms: N5_24  and  C8_26 
REMARK   10  A    between atoms: C14_36  and  N7_37 
REMARK   11  A    between atoms: C15_42  and  N9_43 
REMARK   12  A    between atoms: C17_48  and  O8_49 
REMARK   13  A    between atoms: N11_51  and  C18_52 
REMARK   14  A    between atoms: C18_52  and  C19_53 
ROOT
HETATM    1  C8  UNL     1      17.529  38.911 103.752  1.00  0.00     0.179 C 
HETATM    2  C9  UNL     1      18.638  39.874 103.553  1.00  0.00     0.070 C 
HETATM    3  C10 UNL     1      18.839  40.483 102.237  1.00  0.00     0.186 C 
HETATM    4  C11 UNL     1      19.231  39.468 101.207  1.00  0.00     0.287 C 
HETATM    5  O6  UNL     1      19.231  38.264 101.470  1.00  0.00    -0.263 OA
HETATM    6  O7  UNL     1      19.616  39.806  99.908  1.00  0.00    -0.271 OA
HETATM    7  C12 UNL     1      19.740  41.088  99.335  1.00  0.00     0.147 A 
HETATM    8  C13 UNL     1      19.238  42.273  99.839  1.00  0.00     0.082 A 
HETATM    9  N6  UNL     1      19.461  43.399  99.146  1.00  0.00    -0.191 N 
ATOM     10  H6  UNL     1      19.095  44.280  99.509  1.00  0.00     0.184 HD
HETATM   11  C14 UNL     1      20.154  43.413  97.984  1.00  0.00     0.677 A 
HETATM   12  N8  UNL     1      20.657  42.253  97.471  1.00  0.00    -0.174 N 
ATOM     13  H8  UNL     1      21.180  42.251  96.595  1.00  0.00     0.186 HD
HETATM   14  C15 UNL     1      20.444  41.113  98.152  1.00  0.00     0.151 A 
HETATM   15  C16 UNL     1      18.456  42.557 101.066  1.00  0.00     0.182 C 
HETATM   16  N10 UNL     1      17.915  41.342 101.661  1.00  0.00    -0.352 N 
HETATM   17  C17 UNL     1      16.637  41.561 102.187  1.00  0.00     0.330 C 
HETATM   18  N11 UNL     1      15.848  40.361 102.375  1.00  0.00    -0.299 N 
HETATM   19  C20 UNL     1      16.232  39.270 103.192  1.00  0.00     0.246 C 
HETATM   20  O10 UNL     1      15.292  38.490 103.476  1.00  0.00    -0.271 OA
ENDROOT
BRANCH   1  21
HETATM   21  N5  UNL     1      17.344  38.779 105.194  1.00  0.00    -0.340 N 
HETATM   22  C7  UNL     1      17.648  37.586 105.907  1.00  0.00     0.311 C 
HETATM   23  O5  UNL     1      18.100  36.582 105.281  1.00  0.00    -0.262 OA
ATOM     24  H5  UNL     1      16.980  39.578 105.714  1.00  0.00     0.163 HD
BRANCH  22  25
HETATM   25  C6  UNL     1      17.465  37.463 107.338  1.00  0.00     0.327 C 
HETATM   26  N4  UNL     1      17.061  36.262 107.934  1.00  0.00    -0.259 N 
ATOM     27  H4  UNL     1      16.893  35.457 107.331  1.00  0.00     0.190 HD
HETATM   28  O4  UNL     1      17.684  38.494 108.058  1.00  0.00    -0.261 OA
BRANCH  26  29
HETATM   29  N3  UNL     1      16.875  36.104 109.316  1.00  0.00    -0.265 N 
HETATM   30  C5  UNL     1      17.909  35.853 110.212  1.00  0.00     0.261 C 
HETATM   31  O3  UNL     1      19.085  35.749 109.873  1.00  0.00    -0.269 OA
ATOM     32  H3  UNL     1      15.926  36.177 109.684  1.00  0.00     0.190 HD
BRANCH  30  33
HETATM   33  C3  UNL     1      17.573  35.702 111.693  1.00  0.00     0.211 C 
BRANCH  33  34
HETATM   34  N1  UNL     1      16.765  36.805 112.105  1.00  0.00    -0.304 N 
ATOM     35  H1  UNL     1      17.178  37.690 112.399  1.00  0.00     0.173 HD
BRANCH  34  36
HETATM   36  S1  UNL     1      15.090  36.571 112.081  1.00  0.00     0.227 S 
HETATM   37  O1  UNL     1      14.404  37.389 111.011  1.00  0.00    -0.206 OA
HETATM   38  O2  UNL     1      14.454  37.051 113.389  1.00  0.00    -0.206 OA
BRANCH  36  39
HETATM   39  C2  UNL     1      14.673  34.865 111.948  1.00  0.00     0.158 C 
HETATM   40  C1  UNL     1      13.860  34.547 110.725  1.00  0.00     0.023 C 
ENDBRANCH  36  39
ENDBRANCH  34  36
ENDBRANCH  33  34
BRANCH  33  41
HETATM   41  C4  UNL     1      18.822  35.477 112.460  1.00  0.00     0.264 C 
BRANCH  41  42
HETATM   42  N2  UNL     1      19.181  36.494 113.395  1.00  0.00    -0.077 N 
ATOM     43  H23 UNL     1      19.444  37.344 112.895  1.00  0.00     0.274 HD
ATOM     44  H22 UNL     1      18.348  36.819 113.887  1.00  0.00     0.274 HD
ATOM     45  H21 UNL     1      19.907  36.253 114.068  1.00  0.00     0.274 HD
ENDBRANCH  41  42
ENDBRANCH  33  41
ENDBRANCH  30  33
ENDBRANCH  26  29
ENDBRANCH  22  25
ENDBRANCH   1  21
BRANCH  18  46
HETATM   46  C18 UNL     1      14.583  40.199 101.711  1.00  0.00     0.229 C 
BRANCH  46  47
HETATM   47  C19 UNL     1      13.494  41.001 102.276  1.00  0.00     0.249 C 
HETATM   48  N12 UNL     1      12.671  40.500 103.315  1.00  0.00    -0.061 NA
HETATM   49  O9  UNL     1      13.267  42.156 101.845  1.00  0.00    -0.275 OA
ENDBRANCH  46  47
ENDBRANCH  18  46
BRANCH  17  50
HETATM   50  O8  UNL     1      16.619  42.387 103.331  1.00  0.00    -0.359 OA
ATOM     51  H8  UNL     1      16.558  41.912 104.151  1.00  0.00     0.214 HD
ENDBRANCH  17  50
BRANCH  14  52
HETATM   52  N9  UNL     1      20.901  40.001  97.703  1.00  0.00    -0.383 N 
ATOM     53  H92 UNL     1      21.045  39.215  98.337  1.00  0.00     0.157 HD
ATOM     54  H91 UNL     1      21.110  39.940  96.707  1.00  0.00     0.157 HD
ENDBRANCH  14  52
BRANCH  11  55
HETATM   55  N7  UNL     1      20.380  44.484  97.303  1.00  0.00    -0.234 N 
ATOM     56  H72 UNL     1      20.005  45.352  97.687  1.00  0.00     0.174 HD
ATOM     57  H71 UNL     1      20.901  44.494  96.427  1.00  0.00     0.174 HD
ENDBRANCH  11  55
TORSDOF 14
ENDMDL
MODEL 2
REMARK VINA RESULT: -9.549394170      1.200      1.404
REMARK  14 active torsions:
REMARK  status: ('A' for Active; 'I' for Inactive)
REMARK    1  A    between atoms: C2_2  and  S1_3 
REMARK    2  A    between atoms: S1_3  and  N1_6 
REMARK    3  A    between atoms: N1_6  and  C3_8 
REMARK    4  A    between atoms: C3_8  and  C4_9 
REMARK    5  A    between atoms: C3_8  and  C5_14 
REMARK    6  A    between atoms: C4_9  and  N2_10 
REMARK       I    between atoms: C5_14  and  N3_16 
REMARK    7  A    between atoms: N3_16  and  N4_18 
REMARK       I    between atoms: N4_18  and  C6_20 
REMARK    8  A    between atoms: C6_20  and  C7_22 
REMARK       I    between atoms: C7_22  and  N5_24 
REMARK    9  A    between atoms: N5_24  and  C8_26 
REMARK   10  A    between atoms: C14_36  and  N7_37 
REMARK   11  A    between atoms: C15_42  and  N9_43 
REMARK   12  A    between atoms: C17_48  and  O8_49 
REMARK   13  A    between atoms: N11_51  and  C18_52 
REMARK   14  A    between atoms: C18_52  and  C19_53 
ROOT
HETATM    1  C8  UNL     1      17.565  37.957 102.922  1.00  0.00     0.179 C 
HETATM    2  C9  UNL     1      18.757  38.838 102.951  1.00  0.00     0.070 C 
HETATM    3  C10 UNL     1      18.953  39.825 101.888  1.00  0.00     0.186 C 
HETATM    4  C11 UNL     1      19.184  39.173 100.558  1.00  0.00     0.287 C 
HETATM    5  O6  UNL     1      19.071  37.954 100.421  1.00  0.00    -0.263 OA
HETATM    6  O7  UNL     1      19.535  39.884  99.408  1.00  0.00    -0.271 OA
HETATM    7  C12 UNL     1      19.764  41.268  99.268  1.00  0.00     0.147 A 
HETATM    8  C13 UNL     1      19.414  42.261 100.164  1.00  0.00     0.082 A 
HETATM    9  N6  UNL     1      19.719  43.529  99.853  1.00  0.00    -0.191 N 
ATOM     10  H6  UNL     1      19.466  44.270 100.507  1.00  0.00     0.184 HD
HETATM   11  C14 UNL     1      20.350  43.864  98.703  1.00  0.00     0.677 A 
HETATM   12  N8  UNL     1      20.702  42.898  97.807  1.00  0.00    -0.174 N 
ATOM     13  H8  UNL     1      21.176  43.139  96.937  1.00  0.00     0.186 HD
HETATM   14  C15 UNL     1      20.405  41.620  98.102  1.00  0.00     0.151 A 
HETATM   15  C16 UNL     1      18.730  42.191 101.478  1.00  0.00     0.182 C 
HETATM   16  N10 UNL     1      18.096  40.898 101.695  1.00  0.00    -0.352 N 
HETATM   17  C17 UNL     1      16.877  41.037 102.366  1.00  0.00     0.330 C 
HETATM   18  N11 UNL     1      15.977  39.912 102.224  1.00  0.00    -0.299 N 
HETATM   19  C20 UNL     1      16.286  38.586 102.615  1.00  0.00     0.246 C 
HETATM   20  O10 UNL     1      15.284  37.836 102.710  1.00  0.00    -0.271 OA
ENDROOT
BRANCH   1  21
HETATM   21  N5  UNL     1      17.441  37.378 104.255  1.00  0.00    -0.340 N 
HETATM   22  C7  UNL     1      17.994  36.115 104.604  1.00  0.00     0.311 C 
HETATM   23  O5  UNL     1      18.625  35.448 103.733  1.00  0.00    -0.262 OA
ATOM     24  H5  UNL     1      16.934  37.902 104.970  1.00  0.00     0.163 HD
BRANCH  22  25
HETATM   25  C6  UNL     1      17.870  35.546 105.930  1.00  0.00     0.327 C 
HETATM   26  N4  UNL     1      17.217  36.221 106.969  1.00  0.00    -0.259 N 
ATOM     27  H4  UNL     1      16.823  37.141 106.773  1.00  0.00     0.190 HD
HETATM   28  O4  UNL     1      18.379  34.393 106.134  1.00  0.00    -0.261 OA
BRANCH  26  29
HETATM   29  N3  UNL     1      17.076  35.702 108.265  1.00  0.00    -0.265 N 
HETATM   30  C5  UNL     1      17.381  36.414 109.421  1.00  0.00     0.261 C 
HETATM   31  O3  UNL     1      17.803  37.568 109.410  1.00  0.00    -0.269 OA
ATOM     32  H3  UNL     1      16.728  34.749 108.366  1.00  0.00     0.190 HD
BRANCH  30  33
HETATM   33  C3  UNL     1      17.182  35.735 110.773  1.00  0.00     0.211 C 
BRANCH  33  34
HETATM   34  N1  UNL     1      16.724  36.701 111.719  1.00  0.00    -0.304 N 
ATOM     35  H1  UNL     1      17.369  37.192 112.339  1.00  0.00     0.173 HD
BRANCH  34  36
HETATM   36  S1  UNL     1      15.058  36.993 111.761  1.00  0.00     0.227 S 
HETATM   37  O1  UNL     1      14.706  38.410 111.368  1.00  0.00    -0.206 OA
HETATM   38  O2  UNL     1      14.515  36.850 113.186  1.00  0.00    -0.206 OA
BRANCH  36  39
HETATM   39  C2  UNL     1      14.168  35.821 110.793  1.00  0.00     0.158 C 
HETATM   40  C1  UNL     1      13.675  36.382 109.488  1.00  0.00     0.023 C 
ENDBRANCH  36  39
ENDBRANCH  34  36
ENDBRANCH  33  34
BRANCH  33  41
HETATM   41  C4  UNL     1      18.413  34.991 111.135  1.00  0.00     0.264 C 
BRANCH  41  42
HETATM   42  N2  UNL     1      19.603  35.364 110.443  1.00  0.00    -0.077 N 
ATOM     43  H23 UNL     1      20.405  34.883 110.851  1.00  0.00     0.274 HD
ATOM     44  H22 UNL     1      19.599  34.957 109.507  1.00  0.00     0.274 HD
ATOM     45  H21 UNL     1      19.797  36.363 110.382  1.00  0.00     0.274 HD
ENDBRANCH  41  42
ENDBRANCH  33  41
ENDBRANCH  30  33
ENDBRANCH  26  29
ENDBRANCH  22  25
ENDBRANCH   1  21
BRANCH  18  46
HETATM   46  C18 UNL     1      14.669  40.080 101.650  1.00  0.00     0.229 C 
BRANCH  46  47
HETATM   47  C19 UNL     1      13.810  41.028 102.364  1.00  0.00     0.249 C 
HETATM   48  N12 UNL     1      13.642  40.958 103.769  1.00  0.00    -0.061 NA
HETATM   49  O9  UNL     1      13.201  41.928 101.739  1.00  0.00    -0.275 OA
ENDBRANCH  46  47
ENDBRANCH  18  46
BRANCH  17  50
HETATM   50  O8  UNL     1      17.003  41.443 103.712  1.00  0.00    -0.359 OA
ATOM     51  H8  UNL     1      16.397  41.015 104.305  1.00  0.00     0.214 HD
ENDBRANCH  17  50
BRANCH  14  52
HETATM   52  N9  UNL     1      20.720  40.682  97.285  1.00  0.00    -0.383 N 
ATOM     53  H92 UNL     1      20.544  39.708  97.532  1.00  0.00     0.157 HD
ATOM     54  H91 UNL     1      21.145  40.947  96.397  1.00  0.00     0.157 HD
ENDBRANCH  14  52
BRANCH  11  55
HETATM   55  N7  UNL     1      20.651  45.077  98.385  1.00  0.00    -0.234 N 
ATOM     56  H72 UNL     1      20.494  45.785  99.102  1.00  0.00     0.174 HD
ATOM     57  H71 UNL     1      21.028  45.342  97.475  1.00  0.00     0.174 HD
ENDBRANCH  11  55
TORSDOF 14
ENDMDL
MODEL 3
REMARK VINA RESULT: -9.453935044      1.384      2.202
REMARK  14 active torsions:
REMARK  status: ('A' for Active; 'I' for Inactive)
REMARK    1  A    between atoms: C2_2  and  S1_3 
REMARK    2  A    between atoms: S1_3  and  N1_6 
REMARK    3  A    between atoms: N1_6  and  C3_8 
REMARK    4  A    between atoms: C3_8  and  C4_9 
REMARK    5  A    between atoms: C3_8  and  C5_14 
REMARK    6  A    between atoms: C4_9  and  N2_10 
REMARK       I    between atoms: C5_14  and  N3_16 
REMARK    7  A    between atoms: N3_16  and  N4_18 
REMARK       I    between atoms: N4_18  and  C6_20 
REMARK    8  A    between atoms: C6_20  and  C7_22 
REMARK       I    between atoms: C7_22  and  N5_24 
REMARK    9  A    between atoms: N5_24  and  C8_26 
REMARK   10  A    between atoms: C14_36  and  N7_37 
REMARK   11  A    between atoms: C15_42  and  N9_43 
REMARK   12  A    between atoms: C17_48  and  O8_49 
REMARK   13  A    between atoms: N11_51  and  C18_52 
REMARK   14  A    between atoms: C18_52  and  C19_53 
ROOT
HETATM    1  C8  UNL     1      17.545  38.373 103.561  1.00  0.00     0.179 C 
HETATM    2  C9  UNL     1      18.670  39.336 103.481  1.00  0.00     0.070 C 
HETATM    3  C10 UNL     1      18.873  40.110 102.255  1.00  0.00     0.186 C 
HETATM    4  C11 UNL     1      19.240  39.234 101.096  1.00  0.00     0.287 C 
HETATM    5  O6  UNL     1      19.221  38.006 101.197  1.00  0.00    -0.263 OA
HETATM    6  O7  UNL     1      19.622  39.735  99.850  1.00  0.00    -0.271 OA
HETATM    7  C12 UNL     1      19.765  41.079  99.450  1.00  0.00     0.147 A 
HETATM    8  C13 UNL     1      19.287  42.195 100.111  1.00  0.00     0.082 A 
HETATM    9  N6  UNL     1      19.526  43.400  99.572  1.00  0.00    -0.191 N 
ATOM     10  H6  UNL     1      19.178  44.230 100.051  1.00  0.00     0.184 HD
HETATM   11  C14 UNL     1      20.212  43.555  98.416  1.00  0.00     0.677 A 
HETATM   12  N8  UNL     1      20.690  42.465  97.749  1.00  0.00    -0.174 N 
ATOM     13  H8  UNL     1      21.207  42.571  96.876  1.00  0.00     0.186 HD
HETATM   14  C15 UNL     1      20.461  41.249  98.275  1.00  0.00     0.151 A 
HETATM   15  C16 UNL     1      18.519  42.327 101.372  1.00  0.00     0.182 C 
HETATM   16  N10 UNL     1      17.960  41.054 101.806  1.00  0.00    -0.352 N 
HETATM   17  C17 UNL     1      16.690  41.222 102.368  1.00  0.00     0.330 C 
HETATM   18  N11 UNL     1      15.881  40.021 102.402  1.00  0.00    -0.299 N 
HETATM   19  C20 UNL     1      16.251  38.825 103.065  1.00  0.00     0.246 C 
HETATM   20  O10 UNL     1      15.299  38.030 103.251  1.00  0.00    -0.271 OA
ENDROOT
BRANCH   1  21
HETATM   21  N5  UNL     1      17.368  38.054 104.974  1.00  0.00    -0.340 N 
HETATM   22  C7  UNL     1      17.812  36.833 105.553  1.00  0.00     0.311 C 
HETATM   23  O5  UNL     1      18.388  35.971 104.827  1.00  0.00    -0.262 OA
ATOM     24  H5  UNL     1      16.904  38.738 105.573  1.00  0.00     0.163 HD
BRANCH  22  25
HETATM   25  C6  UNL     1      17.635  36.524 106.956  1.00  0.00     0.327 C 
HETATM   26  N4  UNL     1      16.874  35.430 107.386  1.00  0.00    -0.259 N 
ATOM     27  H4  UNL     1      16.435  34.841 106.678  1.00  0.00     0.190 HD
HETATM   28  O4  UNL     1      18.199  37.288 107.811  1.00  0.00    -0.261 OA
BRANCH  26  29
HETATM   29  N3  UNL     1      16.681  35.098 108.736  1.00  0.00    -0.265 N 
HETATM   30  C5  UNL     1      15.702  35.671 109.541  1.00  0.00     0.261 C 
HETATM   31  O3  UNL     1      14.912  36.522 109.139  1.00  0.00    -0.269 OA
ATOM     32  H3  UNL     1      17.294  34.397 109.151  1.00  0.00     0.190 HD
BRANCH  30  33
HETATM   33  C3  UNL     1      15.595  35.223 110.995  1.00  0.00     0.211 C 
BRANCH  33  34
HETATM   34  N1  UNL     1      16.798  34.548 111.366  1.00  0.00    -0.304 N 
ATOM     35  H1  UNL     1      16.964  33.574 111.114  1.00  0.00     0.173 HD
BRANCH  34  36
HETATM   36  S1  UNL     1      17.933  35.444 112.245  1.00  0.00     0.227 S 
HETATM   37  O1  UNL     1      19.298  35.449 111.596  1.00  0.00    -0.206 OA
HETATM   38  O2  UNL     1      18.172  34.820 113.622  1.00  0.00    -0.206 OA
BRANCH  36  39
HETATM   39  C2  UNL     1      17.366  37.083 112.556  1.00  0.00     0.158 C 
HETATM   40  C1  UNL     1      16.548  37.198 113.812  1.00  0.00     0.023 C 
ENDBRANCH  36  39
ENDBRANCH  34  36
ENDBRANCH  33  34
BRANCH  33  41
HETATM   41  C4  UNL     1      14.332  34.470 111.186  1.00  0.00     0.264 C 
BRANCH  41  42
HETATM   42  N2  UNL     1      13.604  34.148 110.002  1.00  0.00    -0.077 N 
ATOM     43  H23 UNL     1      13.516  34.977 109.416  1.00  0.00     0.274 HD
ATOM     44  H22 UNL     1      14.173  33.553 109.400  1.00  0.00     0.274 HD
ATOM     45  H21 UNL     1      12.686  33.723 110.138  1.00  0.00     0.274 HD
ENDBRANCH  41  42
ENDBRANCH  33  41
ENDBRANCH  30  33
ENDBRANCH  26  29
ENDBRANCH  22  25
ENDBRANCH   1  21
BRANCH  18  46
HETATM   46  C18 UNL     1      14.609  39.969 101.735  1.00  0.00     0.229 C 
BRANCH  46  47
HETATM   47  C19 UNL     1      13.591  40.861 102.297  1.00  0.00     0.249 C 
HETATM   48  N12 UNL     1      12.889  40.526 103.482  1.00  0.00    -0.061 NA
HETATM   49  O9  UNL     1      13.319  41.948 101.735  1.00  0.00    -0.275 OA
ENDBRANCH  46  47
ENDBRANCH  18  46
BRANCH  17  50
HETATM   50  O8  UNL     1      16.694  41.889 103.611  1.00  0.00    -0.359 OA
ATOM     51  H8  UNL     1      16.007  41.608 104.204  1.00  0.00     0.214 HD
ENDBRANCH  17  50
BRANCH  14  52
HETATM   52  N9  UNL     1      20.896  40.199  97.679  1.00  0.00    -0.383 N 
ATOM     53  H92 UNL     1      20.970  39.317  98.186  1.00  0.00     0.157 HD
ATOM     54  H91 UNL     1      21.158  40.283  96.697  1.00  0.00     0.157 HD
ENDBRANCH  14  52
BRANCH  11  55
HETATM   55  N7  UNL     1      20.452  44.704  97.881  1.00  0.00    -0.234 N 
ATOM     56  H72 UNL     1      20.086  45.518  98.374  1.00  0.00     0.174 HD
ATOM     57  H71 UNL     1      20.975  44.821  97.013  1.00  0.00     0.174 HD
ENDBRANCH  11  55
TORSDOF 14
ENDMDL
MODEL 4
REMARK VINA RESULT: -9.427299387      1.317      2.108
REMARK  14 active torsions:
REMARK  status: ('A' for Active; 'I' for Inactive)
REMARK    1  A    between atoms: C2_2  and  S1_3 
REMARK    2  A    between atoms: S1_3  and  N1_6 
REMARK    3  A    between atoms: N1_6  and  C3_8 
REMARK    4  A    between atoms: C3_8  and  C4_9 
REMARK    5  A    between atoms: C3_8  and  C5_14 
REMARK    6  A    between atoms: C4_9  and  N2_10 
REMARK       I    between atoms: C5_14  and  N3_16 
REMARK    7  A    between atoms: N3_16  and  N4_18 
REMARK       I    between atoms: N4_18  and  C6_20 
REMARK    8  A    between atoms: C6_20  and  C7_22 
REMARK       I    between atoms: C7_22  and  N5_24 
REMARK    9  A    between atoms: N5_24  and  C8_26 
REMARK   10  A    between atoms: C14_36  and  N7_37 
REMARK   11  A    between atoms: C15_42  and  N9_43 
REMARK   12  A    between atoms: C17_48  and  O8_49 
REMARK   13  A    between atoms: N11_51  and  C18_52 
REMARK   14  A    between atoms: C18_52  and  C19_53 
ROOT
HETATM    1  C8  UNL     1      17.575  38.969 103.762  1.00  0.00     0.179 C 
HETATM    2  C9  UNL     1      18.686  39.924 103.528  1.00  0.00     0.070 C 
HETATM    3  C10 UNL     1      18.874  40.502 102.197  1.00  0.00     0.186 C 
HETATM    4  C11 UNL     1      19.251  39.462 101.185  1.00  0.00     0.287 C 
HETATM    5  O6  UNL     1      19.249  38.265 101.475  1.00  0.00    -0.263 OA
HETATM    6  O7  UNL     1      19.622  39.769  99.875  1.00  0.00    -0.271 OA
HETATM    7  C12 UNL     1      19.745  41.037  99.271  1.00  0.00     0.147 A 
HETATM    8  C13 UNL     1      19.252  42.236  99.754  1.00  0.00     0.082 A 
HETATM    9  N6  UNL     1      19.473  43.345  99.034  1.00  0.00    -0.191 N 
ATOM     10  H6  UNL     1      19.114  44.235  99.381  1.00  0.00     0.184 HD
HETATM   11  C14 UNL     1      20.153  43.330  97.864  1.00  0.00     0.677 A 
HETATM   12  N8  UNL     1      20.645  42.157  97.372  1.00  0.00    -0.174 N 
ATOM     13  H8  UNL     1      21.158  42.133  96.491  1.00  0.00     0.186 HD
HETATM   14  C15 UNL     1      20.435  41.033  98.081  1.00  0.00     0.151 A 
HETATM   15  C16 UNL     1      18.486  42.550 100.983  1.00  0.00     0.182 C 
HETATM   16  N10 UNL     1      17.947  41.352 101.612  1.00  0.00    -0.352 N 
HETATM   17  C17 UNL     1      16.676  41.587 102.147  1.00  0.00     0.330 C 
HETATM   18  N11 UNL     1      15.884  40.395 102.370  1.00  0.00    -0.299 N 
HETATM   19  C20 UNL     1      16.273  39.322 103.208  1.00  0.00     0.246 C 
HETATM   20  O10 UNL     1      15.333  38.552 103.520  1.00  0.00    -0.271 OA
ENDROOT
BRANCH   1  21
HETATM   21  N5  UNL     1      17.406  38.871 105.208  1.00  0.00    -0.340 N 
HETATM   22  C7  UNL     1      17.626  37.666 105.932  1.00  0.00     0.311 C 
HETATM   23  O5  UNL     1      17.983  36.622 105.312  1.00  0.00    -0.262 OA
ATOM     24  H5  UNL     1      17.117  39.703 105.723  1.00  0.00     0.163 HD
BRANCH  22  25
HETATM   25  C6  UNL     1      17.459  37.576 107.367  1.00  0.00     0.327 C 
HETATM   26  N4  UNL     1      16.941  36.430 107.984  1.00  0.00    -0.259 N 
ATOM     27  H4  UNL     1      16.677  35.642 107.393  1.00  0.00     0.190 HD
HETATM   28  O4  UNL     1      17.800  38.585 108.072  1.00  0.00    -0.261 OA
BRANCH  26  29
HETATM   29  N3  UNL     1      16.766  36.305 109.371  1.00  0.00    -0.265 N 
HETATM   30  C5  UNL     1      15.588  36.631 110.034  1.00  0.00     0.261 C 
HETATM   31  O3  UNL     1      14.588  37.058 109.462  1.00  0.00    -0.269 OA
ATOM     32  H3  UNL     1      17.548  35.954 109.924  1.00  0.00     0.190 HD
BRANCH  30  33
HETATM   33  C3  UNL     1      15.525  36.448 111.548  1.00  0.00     0.211 C 
BRANCH  33  34
HETATM   34  N1  UNL     1      15.583  35.055 111.854  1.00  0.00    -0.304 N 
ATOM     35  H1  UNL     1      14.751  34.465 111.820  1.00  0.00     0.173 HD
BRANCH  34  36
HETATM   36  S1  UNL     1      17.097  34.431 112.275  1.00  0.00     0.227 S 
HETATM   37  O1  UNL     1      17.986  34.200 111.074  1.00  0.00    -0.206 OA
HETATM   38  O2  UNL     1      16.958  33.046 112.913  1.00  0.00    -0.206 OA
BRANCH  36  39
HETATM   39  C2  UNL     1      17.900  35.432 113.482  1.00  0.00     0.158 C 
HETATM   40  C1  UNL     1      19.159  36.078 112.973  1.00  0.00     0.023 C 
ENDBRANCH  36  39
ENDBRANCH  34  36
ENDBRANCH  33  34
BRANCH  33  41
HETATM   41  C4  UNL     1      14.361  37.193 112.085  1.00  0.00     0.264 C 
BRANCH  41  42
HETATM   42  N2  UNL     1      14.530  38.602 112.241  1.00  0.00    -0.077 N 
ATOM     43  H23 UNL     1      13.617  39.053 112.306  1.00  0.00     0.274 HD
ATOM     44  H22 UNL     1      14.902  38.803 113.169  1.00  0.00     0.274 HD
ATOM     45  H21 UNL     1      15.095  39.070 111.534  1.00  0.00     0.274 HD
ENDBRANCH  41  42
ENDBRANCH  33  41
ENDBRANCH  30  33
ENDBRANCH  26  29
ENDBRANCH  22  25
ENDBRANCH   1  21
BRANCH  18  46
HETATM   46  C18 UNL     1      14.611  40.224 101.725  1.00  0.00     0.229 C 
BRANCH  46  47
HETATM   47  C19 UNL     1      13.533  41.047 102.280  1.00  0.00     0.249 C 
HETATM   48  N12 UNL     1      12.808  40.640 103.427  1.00  0.00    -0.061 NA
HETATM   49  O9  UNL     1      13.228  42.138 101.743  1.00  0.00    -0.275 OA
ENDBRANCH  46  47
ENDBRANCH  18  46
BRANCH  17  50
HETATM   50  O8  UNL     1      16.674  42.439 103.272  1.00  0.00    -0.359 OA
ATOM     51  H8  UNL     1      16.311  43.301 103.105  1.00  0.00     0.214 HD
ENDBRANCH  17  50
BRANCH  14  52
HETATM   52  N9  UNL     1      20.883  39.909  97.652  1.00  0.00    -0.383 N 
ATOM     53  H92 UNL     1      20.846  39.084  98.249  1.00  0.00     0.157 HD
ATOM     54  H91 UNL     1      21.269  39.880  96.709  1.00  0.00     0.157 HD
ENDBRANCH  14  52
BRANCH  11  55
HETATM   55  N7  UNL     1      20.375  44.385  97.157  1.00  0.00    -0.234 N 
ATOM     56  H72 UNL     1      20.490  45.258  97.671  1.00  0.00     0.174 HD
ATOM     57  H71 UNL     1      20.437  44.376  96.139  1.00  0.00     0.174 HD
ENDBRANCH  11  55
TORSDOF 14
ENDMDL
MODEL 5
REMARK VINA RESULT: -9.385395538      1.415      1.756
REMARK  14 active torsions:
REMARK  status: ('A' for Active; 'I' for Inactive)
REMARK    1  A    between atoms: C2_2  and  S1_3 
REMARK    2  A    between atoms: S1_3  and  N1_6 
REMARK    3  A    between atoms: N1_6  and  C3_8 
REMARK    4  A    between atoms: C3_8  and  C4_9 
REMARK    5  A    between atoms: C3_8  and  C5_14 
REMARK    6  A    between atoms: C4_9  and  N2_10 
REMARK       I    between atoms: C5_14  and  N3_16 
REMARK    7  A    between atoms: N3_16  and  N4_18 
REMARK       I    between atoms: N4_18  and  C6_20 
REMARK    8  A    between atoms: C6_20  and  C7_22 
REMARK       I    between atoms: C7_22  and  N5_24 
REMARK    9  A    between atoms: N5_24  and  C8_26 
REMARK   10  A    between atoms: C14_36  and  N7_37 
REMARK   11  A    between atoms: C15_42  and  N9_43 
REMARK   12  A    between atoms: C17_48  and  O8_49 
REMARK   13  A    between atoms: N11_51  and  C18_52 
REMARK   14  A    between atoms: C18_52  and  C19_53 
ROOT
HETATM    1  C8  UNL     1      17.452  38.002 102.811  1.00  0.00     0.179 C 
HETATM    2  C9  UNL     1      18.665  38.853 102.851  1.00  0.00     0.070 C 
HETATM    3  C10 UNL     1      18.875  39.862 101.811  1.00  0.00     0.186 C 
HETATM    4  C11 UNL     1      19.078  39.239 100.463  1.00  0.00     0.287 C 
HETATM    5  O6  UNL     1      18.934  38.027 100.296  1.00  0.00    -0.263 OA
HETATM    6  O7  UNL     1      19.435  39.971  99.329  1.00  0.00    -0.271 OA
HETATM    7  C12 UNL     1      19.695  41.352  99.221  1.00  0.00     0.147 A 
HETATM    8  C13 UNL     1      19.379  42.330 100.147  1.00  0.00     0.082 A 
HETATM    9  N6  UNL     1      19.711  43.598  99.864  1.00  0.00    -0.191 N 
ATOM     10  H6  UNL     1      19.482  44.327 100.540  1.00  0.00     0.184 HD
HETATM   11  C14 UNL     1      20.338  43.947  98.718  1.00  0.00     0.677 A 
HETATM   12  N8  UNL     1      20.658  42.997  97.793  1.00  0.00    -0.174 N 
ATOM     13  H8  UNL     1      21.130  43.249  96.925  1.00  0.00     0.186 HD
HETATM   14  C15 UNL     1      20.334  41.719  98.058  1.00  0.00     0.151 A 
HETATM   15  C16 UNL     1      18.706  42.243 101.465  1.00  0.00     0.182 C 
HETATM   16  N10 UNL     1      18.043  40.960 101.655  1.00  0.00    -0.352 N 
HETATM   17  C17 UNL     1      16.834  41.111 102.343  1.00  0.00     0.330 C 
HETATM   18  N11 UNL     1      15.905  40.011 102.180  1.00  0.00    -0.299 N 
HETATM   19  C20 UNL     1      16.186  38.669 102.534  1.00  0.00     0.246 C 
HETATM   20  O10 UNL     1      15.168  37.941 102.620  1.00  0.00    -0.271 OA
ENDROOT
BRANCH   1  21
HETATM   21  N5  UNL     1      17.327  37.391 104.131  1.00  0.00    -0.340 N 
HETATM   22  C7  UNL     1      17.963  36.167 104.480  1.00  0.00     0.311 C 
HETATM   23  O5  UNL     1      18.673  35.565 103.622  1.00  0.00    -0.262 OA
ATOM     24  H5  UNL     1      16.758  37.862 104.835  1.00  0.00     0.163 HD
BRANCH  22  25
HETATM   25  C6  UNL     1      17.837  35.568 105.792  1.00  0.00     0.327 C 
HETATM   26  N4  UNL     1      17.152  36.202 106.836  1.00  0.00    -0.259 N 
ATOM     27  H4  UNL     1      16.735  37.115 106.654  1.00  0.00     0.190 HD
HETATM   28  O4  UNL     1      18.375  34.425 105.979  1.00  0.00    -0.261 OA
BRANCH  26  29
HETATM   29  N3  UNL     1      17.008  35.652 108.119  1.00  0.00    -0.265 N 
HETATM   30  C5  UNL     1      17.280  36.347 109.293  1.00  0.00     0.261 C 
HETATM   31  O3  UNL     1      17.672  37.512 109.312  1.00  0.00    -0.269 OA
ATOM     32  H3  UNL     1      16.685  34.688 108.195  1.00  0.00     0.190 HD
BRANCH  30  33
HETATM   33  C3  UNL     1      17.082  35.634 110.628  1.00  0.00     0.211 C 
BRANCH  33  34
HETATM   34  N1  UNL     1      16.600  36.571 111.592  1.00  0.00    -0.304 N 
ATOM     35  H1  UNL     1      17.233  37.189 112.101  1.00  0.00     0.173 HD
BRANCH  34  36
HETATM   36  S1  UNL     1      14.929  36.608 111.848  1.00  0.00     0.227 S 
HETATM   37  O1  UNL     1      14.382  35.276 112.307  1.00  0.00    -0.206 OA
HETATM   38  O2  UNL     1      14.183  36.892 110.541  1.00  0.00    -0.206 OA
BRANCH  36  39
HETATM   39  C2  UNL     1      14.468  37.903 112.950  1.00  0.00     0.158 C 
HETATM   40  C1  UNL     1      15.604  38.379 113.812  1.00  0.00     0.023 C 
ENDBRANCH  36  39
ENDBRANCH  34  36
ENDBRANCH  33  34
BRANCH  33  41
HETATM   41  C4  UNL     1      18.322  34.902 110.983  1.00  0.00     0.264 C 
BRANCH  41  42
HETATM   42  N2  UNL     1      19.533  35.398 110.414  1.00  0.00    -0.077 N 
ATOM     43  H23 UNL     1      20.261  34.687 110.481  1.00  0.00     0.274 HD
ATOM     44  H22 UNL     1      19.434  35.466 109.401  1.00  0.00     0.274 HD
ATOM     45  H21 UNL     1      19.879  36.281 110.787  1.00  0.00     0.274 HD
ENDBRANCH  41  42
ENDBRANCH  33  41
ENDBRANCH  30  33
ENDBRANCH  26  29
ENDBRANCH  22  25
ENDBRANCH   1  21
BRANCH  18  46
HETATM   46  C18 UNL     1      14.597  40.225 101.624  1.00  0.00     0.229 C 
BRANCH  46  47
HETATM   47  C19 UNL     1      13.753  41.144 102.393  1.00  0.00     0.249 C 
HETATM   48  N12 UNL     1      13.646  41.044 103.803  1.00  0.00    -0.061 NA
HETATM   49  O9  UNL     1      13.103  42.045 101.813  1.00  0.00    -0.275 OA
ENDBRANCH  46  47
ENDBRANCH  18  46
BRANCH  17  50
HETATM   50  O8  UNL     1      16.983  41.478 103.697  1.00  0.00    -0.359 OA
ATOM     51  H8  UNL     1      16.330  42.095 104.005  1.00  0.00     0.214 HD
ENDBRANCH  17  50
BRANCH  14  52
HETATM   52  N9  UNL     1      20.618  40.795  97.214  1.00  0.00    -0.383 N 
ATOM     53  H92 UNL     1      19.964  40.029  97.055  1.00  0.00     0.157 HD
ATOM     54  H91 UNL     1      21.507  40.859  96.720  1.00  0.00     0.157 HD
ENDBRANCH  14  52
BRANCH  11  55
HETATM   55  N7  UNL     1      20.666  45.160  98.428  1.00  0.00    -0.234 N 
ATOM     56  H72 UNL     1      20.883  45.771  99.216  1.00  0.00     0.174 HD
ATOM     57  H71 UNL     1      20.714  45.517  97.474  1.00  0.00     0.174 HD
ENDBRANCH  11  55
TORSDOF 14
ENDMDL
