MODEL 1
REMARK VINA RESULT: -7.604986999      0.000      0.000
REMARK  0 active torsions:
REMARK  status: ('A' for Active; 'I' for Inactive)
ROOT
HETATM    1  C1  UNL     1      14.278 -50.174 -10.403  1.00  0.00     0.043 C 
HETATM    2  C2  UNL     1      13.225 -49.697 -11.328  1.00  0.00    -0.083 C 
HETATM    3  C3  UNL     1      11.913 -50.391 -11.347  1.00  0.00     0.043 C 
HETATM    4  C4  UNL     1      13.450 -48.674 -12.121  1.00  0.00    -0.047 C 
HETATM    5  C5  UNL     1      14.726 -47.914 -12.178  1.00  0.00     0.268 C 
HETATM    6  N1  UNL     1      14.372 -46.604 -12.680  1.00  0.00    -0.062 N 
ATOM      7  H11 UNL     1      15.151 -46.110 -13.115  1.00  0.00     0.278 HD
ATOM      8  H12 UNL     1      14.190 -45.920 -11.944  1.00  0.00     0.278 HD
HETATM    9  C6  UNL     1      13.233 -46.812 -13.581  1.00  0.00     0.133 C 
HETATM   10  C7  UNL     1      13.794 -46.924 -14.978  1.00  0.00     0.042 C 
HETATM   11  C8  UNL     1      14.715 -45.730 -15.177  1.00  0.00     0.040 C 
HETATM   12  C9  UNL     1      13.911 -44.430 -15.151  1.00  0.00     0.061 C 
HETATM   13  C10 UNL     1      13.872 -43.936 -16.584  1.00  0.00     0.038 C 
HETATM   14  C11 UNL     1      13.232 -42.596 -16.646  1.00  0.00     0.005 C 
HETATM   15  C12 UNL     1      13.588 -41.670 -15.537  1.00  0.00     0.026 C 
HETATM   16  C13 UNL     1      14.173 -42.264 -14.334  1.00  0.00     0.168 C 
HETATM   17  O1  UNL     1      14.592 -43.552 -14.370  1.00  0.00    -0.380 OA
HETATM   18  C14 UNL     1      12.498 -44.696 -14.721  1.00  0.00     0.040 C 
HETATM   19  C15 UNL     1      12.390 -45.581 -13.514  1.00  0.00     0.042 C 
HETATM   20  C16 UNL     1      12.534 -48.044 -13.115  1.00  0.00     0.048 C 
HETATM   21  C17 UNL     1      12.149 -48.994 -14.197  1.00  0.00     0.017 C 
ENDROOT
TORSDOF 0
ENDMDL
MODEL 2
REMARK VINA RESULT: -7.441912844      2.262      3.274
REMARK  0 active torsions:
REMARK  status: ('A' for Active; 'I' for Inactive)
ROOT
HETATM    1  C1  UNL     1      11.212 -50.710 -15.882  1.00  0.00     0.043 C 
HETATM    2  C2  UNL     1      12.526 -50.039 -15.757  1.00  0.00    -0.083 C 
HETATM    3  C3  UNL     1      13.764 -50.839 -15.940  1.00  0.00     0.043 C 
HETATM    4  C4  UNL     1      12.596 -48.755 -15.488  1.00  0.00    -0.047 C 
HETATM    5  C5  UNL     1      11.419 -47.870 -15.287  1.00  0.00     0.268 C 
HETATM    6  N1  UNL     1      11.881 -46.536 -15.605  1.00  0.00    -0.062 N 
ATOM      7  H11 UNL     1      11.326 -45.798 -15.173  1.00  0.00     0.278 HD
ATOM      8  H12 UNL     1      11.712 -46.266 -16.574  1.00  0.00     0.278 HD
HETATM    9  C6  UNL     1      13.298 -46.501 -15.226  1.00  0.00     0.133 C 
HETATM   10  C7  UNL     1      13.366 -45.925 -13.832  1.00  0.00     0.042 C 
HETATM   11  C8  UNL     1      12.548 -44.642 -13.849  1.00  0.00     0.040 C 
HETATM   12  C9  UNL     1      13.206 -43.607 -14.762  1.00  0.00     0.061 C 
HETATM   13  C10 UNL     1      13.804 -42.560 -13.842  1.00  0.00     0.038 C 
HETATM   14  C11 UNL     1      14.345 -41.428 -14.639  1.00  0.00     0.005 C 
HETATM   15  C12 UNL     1      13.520 -41.024 -15.809  1.00  0.00     0.026 C 
HETATM   16  C13 UNL     1      12.525 -41.983 -16.288  1.00  0.00     0.168 C 
HETATM   17  O1  UNL     1      12.221 -43.058 -15.521  1.00  0.00    -0.380 OA
HETATM   18  C14 UNL     1      14.329 -44.230 -15.537  1.00  0.00     0.040 C 
HETATM   19  C15 UNL     1      13.978 -45.550 -16.157  1.00  0.00     0.042 C 
HETATM   20  C16 UNL     1      13.806 -47.900 -15.322  1.00  0.00     0.048 C 
HETATM   21  C17 UNL     1      14.647 -48.342 -14.174  1.00  0.00     0.017 C 
ENDROOT
TORSDOF 0
ENDMDL
MODEL 3
REMARK VINA RESULT: -7.303853629      1.133      1.378
REMARK  0 active torsions:
REMARK  status: ('A' for Active; 'I' for Inactive)
ROOT
HETATM    1  C1  UNL     1      14.051 -50.489  -9.657  1.00  0.00     0.043 C 
HETATM    2  C2  UNL     1      13.175 -50.372 -10.846  1.00  0.00    -0.083 C 
HETATM    3  C3  UNL     1      11.993 -51.263 -10.961  1.00  0.00     0.043 C 
HETATM    4  C4  UNL     1      13.441 -49.493 -11.785  1.00  0.00    -0.047 C 
HETATM    5  C5  UNL     1      14.596 -48.558 -11.763  1.00  0.00     0.268 C 
HETATM    6  N1  UNL     1      14.204 -47.440 -12.594  1.00  0.00    -0.062 N 
ATOM      7  H11 UNL     1      14.993 -46.916 -12.971  1.00  0.00     0.278 HD
ATOM      8  H12 UNL     1      13.783 -46.671 -12.072  1.00  0.00     0.278 HD
HETATM    9  C6  UNL     1      13.323 -47.998 -13.627  1.00  0.00     0.133 C 
HETATM   10  C7  UNL     1      14.185 -48.275 -14.835  1.00  0.00     0.042 C 
HETATM   11  C8  UNL     1      14.975 -47.004 -15.111  1.00  0.00     0.040 C 
HETATM   12  C9  UNL     1      14.032 -45.872 -15.519  1.00  0.00     0.061 C 
HETATM   13  C10 UNL     1      14.247 -45.668 -17.006  1.00  0.00     0.038 C 
HETATM   14  C11 UNL     1      13.478 -44.486 -17.477  1.00  0.00     0.005 C 
HETATM   15  C12 UNL     1      13.467 -43.324 -16.548  1.00  0.00     0.026 C 
HETATM   16  C13 UNL     1      13.843 -43.579 -15.156  1.00  0.00     0.168 C 
HETATM   17  O1  UNL     1      14.414 -44.764 -14.832  1.00  0.00    -0.380 OA
HETATM   18  C14 UNL     1      12.603 -46.281 -15.316  1.00  0.00     0.040 C 
HETATM   19  C15 UNL     1      12.342 -46.931 -13.989  1.00  0.00     0.042 C 
HETATM   20  C16 UNL     1      12.694 -49.219 -13.046  1.00  0.00     0.048 C 
HETATM   21  C17 UNL     1      12.673 -50.404 -13.949  1.00  0.00     0.017 C 
ENDROOT
TORSDOF 0
ENDMDL
MODEL 4
REMARK VINA RESULT: -7.291913683      1.422      2.600
REMARK  0 active torsions:
REMARK  status: ('A' for Active; 'I' for Inactive)
ROOT
HETATM    1  C1  UNL     1      11.194 -50.378 -12.259  1.00  0.00     0.043 C 
HETATM    2  C2  UNL     1      12.434 -49.579 -12.124  1.00  0.00    -0.083 C 
HETATM    3  C3  UNL     1      13.656 -50.229 -11.586  1.00  0.00     0.043 C 
HETATM    4  C4  UNL     1      12.453 -48.314 -12.477  1.00  0.00    -0.047 C 
HETATM    5  C5  UNL     1      11.287 -47.573 -13.025  1.00  0.00     0.268 C 
HETATM    6  N1  UNL     1      11.849 -46.485 -13.796  1.00  0.00    -0.062 N 
ATOM      7  H11 UNL     1      11.210 -45.700 -13.919  1.00  0.00     0.278 HD
ATOM      8  H12 UNL     1      11.966 -46.703 -14.786  1.00  0.00     0.278 HD
HETATM    9  C6  UNL     1      13.102 -46.122 -13.124  1.00  0.00     0.133 C 
HETATM   10  C7  UNL     1      12.785 -44.974 -12.196  1.00  0.00     0.042 C 
HETATM   11  C8  UNL     1      12.033 -43.939 -13.020  1.00  0.00     0.040 C 
HETATM   12  C9  UNL     1      12.944 -43.362 -14.104  1.00  0.00     0.061 C 
HETATM   13  C10 UNL     1      13.281 -41.953 -13.658  1.00  0.00     0.038 C 
HETATM   14  C11 UNL     1      14.049 -41.250 -14.719  1.00  0.00     0.005 C 
HETATM   15  C12 UNL     1      13.598 -41.515 -16.112  1.00  0.00     0.026 C 
HETATM   16  C13 UNL     1      12.757 -42.694 -16.328  1.00  0.00     0.168 C 
HETATM   17  O1  UNL     1      12.226 -43.332 -15.257  1.00  0.00    -0.380 OA
HETATM   18  C14 UNL     1      14.227 -44.137 -14.178  1.00  0.00     0.040 C 
HETATM   19  C15 UNL     1      14.037 -45.625 -14.178  1.00  0.00     0.042 C 
HETATM   20  C16 UNL     1      13.585 -47.345 -12.421  1.00  0.00     0.048 C 
HETATM   21  C17 UNL     1      14.058 -47.121 -11.026  1.00  0.00     0.017 C 
ENDROOT
TORSDOF 0
ENDMDL
MODEL 5
REMARK VINA RESULT: -7.082970493      2.327      2.500
REMARK  0 active torsions:
REMARK  status: ('A' for Active; 'I' for Inactive)
ROOT
HETATM    1  C1  UNL     1      13.232 -51.423 -15.073  1.00  0.00     0.043 C 
HETATM    2  C2  UNL     1      12.209 -50.353 -15.120  1.00  0.00    -0.083 C 
HETATM    3  C3  UNL     1      10.779 -50.715 -14.948  1.00  0.00     0.043 C 
HETATM    4  C4  UNL     1      12.562 -49.102 -15.311  1.00  0.00    -0.047 C 
HETATM    5  C5  UNL     1      13.962 -48.639 -15.493  1.00  0.00     0.268 C 
HETATM    6  N1  UNL     1      13.966 -47.251 -15.084  1.00  0.00    -0.062 N 
ATOM      7  H11 UNL     1      14.729 -46.709 -15.488  1.00  0.00     0.278 HD
ATOM      8  H12 UNL     1      14.223 -47.115 -14.106  1.00  0.00     0.278 HD
HETATM    9  C6  UNL     1      12.635 -46.730 -15.419  1.00  0.00     0.133 C 
HETATM   10  C7  UNL     1      12.749 -46.074 -16.774  1.00  0.00     0.042 C 
HETATM   11  C8  UNL     1      13.943 -45.133 -16.705  1.00  0.00     0.040 C 
HETATM   12  C9  UNL     1      13.668 -44.002 -15.714  1.00  0.00     0.061 C 
HETATM   13  C10 UNL     1      13.439 -42.759 -16.553  1.00  0.00     0.038 C 
HETATM   14  C11 UNL     1      13.306 -41.567 -15.676  1.00  0.00     0.005 C 
HETATM   15  C12 UNL     1      14.227 -41.531 -14.508  1.00  0.00     0.026 C 
HETATM   16  C13 UNL     1      14.857 -42.793 -14.116  1.00  0.00     0.168 C 
HETATM   17  O1  UNL     1      14.785 -43.856 -14.953  1.00  0.00    -0.380 OA
HETATM   18  C14 UNL     1      12.409 -44.272 -14.945  1.00  0.00     0.040 C 
HETATM   19  C15 UNL     1      12.313 -45.673 -14.414  1.00  0.00     0.042 C 
HETATM   20  C16 UNL     1      11.698 -47.890 -15.391  1.00  0.00     0.048 C 
HETATM   21  C17 UNL     1      10.749 -47.957 -16.537  1.00  0.00     0.017 C 
ENDROOT
TORSDOF 0
ENDMDL
