MODEL 1
REMARK VINA RESULT: -6.849967846      0.000      0.000
REMARK  0 active torsions:
REMARK  status: ('A' for Active; 'I' for Inactive)
ROOT
HETATM    1  O1  UNL     1      14.239 -40.836 -14.211  1.00  0.00    -0.269 OA
HETATM    2  C1  UNL     1      13.957 -42.008 -14.606  1.00  0.00     0.240 C 
HETATM    3  C2  UNL     1      12.813 -42.151 -15.498  1.00  0.00     0.070 C 
HETATM    4  C3  UNL     1      12.821 -42.755 -16.671  1.00  0.00    -0.021 C 
HETATM    5  C4  UNL     1      13.990 -43.404 -17.308  1.00  0.00     0.027 C 
HETATM    6  C5  UNL     1      13.501 -44.627 -18.034  1.00  0.00     0.004 C 
HETATM    7  C6  UNL     1      13.813 -45.895 -17.274  1.00  0.00     0.000 C 
HETATM    8  C7  UNL     1      12.546 -46.600 -16.799  1.00  0.00     0.000 C 
HETATM    9  C8  UNL     1      12.949 -48.009 -16.426  1.00  0.00     0.000 C 
HETATM   10  C9  UNL     1      11.843 -48.839 -15.885  1.00  0.00     0.002 C 
HETATM   11  C10 UNL     1      11.577 -48.748 -14.441  1.00  0.00     0.026 C 
HETATM   12  C11 UNL     1      12.122 -47.537 -13.753  1.00  0.00     0.167 C 
HETATM   13  O2  UNL     1      12.343 -47.744 -12.380  1.00  0.00    -0.391 OA
HETATM   14  C12 UNL     1      13.660 -47.453 -12.025  1.00  0.00     0.167 C 
HETATM   15  C13 UNL     1      13.723 -46.400 -10.942  1.00  0.00     0.026 C 
HETATM   16  C14 UNL     1      13.354 -45.039 -11.430  1.00  0.00     0.004 C 
HETATM   17  C15 UNL     1      14.509 -44.332 -12.120  1.00  0.00     0.020 C 
HETATM   18  C16 UNL     1      14.322 -44.324 -13.621  1.00  0.00     0.123 C 
HETATM   19  N1  UNL     1      14.786 -43.054 -14.134  1.00  0.00    -0.358 N 
ATOM     20  H1  UNL     1      15.794 -42.898 -14.158  1.00  0.00     0.162 HD
ENDROOT
TORSDOF 0
ENDMDL
MODEL 2
REMARK VINA RESULT: -6.347771749      2.170      6.461
REMARK  0 active torsions:
REMARK  status: ('A' for Active; 'I' for Inactive)
ROOT
HETATM    1  O1  UNL     1      13.413 -50.362 -15.951  1.00  0.00    -0.269 OA
HETATM    2  C1  UNL     1      13.378 -49.294 -15.268  1.00  0.00     0.240 C 
HETATM    3  C2  UNL     1      12.341 -49.193 -14.247  1.00  0.00     0.070 C 
HETATM    4  C3  UNL     1      12.538 -48.906 -12.975  1.00  0.00    -0.021 C 
HETATM    5  C4  UNL     1      13.846 -48.633 -12.336  1.00  0.00     0.027 C 
HETATM    6  C5  UNL     1      13.640 -47.565 -11.298  1.00  0.00     0.004 C 
HETATM    7  C6  UNL     1      14.128 -46.216 -11.773  1.00  0.00     0.000 C 
HETATM    8  C7  UNL     1      12.983 -45.220 -11.931  1.00  0.00     0.000 C 
HETATM    9  C8  UNL     1      13.613 -43.848 -12.009  1.00  0.00     0.000 C 
HETATM   10  C9  UNL     1      12.645 -42.742 -12.219  1.00  0.00     0.002 C 
HETATM   11  C10 UNL     1      12.272 -42.429 -13.608  1.00  0.00     0.026 C 
HETATM   12  C11 UNL     1      12.538 -43.504 -14.612  1.00  0.00     0.167 C 
HETATM   13  O2  UNL     1      12.702 -43.002 -15.916  1.00  0.00    -0.391 OA
HETATM   14  C12 UNL     1      13.916 -43.407 -16.470  1.00  0.00     0.167 C 
HETATM   15  C13 UNL     1      13.713 -44.155 -17.768  1.00  0.00     0.026 C 
HETATM   16  C14 UNL     1      13.133 -45.517 -17.571  1.00  0.00     0.004 C 
HETATM   17  C15 UNL     1      14.182 -46.550 -17.193  1.00  0.00     0.020 C 
HETATM   18  C16 UNL     1      14.096 -46.897 -15.724  1.00  0.00     0.123 C 
HETATM   19  N1  UNL     1      14.352 -48.314 -15.572  1.00  0.00    -0.358 N 
ATOM     20  H1  UNL     1      15.313 -48.632 -15.694  1.00  0.00     0.162 HD
ENDROOT
TORSDOF 0
ENDMDL
MODEL 3
REMARK VINA RESULT: -5.976271637      3.048      5.669
REMARK  0 active torsions:
REMARK  status: ('A' for Active; 'I' for Inactive)
ROOT
HETATM    1  O1  UNL     1      12.561 -46.008 -17.327  1.00  0.00    -0.269 OA
HETATM    2  C1  UNL     1      12.801 -46.604 -16.233  1.00  0.00     0.240 C 
HETATM    3  C2  UNL     1      14.199 -46.720 -15.834  1.00  0.00     0.070 C 
HETATM    4  C3  UNL     1      14.702 -46.346 -14.673  1.00  0.00    -0.021 C 
HETATM    5  C4  UNL     1      13.948 -45.738 -13.552  1.00  0.00     0.027 C 
HETATM    6  C5  UNL     1      14.526 -46.264 -12.267  1.00  0.00     0.004 C 
HETATM    7  C6  UNL     1      13.650 -47.329 -11.650  1.00  0.00     0.000 C 
HETATM    8  C7  UNL     1      14.338 -48.690 -11.632  1.00  0.00     0.000 C 
HETATM    9  C8  UNL     1      13.564 -49.552 -10.660  1.00  0.00     0.000 C 
HETATM   10  C9  UNL     1      14.061 -50.947 -10.549  1.00  0.00     0.002 C 
HETATM   11  C10 UNL     1      13.542 -51.926 -11.517  1.00  0.00     0.026 C 
HETATM   12  C11 UNL     1      12.936 -51.355 -12.759  1.00  0.00     0.167 C 
HETATM   13  O2  UNL     1      11.996 -52.218 -13.353  1.00  0.00    -0.391 OA
HETATM   14  C12 UNL     1      10.762 -51.591 -13.520  1.00  0.00     0.167 C 
HETATM   15  C13 UNL     1      10.323 -51.606 -14.966  1.00  0.00     0.026 C 
HETATM   16  C14 UNL     1      11.121 -50.683 -15.827  1.00  0.00     0.004 C 
HETATM   17  C15 UNL     1      10.639 -49.244 -15.744  1.00  0.00     0.020 C 
HETATM   18  C16 UNL     1      11.583 -48.404 -14.913  1.00  0.00     0.123 C 
HETATM   19  N1  UNL     1      11.683 -47.093 -15.517  1.00  0.00    -0.358 N 
ATOM     20  H1  UNL     1      10.881 -46.470 -15.420  1.00  0.00     0.162 HD
ENDROOT
TORSDOF 0
ENDMDL
MODEL 4
REMARK VINA RESULT: -5.669485548      4.033      7.507
REMARK  0 active torsions:
REMARK  status: ('A' for Active; 'I' for Inactive)
ROOT
HETATM    1  O1  UNL     1       7.209 -49.555 -15.060  1.00  0.00    -0.269 OA
HETATM    2  C1  UNL     1       8.261 -49.688 -14.364  1.00  0.00     0.240 C 
HETATM    3  C2  UNL     1       8.156 -49.397 -12.939  1.00  0.00     0.070 C 
HETATM    4  C3  UNL     1       8.518 -50.205 -11.960  1.00  0.00    -0.021 C 
HETATM    5  C4  UNL     1       9.098 -51.558 -12.116  1.00  0.00     0.027 C 
HETATM    6  C5  UNL     1      10.123 -51.749 -11.032  1.00  0.00     0.004 C 
HETATM    7  C6  UNL     1      11.532 -51.604 -11.557  1.00  0.00     0.000 C 
HETATM    8  C7  UNL     1      12.238 -50.390 -10.962  1.00  0.00     0.000 C 
HETATM    9  C8  UNL     1      13.715 -50.574 -11.232  1.00  0.00     0.000 C 
HETATM   10  C9  UNL     1      14.567 -49.451 -10.766  1.00  0.00     0.002 C 
HETATM   11  C10 UNL     1      14.745 -48.315 -11.684  1.00  0.00     0.026 C 
HETATM   12  C11 UNL     1      13.729 -48.192 -12.774  1.00  0.00     0.167 C 
HETATM   13  O2  UNL     1      14.215 -47.498 -13.897  1.00  0.00    -0.391 OA
HETATM   14  C12 UNL     1      14.079 -48.252 -15.062  1.00  0.00     0.167 C 
HETATM   15  C13 UNL     1      13.266 -47.521 -16.105  1.00  0.00     0.026 C 
HETATM   16  C14 UNL     1      11.815 -47.441 -15.762  1.00  0.00     0.004 C 
HETATM   17  C15 UNL     1      11.058 -48.707 -16.126  1.00  0.00     0.020 C 
HETATM   18  C16 UNL     1      10.744 -49.525 -14.893  1.00  0.00     0.123 C 
HETATM   19  N1  UNL     1       9.427 -50.104 -15.050  1.00  0.00    -0.358 N 
ATOM     20  H1  UNL     1       9.331 -50.877 -15.710  1.00  0.00     0.162 HD
ENDROOT
TORSDOF 0
ENDMDL
MODEL 5
REMARK VINA RESULT: -5.665269319      3.840      7.195
REMARK  0 active torsions:
REMARK  status: ('A' for Active; 'I' for Inactive)
ROOT
HETATM    1  O1  UNL     1      14.834 -50.679  -9.849  1.00  0.00    -0.269 OA
HETATM    2  C1  UNL     1      13.803 -50.574 -10.581  1.00  0.00     0.240 C 
HETATM    3  C2  UNL     1      13.205 -51.812 -11.067  1.00  0.00     0.070 C 
HETATM    4  C3  UNL     1      11.940 -52.161 -10.932  1.00  0.00    -0.021 C 
HETATM    5  C4  UNL     1      10.884 -51.366 -10.265  1.00  0.00     0.027 C 
HETATM    6  C5  UNL     1       9.603 -51.564 -11.029  1.00  0.00     0.004 C 
HETATM    7  C6  UNL     1       9.280 -50.375 -11.903  1.00  0.00     0.000 C 
HETATM    8  C7  UNL     1       9.332 -50.728 -13.386  1.00  0.00     0.000 C 
HETATM    9  C8  UNL     1       8.618 -49.616 -14.120  1.00  0.00     0.000 C 
HETATM   10  C9  UNL     1       8.613 -49.762 -15.597  1.00  0.00     0.002 C 
HETATM   11  C10 UNL     1       9.773 -49.229 -16.330  1.00  0.00     0.026 C 
HETATM   12  C11 UNL     1      11.009 -49.005 -15.520  1.00  0.00     0.167 C 
HETATM   13  O2  UNL     1      11.853 -48.025 -16.073  1.00  0.00    -0.391 OA
HETATM   14  C12 UNL     1      12.132 -47.013 -15.154  1.00  0.00     0.167 C 
HETATM   15  C13 UNL     1      13.618 -46.859 -14.932  1.00  0.00     0.026 C 
HETATM   16  C14 UNL     1      14.212 -47.987 -14.154  1.00  0.00     0.004 C 
HETATM   17  C15 UNL     1      14.018 -47.829 -12.655  1.00  0.00     0.020 C 
HETATM   18  C16 UNL     1      12.943 -48.764 -12.146  1.00  0.00     0.123 C 
HETATM   19  N1  UNL     1      13.346 -49.262 -10.849  1.00  0.00    -0.358 N 
ATOM     20  H1  UNL     1      13.296 -48.615 -10.062  1.00  0.00     0.162 HD
ENDROOT
TORSDOF 0
ENDMDL
