MODEL 1
REMARK VINA RESULT: -8.616674568      0.000      0.000
REMARK  1 active torsions:
REMARK  status: ('A' for Active; 'I' for Inactive)
REMARK    1  A    between atoms: C5_7  and  O3_8 
ROOT
HETATM    1  C1  UNL     1      12.028 -42.187 -14.998  1.00  0.00     0.043 C 
HETATM    2  C2  UNL     1      13.416 -42.692 -15.273  1.00  0.00     0.163 C 
HETATM    3  O1  UNL     1      13.715 -42.782 -16.589  1.00  0.00    -0.235 OA
HETATM    4  O2  UNL     1      13.575 -43.887 -17.192  1.00  0.00    -0.233 OA
HETATM    5  C3  UNL     1      14.124 -44.999 -16.565  1.00  0.00     0.191 C 
HETATM    6  C4  UNL     1      14.022 -46.195 -17.425  1.00  0.00     0.046 C 
HETATM    7  C5  UNL     1      13.321 -45.125 -15.253  1.00  0.00     0.096 C 
HETATM    8  C6  UNL     1      13.523 -46.445 -14.571  1.00  0.00     0.023 C 
HETATM    9  C7  UNL     1      12.235 -47.140 -14.228  1.00  0.00     0.008 C 
HETATM   10  C8  UNL     1      11.561 -46.863 -12.985  1.00  0.00     0.005 C 
HETATM   11  C9  UNL     1      12.049 -45.774 -12.077  1.00  0.00    -0.014 C 
HETATM   12  C10 UNL     1      13.310 -46.284 -11.438  1.00  0.00     0.009 C 
HETATM   13  C11 UNL     1      14.475 -45.898 -12.265  1.00  0.00    -0.013 C 
HETATM   14  C12 UNL     1      14.545 -44.404 -12.214  1.00  0.00     0.010 C 
HETATM   15  C13 UNL     1      13.390 -43.853 -13.054  1.00  0.00    -0.004 C 
HETATM   16  C14 UNL     1      12.090 -44.420 -12.633  1.00  0.00     0.010 C 
HETATM   17  C15 UNL     1      13.773 -43.946 -14.473  1.00  0.00     0.059 C 
HETATM   18  C16 UNL     1      14.593 -46.519 -13.584  1.00  0.00     0.012 C 
ENDROOT
BRANCH   7  19
HETATM   19  O3  UNL     1      11.990 -45.023 -15.723  1.00  0.00    -0.386 OA
ATOM     20  H3  UNL     1      11.602 -45.815 -15.371  1.00  0.00     0.210 HD
ENDBRANCH   7  19
TORSDOF 1
ENDMDL
MODEL 2
REMARK VINA RESULT: -8.289777295      1.423      2.257
REMARK  1 active torsions:
REMARK  status: ('A' for Active; 'I' for Inactive)
REMARK    1  A    between atoms: C5_7  and  O3_8 
ROOT
HETATM    1  C1  UNL     1      12.185 -43.429 -12.383  1.00  0.00     0.043 C 
HETATM    2  C2  UNL     1      13.588 -43.588 -12.899  1.00  0.00     0.163 C 
HETATM    3  O1  UNL     1      13.995 -42.575 -13.695  1.00  0.00    -0.235 OA
HETATM    4  O2  UNL     1      13.898 -42.686 -14.954  1.00  0.00    -0.233 OA
HETATM    5  C3  UNL     1      14.383 -43.867 -15.503  1.00  0.00     0.191 C 
HETATM    6  C4  UNL     1      14.344 -43.820 -16.978  1.00  0.00     0.046 C 
HETATM    7  C5  UNL     1      13.472 -44.961 -14.906  1.00  0.00     0.096 C 
HETATM    8  C6  UNL     1      13.605 -46.278 -15.611  1.00  0.00     0.023 C 
HETATM    9  C7  UNL     1      12.287 -46.854 -16.047  1.00  0.00     0.008 C 
HETATM   10  C8  UNL     1      11.513 -47.675 -15.150  1.00  0.00     0.005 C 
HETATM   11  C9  UNL     1      11.932 -47.850 -13.720  1.00  0.00    -0.014 C 
HETATM   12  C10 UNL     1      13.131 -48.756 -13.735  1.00  0.00     0.009 C 
HETATM   13  C11 UNL     1      14.364 -47.945 -13.830  1.00  0.00    -0.013 C 
HETATM   14  C12 UNL     1      14.441 -47.155 -12.562  1.00  0.00     0.010 C 
HETATM   15  C13 UNL     1      13.366 -46.068 -12.621  1.00  0.00    -0.004 C 
HETATM   16  C14 UNL     1      12.030 -46.635 -12.908  1.00  0.00     0.010 C 
HETATM   17  C15 UNL     1      13.866 -44.977 -13.475  1.00  0.00     0.059 C 
HETATM   18  C16 UNL     1      14.588 -47.213 -15.077  1.00  0.00     0.012 C 
ENDROOT
BRANCH   7  19
HETATM   19  O3  UNL     1      12.186 -44.417 -15.139  1.00  0.00    -0.386 OA
ATOM     20  H3  UNL     1      11.700 -44.750 -14.393  1.00  0.00     0.210 HD
ENDBRANCH   7  19
TORSDOF 1
ENDMDL
MODEL 3
REMARK VINA RESULT: -8.216738963      0.953      3.192
REMARK  1 active torsions:
REMARK  status: ('A' for Active; 'I' for Inactive)
REMARK    1  A    between atoms: C5_7  and  O3_8 
ROOT
HETATM    1  C1  UNL     1      14.361 -46.449 -16.990  1.00  0.00     0.043 C 
HETATM    2  C2  UNL     1      13.070 -45.691 -16.861  1.00  0.00     0.163 C 
HETATM    3  O1  UNL     1      12.948 -44.668 -17.736  1.00  0.00    -0.235 OA
HETATM    4  O2  UNL     1      13.262 -43.494 -17.378  1.00  0.00    -0.233 OA
HETATM    5  C3  UNL     1      12.742 -43.066 -16.162  1.00  0.00     0.191 C 
HETATM    6  C4  UNL     1      13.059 -41.644 -15.923  1.00  0.00     0.046 C 
HETATM    7  C5  UNL     1      13.382 -44.013 -15.125  1.00  0.00     0.096 C 
HETATM    8  C6  UNL     1      13.217 -43.531 -13.715  1.00  0.00     0.023 C 
HETATM    9  C7  UNL     1      14.509 -43.478 -12.950  1.00  0.00     0.008 C 
HETATM   10  C8  UNL     1      14.995 -44.641 -12.250  1.00  0.00     0.005 C 
HETATM   11  C9  UNL     1      14.300 -45.963 -12.390  1.00  0.00    -0.014 C 
HETATM   12  C10 UNL     1      13.020 -45.857 -11.609  1.00  0.00     0.009 C 
HETATM   13  C11 UNL     1      11.938 -45.375 -12.495  1.00  0.00    -0.013 C 
HETATM   14  C12 UNL     1      11.727 -46.447 -13.516  1.00  0.00     0.010 C 
HETATM   15  C13 UNL     1      12.923 -46.426 -14.471  1.00  0.00    -0.004 C 
HETATM   16  C14 UNL     1      14.206 -46.519 -13.741  1.00  0.00     0.010 C 
HETATM   17  C15 UNL     1      12.731 -45.314 -15.419  1.00  0.00     0.059 C 
HETATM   18  C16 UNL     1      12.043 -44.003 -12.991  1.00  0.00     0.012 C 
ENDROOT
BRANCH   7  19
HETATM   19  O3  UNL     1      14.747 -43.960 -15.497  1.00  0.00    -0.386 OA
ATOM     20  H3  UNL     1      15.141 -43.577 -14.723  1.00  0.00     0.210 HD
ENDBRANCH   7  19
TORSDOF 1
ENDMDL
MODEL 4
REMARK VINA RESULT: -8.079801317      1.393      3.410
REMARK  1 active torsions:
REMARK  status: ('A' for Active; 'I' for Inactive)
REMARK    1  A    between atoms: C5_7  and  O3_8 
ROOT
HETATM    1  C1  UNL     1      14.328 -45.914 -16.952  1.00  0.00     0.043 C 
HETATM    2  C2  UNL     1      13.011 -45.352 -16.497  1.00  0.00     0.163 C 
HETATM    3  O1  UNL     1      12.935 -44.005 -16.576  1.00  0.00    -0.235 OA
HETATM    4  O2  UNL     1      13.187 -43.299 -15.554  1.00  0.00    -0.233 OA
HETATM    5  C3  UNL     1      12.556 -43.682 -14.376  1.00  0.00     0.191 C 
HETATM    6  C4  UNL     1      12.815 -42.709 -13.297  1.00  0.00     0.046 C 
HETATM    7  C5  UNL     1      13.133 -45.084 -14.080  1.00  0.00     0.096 C 
HETATM    8  C6  UNL     1      12.838 -45.552 -12.686  1.00  0.00     0.023 C 
HETATM    9  C7  UNL     1      14.061 -46.013 -11.943  1.00  0.00     0.008 C 
HETATM   10  C8  UNL     1      14.517 -47.376 -12.057  1.00  0.00     0.005 C 
HETATM   11  C9  UNL     1      13.871 -48.320 -13.027  1.00  0.00    -0.014 C 
HETATM   12  C10 UNL     1      12.528 -48.672 -12.451  1.00  0.00     0.009 C 
HETATM   13  C11 UNL     1      11.512 -47.719 -12.947  1.00  0.00    -0.013 C 
HETATM   14  C12 UNL     1      11.415 -47.944 -14.423  1.00  0.00     0.010 C 
HETATM   15  C13 UNL     1      12.685 -47.383 -15.066  1.00  0.00    -0.004 C 
HETATM   16  C14 UNL     1      13.906 -47.938 -14.441  1.00  0.00     0.010 C 
HETATM   17  C15 UNL     1      12.544 -45.919 -15.156  1.00  0.00     0.059 C 
HETATM   18  C16 UNL     1      11.621 -46.331 -12.497  1.00  0.00     0.012 C 
ENDROOT
BRANCH   7  19
HETATM   19  O3  UNL     1      14.522 -44.856 -14.229  1.00  0.00    -0.386 OA
ATOM     20  H3  UNL     1      14.882 -45.433 -13.566  1.00  0.00     0.210 HD
ENDBRANCH   7  19
TORSDOF 1
ENDMDL
MODEL 5
REMARK VINA RESULT: -7.907195811      1.527      3.539
REMARK  1 active torsions:
REMARK  status: ('A' for Active; 'I' for Inactive)
REMARK    1  A    between atoms: C5_7  and  O3_8 
ROOT
HETATM    1  C1  UNL     1      14.785 -47.786 -14.676  1.00  0.00     0.043 C 
HETATM    2  C2  UNL     1      13.482 -47.322 -15.264  1.00  0.00     0.163 C 
HETATM    3  O1  UNL     1      13.417 -47.444 -16.609  1.00  0.00    -0.235 OA
HETATM    4  O2  UNL     1      13.695 -46.451 -17.345  1.00  0.00    -0.233 OA
HETATM    5  C3  UNL     1      13.086 -45.248 -17.006  1.00  0.00     0.191 C 
HETATM    6  C4  UNL     1      13.375 -44.207 -18.012  1.00  0.00     0.046 C 
HETATM    7  C5  UNL     1      13.657 -44.918 -15.610  1.00  0.00     0.096 C 
HETATM    8  C6  UNL     1      13.387 -43.505 -15.190  1.00  0.00     0.023 C 
HETATM    9  C7  UNL     1      14.621 -42.773 -14.742  1.00  0.00     0.008 C 
HETATM   10  C8  UNL     1      15.063 -42.851 -13.372  1.00  0.00     0.005 C 
HETATM   11  C9  UNL     1      14.390 -43.777 -12.403  1.00  0.00    -0.014 C 
HETATM   12  C10 UNL     1      13.056 -43.162 -12.082  1.00  0.00     0.009 C 
HETATM   13  C11 UNL     1      12.038 -43.668 -13.027  1.00  0.00    -0.013 C 
HETATM   14  C12 UNL     1      11.909 -45.133 -12.756  1.00  0.00     0.010 C 
HETATM   15  C13 UNL     1      13.170 -45.820 -13.284  1.00  0.00    -0.004 C 
HETATM   16  C14 UNL     1      14.398 -45.202 -12.739  1.00  0.00     0.010 C 
HETATM   17  C15 UNL     1      13.038 -45.954 -14.746  1.00  0.00     0.059 C 
HETATM   18  C16 UNL     1      12.168 -43.266 -14.428  1.00  0.00     0.012 C 
ENDROOT
BRANCH   7  19
HETATM   19  O3  UNL     1      15.045 -45.104 -15.820  1.00  0.00    -0.386 OA
ATOM     20  H3  UNL     1      15.324 -45.428 -14.972  1.00  0.00     0.210 HD
ENDBRANCH   7  19
TORSDOF 1
ENDMDL
