MODEL 1
REMARK VINA RESULT: -8.152939572      0.000      0.000
REMARK  1 active torsions:
REMARK  status: ('A' for Active; 'I' for Inactive)
REMARK    1  A    between atoms: O1_1  and  C1_3 
ROOT
HETATM    1  C1  UNL     1      11.724 -47.709 -13.658  1.00  0.00     0.061 C 
HETATM    2  C2  UNL     1      12.800 -48.613 -13.184  1.00  0.00     0.042 C 
HETATM    3  C3  UNL     1      14.193 -48.096 -13.314  1.00  0.00    -0.009 C 
HETATM    4  C4  UNL     1      14.647 -47.209 -12.212  1.00  0.00     0.005 C 
HETATM    5  C5  UNL     1      13.652 -46.278 -11.654  1.00  0.00     0.005 C 
HETATM    6  C6  UNL     1      12.737 -45.634 -12.665  1.00  0.00    -0.002 C 
HETATM    7  C7  UNL     1      11.507 -46.510 -12.768  1.00  0.00     0.043 C 
HETATM    8  C8  UNL     1      13.462 -45.394 -13.912  1.00  0.00     0.065 C 
HETATM    9  C9  UNL     1      13.100 -44.207 -14.719  1.00  0.00     0.103 C 
HETATM   10  C10 UNL     1      12.173 -43.230 -14.147  1.00  0.00     0.042 C 
HETATM   11  C11 UNL     1      13.026 -42.222 -13.420  1.00  0.00     0.003 C 
HETATM   12  C12 UNL     1      14.212 -42.078 -14.375  1.00  0.00     0.003 C 
HETATM   13  C13 UNL     1      14.313 -43.371 -15.121  1.00  0.00     0.042 C 
HETATM   14  O2  UNL     1      12.640 -44.794 -15.920  1.00  0.00    -0.228 OA
HETATM   15  O3  UNL     1      13.554 -45.751 -16.117  1.00  0.00    -0.228 OA
HETATM   16  C14 UNL     1      13.379 -46.494 -14.938  1.00  0.00     0.106 C 
HETATM   17  C15 UNL     1      14.462 -47.475 -14.688  1.00  0.00     0.046 C 
HETATM   18  C16 UNL     1      12.031 -47.140 -15.031  1.00  0.00     0.079 C 
ENDROOT
BRANCH   1  19
HETATM   19  O1  UNL     1      10.526 -48.424 -13.674  1.00  0.00    -0.390 OA
ATOM     20  H1  UNL     1       9.859 -47.899 -13.248  1.00  0.00     0.210 HD
ENDBRANCH   1  19
TORSDOF 1
ENDMDL
MODEL 2
REMARK VINA RESULT: -7.874253742      1.844      3.163
REMARK  1 active torsions:
REMARK  status: ('A' for Active; 'I' for Inactive)
REMARK    1  A    between atoms: O1_1  and  C1_3 
ROOT
HETATM    1  C1  UNL     1      14.210 -47.353 -12.528  1.00  0.00     0.061 C 
HETATM    2  C2  UNL     1      12.916 -47.994 -12.191  1.00  0.00     0.042 C 
HETATM    3  C3  UNL     1      11.691 -47.262 -12.626  1.00  0.00    -0.009 C 
HETATM    4  C4  UNL     1      11.279 -47.492 -14.033  1.00  0.00     0.005 C 
HETATM    5  C5  UNL     1      12.355 -47.619 -15.031  1.00  0.00     0.005 C 
HETATM    6  C6  UNL     1      13.516 -46.674 -14.846  1.00  0.00    -0.002 C 
HETATM    7  C7  UNL     1      14.542 -47.396 -13.999  1.00  0.00     0.043 C 
HETATM    8  C8  UNL     1      13.039 -45.394 -14.325  1.00  0.00     0.065 C 
HETATM    9  C9  UNL     1      13.746 -44.159 -14.734  1.00  0.00     0.103 C 
HETATM   10  C10 UNL     1      14.765 -44.253 -15.781  1.00  0.00     0.042 C 
HETATM   11  C11 UNL     1      14.043 -44.028 -17.085  1.00  0.00     0.003 C 
HETATM   12  C12 UNL     1      13.058 -42.922 -16.704  1.00  0.00     0.003 C 
HETATM   13  C13 UNL     1      12.800 -43.072 -15.238  1.00  0.00     0.042 C 
HETATM   14  O2  UNL     1      14.240 -43.678 -13.500  1.00  0.00    -0.228 OA
HETATM   15  O3  UNL     1      13.187 -43.867 -12.698  1.00  0.00    -0.228 OA
HETATM   16  C14 UNL     1      13.037 -45.258 -12.824  1.00  0.00     0.106 C 
HETATM   17  C15 UNL     1      11.752 -45.768 -12.291  1.00  0.00     0.046 C 
HETATM   18  C16 UNL     1      14.224 -45.881 -12.155  1.00  0.00     0.079 C 
ENDROOT
BRANCH   1  19
HETATM   19  O1  UNL     1      15.227 -48.041 -11.863  1.00  0.00    -0.390 OA
ATOM     20  H1  UNL     1      15.831 -48.381 -12.512  1.00  0.00     0.210 HD
ENDBRANCH   1  19
TORSDOF 1
ENDMDL
MODEL 3
REMARK VINA RESULT: -7.812076073      1.859      3.293
REMARK  1 active torsions:
REMARK  status: ('A' for Active; 'I' for Inactive)
REMARK    1  A    between atoms: O1_1  and  C1_3 
ROOT
HETATM    1  C1  UNL     1      14.770 -47.617 -14.873  1.00  0.00     0.061 C 
HETATM    2  C2  UNL     1      13.632 -48.372 -15.450  1.00  0.00     0.042 C 
HETATM    3  C3  UNL     1      12.281 -47.770 -15.253  1.00  0.00    -0.009 C 
HETATM    4  C4  UNL     1      11.902 -46.723 -16.236  1.00  0.00     0.005 C 
HETATM    5  C5  UNL     1      12.968 -45.809 -16.680  1.00  0.00     0.005 C 
HETATM    6  C6  UNL     1      13.923 -45.365 -15.601  1.00  0.00    -0.002 C 
HETATM    7  C7  UNL     1      15.083 -46.337 -15.610  1.00  0.00     0.043 C 
HETATM    8  C8  UNL     1      13.211 -45.226 -14.331  1.00  0.00     0.065 C 
HETATM    9  C9  UNL     1      13.657 -44.177 -13.386  1.00  0.00     0.103 C 
HETATM   10  C10 UNL     1      14.659 -43.211 -13.837  1.00  0.00     0.042 C 
HETATM   11  C11 UNL     1      13.889 -42.060 -14.432  1.00  0.00     0.003 C 
HETATM   12  C12 UNL     1      12.711 -41.944 -13.463  1.00  0.00     0.003 C 
HETATM   13  C13 UNL     1      12.509 -43.307 -12.881  1.00  0.00     0.042 C 
HETATM   14  O2  UNL     1      14.064 -44.940 -12.268  1.00  0.00    -0.228 OA
HETATM   15  O3  UNL     1      13.079 -45.842 -12.186  1.00  0.00    -0.228 OA
HETATM   16  C14 UNL     1      13.204 -46.446 -13.448  1.00  0.00     0.106 C 
HETATM   17  C15 UNL     1      12.052 -47.303 -13.813  1.00  0.00     0.046 C 
HETATM   18  C16 UNL     1      14.500 -47.199 -13.439  1.00  0.00     0.079 C 
ENDROOT
BRANCH   1  19
HETATM   19  O1  UNL     1      15.911 -48.418 -14.948  1.00  0.00    -0.390 OA
ATOM     20  H1  UNL     1      15.934 -48.823 -15.807  1.00  0.00     0.210 HD
ENDBRANCH   1  19
TORSDOF 1
ENDMDL
MODEL 4
REMARK VINA RESULT: -7.784349035      2.001      4.707
REMARK  1 active torsions:
REMARK  status: ('A' for Active; 'I' for Inactive)
REMARK    1  A    between atoms: O1_1  and  C1_3 
ROOT
HETATM    1  C1  UNL     1      14.563 -42.499 -14.072  1.00  0.00     0.061 C 
HETATM    2  C2  UNL     1      13.369 -41.931 -13.399  1.00  0.00     0.042 C 
HETATM    3  C3  UNL     1      12.092 -42.678 -13.593  1.00  0.00    -0.009 C 
HETATM    4  C4  UNL     1      11.885 -43.831 -12.680  1.00  0.00     0.005 C 
HETATM    5  C5  UNL     1      13.071 -44.637 -12.346  1.00  0.00     0.005 C 
HETATM    6  C6  UNL     1      14.023 -44.883 -13.489  1.00  0.00    -0.002 C 
HETATM    7  C7  UNL     1      15.058 -43.780 -13.447  1.00  0.00     0.043 C 
HETATM    8  C8  UNL     1      13.277 -45.017 -14.740  1.00  0.00     0.065 C 
HETATM    9  C9  UNL     1      13.802 -45.933 -15.778  1.00  0.00     0.103 C 
HETATM   10  C10 UNL     1      14.931 -46.800 -15.438  1.00  0.00     0.042 C 
HETATM   11  C11 UNL     1      14.330 -48.076 -14.906  1.00  0.00     0.003 C 
HETATM   12  C12 UNL     1      13.132 -48.264 -15.839  1.00  0.00     0.003 C 
HETATM   13  C13 UNL     1      12.744 -46.898 -16.308  1.00  0.00     0.042 C 
HETATM   14  O2  UNL     1      14.064 -45.048 -16.848  1.00  0.00    -0.228 OA
HETATM   15  O3  UNL     1      12.977 -44.269 -16.826  1.00  0.00    -0.228 OA
HETATM   16  C14 UNL     1      13.085 -43.746 -15.526  1.00  0.00     0.106 C 
HETATM   17  C15 UNL     1      11.857 -43.064 -15.056  1.00  0.00     0.046 C 
HETATM   18  C16 UNL     1      14.280 -42.843 -15.523  1.00  0.00     0.079 C 
ENDROOT
BRANCH   1  19
HETATM   19  O1  UNL     1      15.602 -41.572 -13.976  1.00  0.00    -0.390 OA
ATOM     20  H1  UNL     1      15.976 -41.632 -13.105  1.00  0.00     0.210 HD
ENDBRANCH   1  19
TORSDOF 1
ENDMDL
MODEL 5
REMARK VINA RESULT: -7.400137557      1.645      4.368
REMARK  1 active torsions:
REMARK  status: ('A' for Active; 'I' for Inactive)
REMARK    1  A    between atoms: O1_1  and  C1_3 
ROOT
HETATM    1  C1  UNL     1      14.534 -44.025 -12.898  1.00  0.00     0.061 C 
HETATM    2  C2  UNL     1      13.518 -43.170 -12.239  1.00  0.00     0.042 C 
HETATM    3  C3  UNL     1      12.111 -43.354 -12.700  1.00  0.00    -0.009 C 
HETATM    4  C4  UNL     1      11.375 -44.476 -12.062  1.00  0.00     0.005 C 
HETATM    5  C5  UNL     1      12.141 -45.704 -11.788  1.00  0.00     0.005 C 
HETATM    6  C6  UNL     1      13.121 -46.103 -12.862  1.00  0.00    -0.002 C 
HETATM    7  C7  UNL     1      14.451 -45.479 -12.501  1.00  0.00     0.043 C 
HETATM    8  C8  UNL     1      12.585 -45.758 -14.179  1.00  0.00     0.065 C 
HETATM    9  C9  UNL     1      12.922 -46.631 -15.327  1.00  0.00     0.103 C 
HETATM   10  C10 UNL     1      13.613 -47.893 -15.064  1.00  0.00     0.042 C 
HETATM   11  C11 UNL     1      12.533 -48.924 -14.860  1.00  0.00     0.003 C 
HETATM   12  C12 UNL     1      11.510 -48.512 -15.920  1.00  0.00     0.003 C 
HETATM   13  C13 UNL     1      11.696 -47.044 -16.137  1.00  0.00     0.042 C 
HETATM   14  O2  UNL     1      13.642 -45.750 -16.166  1.00  0.00    -0.228 OA
HETATM   15  O3  UNL     1      12.901 -44.640 -16.089  1.00  0.00    -0.228 OA
HETATM   16  C14 UNL     1      12.972 -44.401 -14.707  1.00  0.00     0.106 C 
HETATM   17  C15 UNL     1      11.994 -43.396 -14.226  1.00  0.00     0.046 C 
HETATM   18  C16 UNL     1      14.388 -44.013 -14.409  1.00  0.00     0.079 C 
ENDROOT
BRANCH   1  19
HETATM   19  O1  UNL     1      15.800 -43.573 -12.520  1.00  0.00    -0.390 OA
ATOM     20  H1  UNL     1      15.835 -42.634 -12.660  1.00  0.00     0.210 HD
ENDBRANCH   1  19
TORSDOF 1
ENDMDL
