MODEL 1
REMARK VINA RESULT: -6.677001881      0.000      0.000
REMARK  1 active torsions:
REMARK  status: ('A' for Active; 'I' for Inactive)
REMARK    1  A    between atoms: N1_7  and  C6_8 
ROOT
HETATM    1  C1  UNL     1      15.096  77.654   5.292  1.00  0.00     0.056 C 
HETATM    2  C2  UNL     1      15.992  77.464   6.498  1.00  0.00    -0.018 A 
HETATM    3  C3  UNL     1      17.272  77.868   6.646  1.00  0.00     0.029 A 
HETATM    4  C4  UNL     1      17.898  77.591   7.826  1.00  0.00     0.015 A 
HETATM    5  C5  UNL     1      17.171  76.919   8.768  1.00  0.00     0.091 A 
HETATM    6  S1  UNL     1      15.650  76.704   7.972  1.00  0.00    -0.076 SA
HETATM    7  N1  UNL     1      17.693  76.551  10.061  1.00  0.00    -0.308 N 
HETATM    8  C10 UNL     1      19.046  76.909  10.368  1.00  0.00     0.181 A 
HETATM    9  S2  UNL     1      19.645  76.506  11.787  1.00  0.00    -0.040 SA
HETATM   10  N2  UNL     1      19.755  77.591   9.385  1.00  0.00    -0.337 N 
HETATM   11  C11 UNL     1      21.148  77.931   9.750  1.00  0.00     0.158 C 
HETATM   12  C12 UNL     1      19.339  77.995   8.118  1.00  0.00     0.107 A 
ENDROOT
BRANCH   7  13
HETATM   13  C6  UNL     1      16.893  75.864  10.988  1.00  0.00     0.029 C 
HETATM   14  C7  UNL     1      16.922  74.370  10.583  1.00  0.00     0.038 C 
HETATM   15  C8  UNL     1      15.429  76.219  10.969  1.00  0.00     0.038 C 
HETATM   16  C9  UNL     1      17.344  75.866  12.423  1.00  0.00     0.038 C 
ENDBRANCH   7  13
TORSDOF 1
ENDMDL
MODEL 2
REMARK VINA RESULT: -6.587445012      1.175      3.409
REMARK  1 active torsions:
REMARK  status: ('A' for Active; 'I' for Inactive)
REMARK    1  A    between atoms: N1_7  and  C6_8 
ROOT
HETATM    1  C1  UNL     1      14.942  77.485   5.427  1.00  0.00     0.056 C 
HETATM    2  C2  UNL     1      15.752  77.282   6.690  1.00  0.00    -0.018 A 
HETATM    3  C3  UNL     1      15.368  76.660   7.824  1.00  0.00     0.029 A 
HETATM    4  C4  UNL     1      16.264  76.589   8.850  1.00  0.00     0.015 A 
HETATM    5  C5  UNL     1      17.489  77.159   8.641  1.00  0.00     0.091 A 
HETATM    6  S1  UNL     1      17.339  77.768   7.029  1.00  0.00    -0.076 SA
HETATM    7  N1  UNL     1      18.539  77.168   9.629  1.00  0.00    -0.308 N 
HETATM    8  C10 UNL     1      18.281  76.548  10.894  1.00  0.00     0.181 A 
HETATM    9  S2  UNL     1      19.425  76.552  12.002  1.00  0.00    -0.040 SA
HETATM   10  N2  UNL     1      17.025  75.978  11.070  1.00  0.00    -0.337 N 
HETATM   11  C11 UNL     1      16.807  75.356  12.395  1.00  0.00     0.158 C 
HETATM   12  C12 UNL     1      15.953  75.912  10.181  1.00  0.00     0.107 A 
ENDROOT
BRANCH   7  13
HETATM   13  C6  UNL     1      19.778  77.768   9.352  1.00  0.00     0.029 C 
HETATM   14  C7  UNL     1      19.476  79.136   8.693  1.00  0.00     0.038 C 
HETATM   15  C8  UNL     1      20.631  77.054   8.335  1.00  0.00     0.038 C 
HETATM   16  C9  UNL     1      20.657  78.109  10.524  1.00  0.00     0.038 C 
ENDBRANCH   7  13
TORSDOF 1
ENDMDL
MODEL 3
REMARK VINA RESULT: -6.507728802      1.177      3.385
REMARK  1 active torsions:
REMARK  status: ('A' for Active; 'I' for Inactive)
REMARK    1  A    between atoms: N1_7  and  C6_8 
ROOT
HETATM    1  C1  UNL     1      14.741  77.501   5.541  1.00  0.00     0.056 C 
HETATM    2  C2  UNL     1      15.612  77.257   6.756  1.00  0.00    -0.018 A 
HETATM    3  C3  UNL     1      15.234  76.771   7.957  1.00  0.00     0.029 A 
HETATM    4  C4  UNL     1      16.189  76.631   8.920  1.00  0.00     0.015 A 
HETATM    5  C5  UNL     1      17.462  76.997   8.585  1.00  0.00     0.091 A 
HETATM    6  S1  UNL     1      17.273  77.521   6.947  1.00  0.00    -0.076 SA
HETATM    7  N1  UNL     1      18.579  76.912   9.494  1.00  0.00    -0.308 N 
HETATM    8  C10 UNL     1      18.336  76.416  10.816  1.00  0.00     0.181 A 
HETATM    9  S2  UNL     1      19.553  76.319  11.837  1.00  0.00    -0.040 SA
HETATM   10  N2  UNL     1      17.028  76.052  11.120  1.00  0.00    -0.337 N 
HETATM   11  C11 UNL     1      16.830  75.554  12.499  1.00  0.00     0.158 C 
HETATM   12  C12 UNL     1      15.891  76.092  10.316  1.00  0.00     0.107 A 
ENDROOT
BRANCH   7  13
HETATM   13  C6  UNL     1      19.865  77.301   9.087  1.00  0.00     0.029 C 
HETATM   14  C7  UNL     1      20.531  76.055   8.456  1.00  0.00     0.038 C 
HETATM   15  C8  UNL     1      20.805  77.694  10.198  1.00  0.00     0.038 C 
HETATM   16  C9  UNL     1      19.961  78.354   8.018  1.00  0.00     0.038 C 
ENDBRANCH   7  13
TORSDOF 1
ENDMDL
MODEL 4
REMARK VINA RESULT: -6.359887009      1.254      1.518
REMARK  1 active torsions:
REMARK  status: ('A' for Active; 'I' for Inactive)
REMARK    1  A    between atoms: N1_7  and  C6_8 
ROOT
HETATM    1  C1  UNL     1      13.042  76.104   6.199  1.00  0.00     0.056 C 
HETATM    2  C2  UNL     1      14.323  76.311   6.979  1.00  0.00    -0.018 A 
HETATM    3  C3  UNL     1      15.470  76.877   6.546  1.00  0.00     0.029 A 
HETATM    4  C4  UNL     1      16.512  76.963   7.422  1.00  0.00     0.015 A 
HETATM    5  C5  UNL     1      16.306  76.463   8.678  1.00  0.00     0.091 A 
HETATM    6  S1  UNL     1      14.674  75.897   8.583  1.00  0.00    -0.076 SA
HETATM    7  N1  UNL     1      17.309  76.477   9.713  1.00  0.00    -0.308 N 
HETATM    8  C10 UNL     1      18.588  77.045   9.405  1.00  0.00     0.181 A 
HETATM    9  S2  UNL     1      19.713  77.065  10.530  1.00  0.00    -0.040 SA
HETATM   10  N2  UNL     1      18.761  77.544   8.118  1.00  0.00    -0.337 N 
HETATM   11  C11 UNL     1      20.100  78.113   7.849  1.00  0.00     0.158 C 
HETATM   12  C12 UNL     1      17.857  77.582   7.058  1.00  0.00     0.107 A 
ENDROOT
BRANCH   7  13
HETATM   13  C6  UNL     1      17.034  75.951  10.985  1.00  0.00     0.029 C 
HETATM   14  C7  UNL     1      17.301  74.428  10.906  1.00  0.00     0.038 C 
HETATM   15  C8  UNL     1      15.598  76.047  11.430  1.00  0.00     0.038 C 
HETATM   16  C9  UNL     1      17.896  76.418  12.126  1.00  0.00     0.038 C 
ENDBRANCH   7  13
TORSDOF 1
ENDMDL
MODEL 5
REMARK VINA RESULT: -6.185904291      1.345      3.523
REMARK  1 active torsions:
REMARK  status: ('A' for Active; 'I' for Inactive)
REMARK    1  A    between atoms: N1_7  and  C6_8 
ROOT
HETATM    1  C1  UNL     1      13.449  76.506   6.639  1.00  0.00     0.056 C 
HETATM    2  C2  UNL     1      14.611  76.564   7.609  1.00  0.00    -0.018 A 
HETATM    3  C3  UNL     1      14.643  76.122   8.884  1.00  0.00     0.029 A 
HETATM    4  C4  UNL     1      15.802  76.276   9.586  1.00  0.00     0.015 A 
HETATM    5  C5  UNL     1      16.845  76.870   8.933  1.00  0.00     0.091 A 
HETATM    6  S1  UNL     1      16.167  77.189   7.374  1.00  0.00    -0.076 SA
HETATM    7  N1  UNL     1      18.132  77.106   9.540  1.00  0.00    -0.308 N 
HETATM    8  C10 UNL     1      18.322  76.694  10.899  1.00  0.00     0.181 A 
HETATM    9  S2  UNL     1      19.733  76.950  11.591  1.00  0.00    -0.040 SA
HETATM   10  N2  UNL     1      17.239  76.092  11.531  1.00  0.00    -0.337 N 
HETATM   11  C11 UNL     1      17.485  75.692  12.934  1.00  0.00     0.158 C 
HETATM   12  C12 UNL     1      15.967  75.817  11.031  1.00  0.00     0.107 A 
ENDROOT
BRANCH   7  13
HETATM   13  C6  UNL     1      19.166  77.719   8.814  1.00  0.00     0.029 C 
HETATM   14  C7  UNL     1      18.767  77.645   7.320  1.00  0.00     0.038 C 
HETATM   15  C8  UNL     1      20.500  77.021   8.871  1.00  0.00     0.038 C 
HETATM   16  C9  UNL     1      19.407  79.183   9.060  1.00  0.00     0.038 C 
ENDBRANCH   7  13
TORSDOF 1
ENDMDL
