MODEL 1
REMARK VINA RESULT: -8.210731659      0.000      0.000
REMARK  1 active torsions:
REMARK  status: ('A' for Active; 'I' for Inactive)
REMARK    1  A    between atoms: C2_2  and  O1_3 
ROOT
HETATM    1  C1  UNL     1      15.056  77.901   5.752  1.00  0.00     0.046 C 
HETATM    2  C2  UNL     1      16.314  77.096   6.102  1.00  0.00     0.062 C 
HETATM    3  C3  UNL     1      16.880  77.588   7.427  1.00  0.00     0.039 C 
HETATM    4  C4  UNL     1      18.046  76.716   7.759  1.00  0.00     0.014 C 
HETATM    5  C5  UNL     1      17.807  76.075   9.083  1.00  0.00    -0.025 C 
HETATM    6  C6  UNL     1      16.446  75.443   9.107  1.00  0.00     0.084 C 
HETATM    7  S1  UNL     1      15.853  74.793   7.597  1.00  0.00    -0.165 SA
HETATM    8  C7  UNL     1      16.063  75.629   6.097  1.00  0.00     0.111 C 
HETATM    9  C8  UNL     1      18.913  75.097   9.370  1.00  0.00    -0.004 C 
HETATM   10  C9  UNL     1      18.836  74.528  10.774  1.00  0.00     0.010 C 
HETATM   11  C10 UNL     1      18.817  75.639  11.785  1.00  0.00    -0.013 C 
HETATM   12  C11 UNL     1      20.126  76.402  11.690  1.00  0.00     0.009 C 
HETATM   13  C12 UNL     1      20.235  77.008  10.286  1.00  0.00    -0.013 C 
HETATM   14  C13 UNL     1      20.227  75.869   9.307  1.00  0.00     0.010 C 
HETATM   15  C14 UNL     1      19.094  77.956  10.128  1.00  0.00     0.010 C 
HETATM   16  C15 UNL     1      17.811  77.165  10.140  1.00  0.00    -0.004 C 
HETATM   17  C16 UNL     1      17.663  76.561  11.534  1.00  0.00     0.010 C 
ENDROOT
BRANCH   2  18
HETATM   18  O1  UNL     1      17.261  77.465   5.142  1.00  0.00    -0.389 OA
ATOM     19  H1  UNL     1      18.087  77.125   5.466  1.00  0.00     0.210 HD
ENDBRANCH   2  18
TORSDOF 1
ENDMDL
MODEL 2
REMARK VINA RESULT: -8.141656726      1.663      2.377
REMARK  1 active torsions:
REMARK  status: ('A' for Active; 'I' for Inactive)
REMARK    1  A    between atoms: C2_2  and  O1_3 
ROOT
HETATM    1  C1  UNL     1      13.585  75.482   7.592  1.00  0.00     0.046 C 
HETATM    2  C2  UNL     1      14.801  76.372   7.876  1.00  0.00     0.062 C 
HETATM    3  C3  UNL     1      15.521  75.867   9.118  1.00  0.00     0.039 C 
HETATM    4  C4  UNL     1      16.739  76.712   9.297  1.00  0.00     0.014 C 
HETATM    5  C5  UNL     1      17.941  75.831   9.292  1.00  0.00    -0.025 C 
HETATM    6  C6  UNL     1      17.903  74.919   8.100  1.00  0.00     0.084 C 
HETATM    7  S1  UNL     1      17.163  75.552   6.649  1.00  0.00    -0.165 SA
HETATM    8  C7  UNL     1      15.705  76.482   6.697  1.00  0.00     0.111 C 
HETATM    9  C8  UNL     1      19.182  76.680   9.342  1.00  0.00    -0.004 C 
HETATM   10  C9  UNL     1      20.444  75.857   9.513  1.00  0.00     0.010 C 
HETATM   11  C10 UNL     1      20.333  74.985  10.732  1.00  0.00    -0.013 C 
HETATM   12  C11 UNL     1      20.219  75.875  11.956  1.00  0.00     0.009 C 
HETATM   13  C12 UNL     1      18.943  76.715  11.828  1.00  0.00    -0.013 C 
HETATM   14  C13 UNL     1      19.083  77.552  10.589  1.00  0.00     0.010 C 
HETATM   15  C14 UNL     1      17.793  75.765  11.795  1.00  0.00     0.010 C 
HETATM   16  C15 UNL     1      17.883  74.951  10.529  1.00  0.00    -0.004 C 
HETATM   17  C16 UNL     1      19.137  74.087  10.631  1.00  0.00     0.010 C 
ENDROOT
BRANCH   2  18
HETATM   18  O1  UNL     1      14.269  77.611   8.241  1.00  0.00    -0.389 OA
ATOM     19  H1  UNL     1      13.629  77.814   7.567  1.00  0.00     0.210 HD
ENDBRANCH   2  18
TORSDOF 1
ENDMDL
MODEL 3
REMARK VINA RESULT: -8.103598550      1.706      2.577
REMARK  1 active torsions:
REMARK  status: ('A' for Active; 'I' for Inactive)
REMARK    1  A    between atoms: C2_2  and  O1_3 
ROOT
HETATM    1  C1  UNL     1      13.881  75.176   8.159  1.00  0.00     0.046 C 
HETATM    2  C2  UNL     1      14.919  76.257   7.832  1.00  0.00     0.062 C 
HETATM    3  C3  UNL     1      15.935  76.343   8.962  1.00  0.00     0.039 C 
HETATM    4  C4  UNL     1      16.965  77.345   8.554  1.00  0.00     0.014 C 
HETATM    5  C5  UNL     1      18.302  76.687   8.556  1.00  0.00    -0.025 C 
HETATM    6  C6  UNL     1      18.243  75.404   7.780  1.00  0.00     0.084 C 
HETATM    7  S1  UNL     1      17.144  75.355   6.422  1.00  0.00    -0.165 SA
HETATM    8  C7  UNL     1      15.558  76.041   6.505  1.00  0.00     0.111 C 
HETATM    9  C8  UNL     1      19.330  77.648   8.023  1.00  0.00    -0.004 C 
HETATM   10  C9  UNL     1      20.745  77.117   8.151  1.00  0.00     0.010 C 
HETATM   11  C10 UNL     1      21.033  76.749   9.579  1.00  0.00    -0.013 C 
HETATM   12  C11 UNL     1      20.956  78.005  10.428  1.00  0.00     0.009 C 
HETATM   13  C12 UNL     1      19.532  78.566  10.337  1.00  0.00    -0.013 C 
HETATM   14  C13 UNL     1      19.276  78.898   8.895  1.00  0.00     0.010 C 
HETATM   15  C14 UNL     1      18.616  77.531  10.896  1.00  0.00     0.010 C 
HETATM   16  C15 UNL     1      18.646  76.327   9.990  1.00  0.00    -0.004 C 
HETATM   17  C16 UNL     1      20.050  75.731  10.071  1.00  0.00     0.010 C 
ENDROOT
BRANCH   2  18
HETATM   18  O1  UNL     1      14.215  77.463   7.881  1.00  0.00    -0.389 OA
ATOM     19  H1  UNL     1      14.774  78.093   7.440  1.00  0.00     0.210 HD
ENDBRANCH   2  18
TORSDOF 1
ENDMDL
MODEL 4
REMARK VINA RESULT: -8.004776121      1.220      1.611
REMARK  1 active torsions:
REMARK  status: ('A' for Active; 'I' for Inactive)
REMARK    1  A    between atoms: C2_2  and  O1_3 
ROOT
HETATM    1  C1  UNL     1      16.460  77.575   5.205  1.00  0.00     0.046 C 
HETATM    2  C2  UNL     1      16.625  76.415   6.195  1.00  0.00     0.062 C 
HETATM    3  C3  UNL     1      17.794  76.705   7.126  1.00  0.00     0.039 C 
HETATM    4  C4  UNL     1      17.854  75.590   8.118  1.00  0.00     0.014 C 
HETATM    5  C5  UNL     1      17.735  76.160   9.490  1.00  0.00    -0.025 C 
HETATM    6  C6  UNL     1      16.553  77.083   9.561  1.00  0.00     0.084 C 
HETATM    7  S1  UNL     1      15.179  76.679   8.559  1.00  0.00    -0.165 SA
HETATM    8  C7  UNL     1      15.365  76.121   6.932  1.00  0.00     0.111 C 
HETATM    9  C8  UNL     1      17.665  75.039  10.491  1.00  0.00    -0.004 C 
HETATM   10  C9  UNL     1      17.715  75.535  11.924  1.00  0.00     0.010 C 
HETATM   11  C10 UNL     1      18.940  76.379  12.138  1.00  0.00    -0.013 C 
HETATM   12  C11 UNL     1      20.168  75.512  11.928  1.00  0.00     0.009 C 
HETATM   13  C12 UNL     1      20.162  75.003  10.482  1.00  0.00    -0.013 C 
HETATM   14  C13 UNL     1      18.915  74.186  10.303  1.00  0.00     0.010 C 
HETATM   15  C14 UNL     1      20.240  76.200   9.595  1.00  0.00     0.010 C 
HETATM   16  C15 UNL     1      18.972  76.998   9.759  1.00  0.00    -0.004 C 
HETATM   17  C16 UNL     1      18.955  77.537  11.187  1.00  0.00     0.010 C 
ENDROOT
BRANCH   2  18
HETATM   18  O1  UNL     1      17.038  75.330   5.418  1.00  0.00    -0.389 OA
ATOM     19  H1  UNL     1      17.763  75.658   4.899  1.00  0.00     0.210 HD
ENDBRANCH   2  18
TORSDOF 1
ENDMDL
MODEL 5
REMARK VINA RESULT: -7.835930641      1.935      2.565
REMARK  1 active torsions:
REMARK  status: ('A' for Active; 'I' for Inactive)
REMARK    1  A    between atoms: C2_2  and  O1_3 
ROOT
HETATM    1  C1  UNL     1      15.714  74.531   5.488  1.00  0.00     0.046 C 
HETATM    2  C2  UNL     1      16.450  74.351   6.822  1.00  0.00     0.062 C 
HETATM    3  C3  UNL     1      17.589  75.358   6.913  1.00  0.00     0.039 C 
HETATM    4  C4  UNL     1      18.213  75.197   8.260  1.00  0.00     0.014 C 
HETATM    5  C5  UNL     1      18.149  76.501   8.979  1.00  0.00    -0.025 C 
HETATM    6  C6  UNL     1      16.750  77.045   8.928  1.00  0.00     0.084 C 
HETATM    7  S1  UNL     1      15.451  75.876   8.926  1.00  0.00    -0.165 SA
HETATM    8  C7  UNL     1      15.528  74.424   7.988  1.00  0.00     0.111 C 
HETATM    9  C8  UNL     1      18.657  76.321  10.383  1.00  0.00    -0.004 C 
HETATM   10  C9  UNL     1      18.785  77.635  11.128  1.00  0.00     0.010 C 
HETATM   11  C10 UNL     1      19.652  78.588  10.355  1.00  0.00    -0.013 C 
HETATM   12  C11 UNL     1      21.047  78.001  10.255  1.00  0.00     0.009 C 
HETATM   13  C12 UNL     1      20.963  76.674   9.491  1.00  0.00    -0.013 C 
HETATM   14  C13 UNL     1      20.072  75.761  10.284  1.00  0.00     0.010 C 
HETATM   15  C14 UNL     1      20.455  76.986   8.124  1.00  0.00     0.010 C 
HETATM   16  C15 UNL     1      19.039  77.487   8.244  1.00  0.00    -0.004 C 
HETATM   17  C16 UNL     1      19.088  78.820   8.985  1.00  0.00     0.010 C 
ENDROOT
BRANCH   2  18
HETATM   18  O1  UNL     1      17.073  73.104   6.729  1.00  0.00    -0.389 OA
ATOM     19  H1  UNL     1      16.364  72.482   6.605  1.00  0.00     0.210 HD
ENDBRANCH   2  18
TORSDOF 1
ENDMDL
