MODEL 1
REMARK VINA RESULT: -8.869614314      0.000      0.000
REMARK  1 active torsions:
REMARK  status: ('A' for Active; 'I' for Inactive)
REMARK    1  A    between atoms: O1_1  and  C1_3 
ROOT
HETATM    1  C1  UNL     1      19.411  77.728  10.920  1.00  0.00     0.124 C 
HETATM    2  C2  UNL     1      18.752  77.496   9.627  1.00  0.00     0.040 C 
HETATM    3  C3  UNL     1      17.481  76.711   9.718  1.00  0.00     0.031 C 
HETATM    4  C4  UNL     1      16.693  76.619   8.468  1.00  0.00    -0.034 C 
HETATM    5  C5  UNL     1      17.343  77.111   7.224  1.00  0.00     0.010 C 
HETATM    6  C6  UNL     1      16.472  78.032   6.395  1.00  0.00     0.001 C 
HETATM    7  C7  UNL     1      15.145  77.319   6.203  1.00  0.00     0.000 C 
HETATM    8  C8  UNL     1      14.467  77.391   7.534  1.00  0.00     0.001 C 
HETATM    9  C9  UNL     1      15.304  77.142   8.705  1.00  0.00     0.010 C 
HETATM   10  C10 UNL     1      16.516  75.098   8.279  1.00  0.00     0.013 C 
HETATM   11  C11 UNL     1      16.534  74.572   9.668  1.00  0.00     0.039 C 
HETATM   12  C12 UNL     1      17.742  75.331  10.255  1.00  0.00     0.065 C 
HETATM   13  C13 UNL     1      18.960  74.702   9.670  1.00  0.00     0.038 C 
HETATM   14  C14 UNL     1      20.230  74.897  10.377  1.00  0.00     0.004 C 
HETATM   15  C15 UNL     1      20.189  75.472  11.730  1.00  0.00     0.009 C 
HETATM   16  C16 UNL     1      19.375  76.683  11.954  1.00  0.00     0.038 C 
HETATM   17  C17 UNL     1      17.992  76.251  12.380  1.00  0.00     0.176 C 
HETATM   18  O2  UNL     1      17.604  75.206  11.604  1.00  0.00    -0.379 OA
ENDROOT
BRANCH   1  19
HETATM   19  O1  UNL     1      20.773  78.017  10.667  1.00  0.00    -0.395 OA
ATOM     20  H1  UNL     1      21.015  78.768  11.198  1.00  0.00     0.210 HD
ENDBRANCH   1  19
TORSDOF 1
ENDMDL
MODEL 2
REMARK VINA RESULT: -8.485958222      2.007      5.029
REMARK  1 active torsions:
REMARK  status: ('A' for Active; 'I' for Inactive)
REMARK    1  A    between atoms: O1_1  and  C1_3 
ROOT
HETATM    1  C1  UNL     1      17.216  76.241   6.451  1.00  0.00     0.124 C 
HETATM    2  C2  UNL     1      17.729  76.855   7.684  1.00  0.00     0.040 C 
HETATM    3  C3  UNL     1      17.477  76.052   8.921  1.00  0.00     0.031 C 
HETATM    4  C4  UNL     1      18.140  76.541  10.150  1.00  0.00    -0.034 C 
HETATM    5  C5  UNL     1      18.789  77.878  10.080  1.00  0.00     0.010 C 
HETATM    6  C6  UNL     1      20.197  77.911  10.639  1.00  0.00     0.001 C 
HETATM    7  C7  UNL     1      20.131  77.288  12.021  1.00  0.00     0.000 C 
HETATM    8  C8  UNL     1      19.944  75.823  11.781  1.00  0.00     0.001 C 
HETATM    9  C9  UNL     1      18.999  75.452  10.731  1.00  0.00     0.010 C 
HETATM   10  C10 UNL     1      16.969  76.692  11.142  1.00  0.00     0.013 C 
HETATM   11  C11 UNL     1      15.999  75.662  10.692  1.00  0.00     0.039 C 
HETATM   12  C12 UNL     1      16.002  75.899   9.168  1.00  0.00     0.065 C 
HETATM   13  C13 UNL     1      15.243  77.161   8.937  1.00  0.00     0.038 C 
HETATM   14  C14 UNL     1      14.695  77.387   7.595  1.00  0.00     0.004 C 
HETATM   15  C15 UNL     1      14.703  76.264   6.645  1.00  0.00     0.009 C 
HETATM   16  C16 UNL     1      15.951  75.492   6.482  1.00  0.00     0.038 C 
HETATM   17  C17 UNL     1      15.918  74.332   7.448  1.00  0.00     0.176 C 
HETATM   18  O2  UNL     1      15.447  74.772   8.643  1.00  0.00    -0.379 OA
ENDROOT
BRANCH   1  19
HETATM   19  O1  UNL     1      17.070  77.265   5.484  1.00  0.00    -0.395 OA
ATOM     20  H1  UNL     1      17.157  76.869   4.625  1.00  0.00     0.210 HD
ENDBRANCH   1  19
TORSDOF 1
ENDMDL
MODEL 3
REMARK VINA RESULT: -8.320396050      1.552      3.072
REMARK  1 active torsions:
REMARK  status: ('A' for Active; 'I' for Inactive)
REMARK    1  A    between atoms: O1_1  and  C1_3 
ROOT
HETATM    1  C1  UNL     1      19.532  76.030  11.037  1.00  0.00     0.124 C 
HETATM    2  C2  UNL     1      18.179  76.305  10.536  1.00  0.00     0.040 C 
HETATM    3  C3  UNL     1      18.042  76.210   9.049  1.00  0.00     0.031 C 
HETATM    4  C4  UNL     1      16.661  76.293   8.523  1.00  0.00    -0.034 C 
HETATM    5  C5  UNL     1      15.597  76.684   9.486  1.00  0.00     0.010 C 
HETATM    6  C6  UNL     1      14.372  75.793   9.447  1.00  0.00     0.001 C 
HETATM    7  C7  UNL     1      13.941  75.709   7.995  1.00  0.00     0.000 C 
HETATM    8  C8  UNL     1      14.962  74.836   7.335  1.00  0.00     0.001 C 
HETATM    9  C9  UNL     1      16.355  75.070   7.705  1.00  0.00     0.010 C 
HETATM   10  C10 UNL     1      16.746  77.444   7.500  1.00  0.00     0.013 C 
HETATM   11  C11 UNL     1      18.154  77.384   7.028  1.00  0.00     0.039 C 
HETATM   12  C12 UNL     1      18.907  77.233   8.366  1.00  0.00     0.065 C 
HETATM   13  C13 UNL     1      18.859  78.567   9.029  1.00  0.00     0.038 C 
HETATM   14  C14 UNL     1      19.859  78.846  10.065  1.00  0.00     0.004 C 
HETATM   15  C15 UNL     1      20.987  77.913  10.208  1.00  0.00     0.009 C 
HETATM   16  C16 UNL     1      20.701  76.466  10.257  1.00  0.00     0.038 C 
HETATM   17  C17 UNL     1      20.770  75.922   8.850  1.00  0.00     0.176 C 
HETATM   18  O2  UNL     1      20.147  76.793   8.015  1.00  0.00    -0.379 OA
ENDROOT
BRANCH   1  19
HETATM   19  O1  UNL     1      19.647  76.614  12.321  1.00  0.00    -0.395 OA
ATOM     20  H1  UNL     1      20.101  75.997  12.883  1.00  0.00     0.210 HD
ENDBRANCH   1  19
TORSDOF 1
ENDMDL
MODEL 4
REMARK VINA RESULT: -8.270047317      1.468      1.872
REMARK  1 active torsions:
REMARK  status: ('A' for Active; 'I' for Inactive)
REMARK    1  A    between atoms: O1_1  and  C1_3 
ROOT
HETATM    1  C1  UNL     1      19.884  76.612   8.597  1.00  0.00     0.124 C 
HETATM    2  C2  UNL     1      18.585  76.070   8.177  1.00  0.00     0.040 C 
HETATM    3  C3  UNL     1      17.430  76.526   9.011  1.00  0.00     0.031 C 
HETATM    4  C4  UNL     1      16.088  76.155   8.509  1.00  0.00    -0.034 C 
HETATM    5  C5  UNL     1      16.036  75.194   7.374  1.00  0.00     0.010 C 
HETATM    6  C6  UNL     1      15.120  75.621   6.245  1.00  0.00     0.001 C 
HETATM    7  C7  UNL     1      13.783  75.964   6.875  1.00  0.00     0.000 C 
HETATM    8  C8  UNL     1      14.005  77.263   7.582  1.00  0.00     0.001 C 
HETATM    9  C9  UNL     1      15.255  77.393   8.327  1.00  0.00     0.010 C 
HETATM   10  C10 UNL     1      15.455  75.424   9.710  1.00  0.00     0.013 C 
HETATM   11  C11 UNL     1      16.107  76.058  10.884  1.00  0.00     0.039 C 
HETATM   12  C12 UNL     1      17.583  76.064  10.434  1.00  0.00     0.065 C 
HETATM   13  C13 UNL     1      18.060  74.656  10.538  1.00  0.00     0.038 C 
HETATM   14  C14 UNL     1      19.508  74.435  10.621  1.00  0.00     0.004 C 
HETATM   15  C15 UNL     1      20.374  75.601  10.853  1.00  0.00     0.009 C 
HETATM   16  C16 UNL     1      20.164  76.807  10.028  1.00  0.00     0.038 C 
HETATM   17  C17 UNL     1      19.197  77.712  10.752  1.00  0.00     0.176 C 
HETATM   18  O2  UNL     1      18.192  76.956  11.264  1.00  0.00    -0.379 OA
ENDROOT
BRANCH   1  19
HETATM   19  O1  UNL     1      20.895  75.764   8.086  1.00  0.00    -0.395 OA
ATOM     20  H1  UNL     1      20.477  74.979   7.752  1.00  0.00     0.210 HD
ENDBRANCH   1  19
TORSDOF 1
ENDMDL
MODEL 5
REMARK VINA RESULT: -7.877066791      1.586      2.195
REMARK  1 active torsions:
REMARK  status: ('A' for Active; 'I' for Inactive)
REMARK    1  A    between atoms: O1_1  and  C1_3 
ROOT
HETATM    1  C1  UNL     1      19.464  78.168   8.322  1.00  0.00     0.124 C 
HETATM    2  C2  UNL     1      18.514  77.082   8.042  1.00  0.00     0.040 C 
HETATM    3  C3  UNL     1      17.615  76.741   9.188  1.00  0.00     0.031 C 
HETATM    4  C4  UNL     1      16.524  75.787   8.888  1.00  0.00    -0.034 C 
HETATM    5  C5  UNL     1      16.571  75.105   7.567  1.00  0.00     0.010 C 
HETATM    6  C6  UNL     1      15.256  75.129   6.814  1.00  0.00     0.001 C 
HETATM    7  C7  UNL     1      14.195  74.624   7.774  1.00  0.00     0.000 C 
HETATM    8  C8  UNL     1      13.994  75.736   8.754  1.00  0.00     0.001 C 
HETATM    9  C9  UNL     1      15.199  76.407   9.233  1.00  0.00     0.010 C 
HETATM   10  C10 UNL     1      16.729  74.680   9.942  1.00  0.00     0.013 C 
HETATM   11  C11 UNL     1      17.343  75.400  11.087  1.00  0.00     0.039 C 
HETATM   12  C12 UNL     1      18.412  76.246  10.364  1.00  0.00     0.065 C 
HETATM   13  C13 UNL     1      19.499  75.305   9.972  1.00  0.00     0.038 C 
HETATM   14  C14 UNL     1      20.821  75.875   9.692  1.00  0.00     0.004 C 
HETATM   15  C15 UNL     1      21.061  77.280  10.057  1.00  0.00     0.009 C 
HETATM   16  C16 UNL     1      20.059  78.289   9.661  1.00  0.00     0.038 C 
HETATM   17  C17 UNL     1      19.068  78.439  10.791  1.00  0.00     0.176 C 
HETATM   18  O2  UNL     1      18.759  77.206  11.266  1.00  0.00    -0.379 OA
ENDROOT
BRANCH   1  19
HETATM   19  O1  UNL     1      20.532  78.060   7.399  1.00  0.00    -0.395 OA
ATOM     20  H1  UNL     1      21.144  77.415   7.735  1.00  0.00     0.210 HD
ENDBRANCH   1  19
TORSDOF 1
ENDMDL
