MODEL 1
REMARK VINA RESULT: -9.684487754      0.000      0.000
REMARK  11 active torsions:
REMARK  status: ('A' for Active; 'I' for Inactive)
REMARK    1  A    between atoms: C2_2  and  C3_3 
REMARK    2  A    between atoms: C11_14  and  C12_15 
REMARK    3  A    between atoms: C12_15  and  C13_16 
REMARK    4  A    between atoms: C13_16  and  C14_17 
REMARK    5  A    between atoms: C15_18  and  C16_19 
REMARK    6  A    between atoms: C16_19  and  C17_20 
REMARK    7  A    between atoms: C20_23  and  C21_24 
REMARK    8  A    between atoms: C22_25  and  C23_26 
REMARK    9  A    between atoms: N3_35  and  C27_36 
REMARK   10  A    between atoms: C27_36  and  C28_37 
REMARK   11  A    between atoms: C31_40  and  C32_41 
ROOT
HETATM    1  C14 UNL     1       4.883  -1.267  13.274  1.00  0.00     0.043 A 
HETATM    2  C15 UNL     1       4.402  -0.018  13.568  1.00  0.00     0.041 A 
HETATM    3  N2  UNL     1       5.458   0.773  13.805  1.00  0.00    -0.310 N 
ATOM      4  H2  UNL     1       5.412   1.762  14.051  1.00  0.00     0.170 HD
HETATM    5  C26 UNL     1       6.572   0.070  13.669  1.00  0.00     0.327 A 
HETATM    6  O4  UNL     1       7.720   0.567  13.835  1.00  0.00    -0.246 OA
HETATM    7  N3  UNL     1       6.213  -1.194  13.341  1.00  0.00    -0.297 N 
ENDROOT
BRANCH   1   8
HETATM    8  C13 UNL     1       4.056  -2.500  12.929  1.00  0.00     0.087 C 
BRANCH   8   9
HETATM    9  C12 UNL     1       3.186  -2.862  14.041  1.00  0.00    -0.003 C 
BRANCH   9  10
HETATM   10  C11 UNL     1       3.270  -3.539  15.129  1.00  0.00     0.038 A 
HETATM   11  C3  UNL     1       3.640  -3.061  16.358  1.00  0.00     0.042 A 
HETATM   12  N1  UNL     1       3.632  -3.862  17.474  1.00  0.00    -0.355 N 
HETATM   13  C4  UNL     1       3.263  -5.156  17.407  1.00  0.00     0.046 A 
ATOM     14  H1  UNL     1       3.913  -3.468  18.373  1.00  0.00     0.166 HD
HETATM   15  C5  UNL     1       3.267  -5.928  18.558  1.00  0.00     0.030 A 
HETATM   16  C9  UNL     1       2.881  -5.711  16.212  1.00  0.00     0.042 A 
HETATM   17  C6  UNL     1       2.896  -7.247  18.527  1.00  0.00     0.002 A 
HETATM   18  C7  UNL     1       2.513  -7.785  17.298  1.00  0.00     0.001 A 
HETATM   19  C8  UNL     1       2.501  -7.041  16.150  1.00  0.00     0.018 A 
HETATM   20  C10 UNL     1       2.889  -4.911  15.102  1.00  0.00     0.196 A 
HETATM   21  O1  UNL     1       2.537  -5.422  13.998  1.00  0.00    -0.286 OA
BRANCH  11  22
HETATM   22  C2  UNL     1       4.046  -1.827  16.589  1.00  0.00    -0.001 C 
HETATM   23  C1  UNL     1       5.501  -1.554  16.846  1.00  0.00     0.038 C 
ENDBRANCH  11  22
ENDBRANCH   9  10
ENDBRANCH   8   9
ENDBRANCH   1   8
BRANCH   2  24
HETATM   24  C16 UNL     1       3.026   0.461  13.620  1.00  0.00     0.097 C 
BRANCH  24  25
HETATM   25  C17 UNL     1       2.427   1.041  12.435  1.00  0.00    -0.052 A 
HETATM   26  C18 UNL     1       2.861   2.248  11.894  1.00  0.00     0.008 A 
HETATM   27  C19 UNL     1       2.331   2.807  10.750  1.00  0.00     0.012 A 
HETATM   28  C20 UNL     1       1.314   2.175  10.068  1.00  0.00    -0.036 A 
HETATM   29  C24 UNL     1       0.866   0.961  10.597  1.00  0.00     0.012 A 
HETATM   30  C25 UNL     1       1.412   0.428  11.739  1.00  0.00     0.008 A 
BRANCH  28  31
HETATM   31  C21 UNL     1       0.729   2.716   8.859  1.00  0.00     0.018 C 
HETATM   32  C22 UNL     1       1.396   3.434   7.984  1.00  0.00     0.085 C 
BRANCH  32  33
HETATM   33  C23 UNL     1       0.735   3.946   6.786  1.00  0.00     0.198 C 
HETATM   34  O2  UNL     1       1.012   3.451   5.660  1.00  0.00    -0.645 OA
HETATM   35  O3  UNL     1      -0.200   4.966   6.824  1.00  0.00    -0.645 OA
ENDBRANCH  32  33
ENDBRANCH  28  31
ENDBRANCH  24  25
ENDBRANCH   2  24
BRANCH   7  36
HETATM   36  C27 UNL     1       7.166  -2.276  13.134  1.00  0.00     0.172 C 
BRANCH  36  37
HETATM   37  C28 UNL     1       7.382  -3.121  14.310  1.00  0.00    -0.040 A 
HETATM   38  C29 UNL     1       8.464  -2.813  15.137  1.00  0.00     0.010 A 
HETATM   39  C30 UNL     1       8.736  -3.557  16.255  1.00  0.00     0.015 A 
HETATM   40  C31 UNL     1       7.961  -4.633  16.609  1.00  0.00     0.004 A 
HETATM   41  C33 UNL     1       6.885  -4.967  15.816  1.00  0.00     0.015 A 
HETATM   42  C34 UNL     1       6.627  -4.196  14.685  1.00  0.00     0.010 A 
BRANCH  40  43
HETATM   43  C32 UNL     1       8.263  -5.427  17.796  1.00  0.00     0.120 C 
HETATM   44  N4  UNL     1       7.363  -6.160  18.354  1.00  0.00    -0.387 N 
ATOM     45  H42 UNL     1       6.415  -6.198  17.979  1.00  0.00     0.157 HD
ATOM     46  H41 UNL     1       7.574  -6.714  19.183  1.00  0.00     0.157 HD
HETATM   47  N5  UNL     1       9.585  -5.373  18.317  1.00  0.00    -0.082 NA
ENDBRANCH  40  43
ENDBRANCH  36  37
ENDBRANCH   7  36
TORSDOF 11
ENDMDL
MODEL 2
REMARK VINA RESULT: -9.303711487      3.366      9.189
REMARK  11 active torsions:
REMARK  status: ('A' for Active; 'I' for Inactive)
REMARK    1  A    between atoms: C2_2  and  C3_3 
REMARK    2  A    between atoms: C11_14  and  C12_15 
REMARK    3  A    between atoms: C12_15  and  C13_16 
REMARK    4  A    between atoms: C13_16  and  C14_17 
REMARK    5  A    between atoms: C15_18  and  C16_19 
REMARK    6  A    between atoms: C16_19  and  C17_20 
REMARK    7  A    between atoms: C20_23  and  C21_24 
REMARK    8  A    between atoms: C22_25  and  C23_26 
REMARK    9  A    between atoms: N3_35  and  C27_36 
REMARK   10  A    between atoms: C27_36  and  C28_37 
REMARK   11  A    between atoms: C31_40  and  C32_41 
ROOT
HETATM    1  C14 UNL     1       5.984  -2.622  14.762  1.00  0.00     0.043 A 
HETATM    2  C15 UNL     1       7.191  -1.980  14.854  1.00  0.00     0.041 A 
HETATM    3  N2  UNL     1       6.940  -0.687  15.106  1.00  0.00    -0.310 N 
ATOM      4  H2  UNL     1       7.646   0.039  15.226  1.00  0.00     0.170 HD
HETATM    5  C26 UNL     1       5.630  -0.501  15.174  1.00  0.00     0.327 A 
HETATM    6  O4  UNL     1       5.111   0.627  15.402  1.00  0.00    -0.246 OA
HETATM    7  N3  UNL     1       5.040  -1.701  14.960  1.00  0.00    -0.297 N 
ENDROOT
BRANCH   1   8
HETATM    8  C13 UNL     1       5.764  -4.106  14.491  1.00  0.00     0.087 C 
BRANCH   8   9
HETATM    9  C12 UNL     1       5.415  -4.805  15.721  1.00  0.00    -0.003 C 
BRANCH   9  10
HETATM   10  C11 UNL     1       4.565  -5.692  16.100  1.00  0.00     0.038 A 
HETATM   11  C3  UNL     1       3.312  -5.890  15.582  1.00  0.00     0.042 A 
HETATM   12  N1  UNL     1       2.508  -6.915  16.018  1.00  0.00    -0.355 N 
HETATM   13  C4  UNL     1       2.916  -7.768  16.977  1.00  0.00     0.046 A 
ATOM     14  H1  UNL     1       1.582  -7.032  15.606  1.00  0.00     0.166 HD
HETATM   15  C5  UNL     1       2.073  -8.790  17.386  1.00  0.00     0.030 A 
HETATM   16  C9  UNL     1       4.157  -7.635  17.549  1.00  0.00     0.042 A 
HETATM   17  C6  UNL     1       2.456  -9.677  18.359  1.00  0.00     0.002 A 
HETATM   18  C7  UNL     1       3.722  -9.516  18.922  1.00  0.00     0.001 A 
HETATM   19  C8  UNL     1       4.570  -8.515  18.533  1.00  0.00     0.018 A 
HETATM   20  C10 UNL     1       4.956  -6.614  17.112  1.00  0.00     0.196 A 
HETATM   21  O1  UNL     1       6.101  -6.488  17.639  1.00  0.00    -0.286 OA
BRANCH  11  22
HETATM   22  C2  UNL     1       2.758  -5.135  14.653  1.00  0.00    -0.001 C 
HETATM   23  C1  UNL     1       1.277  -5.215  14.410  1.00  0.00     0.038 C 
ENDBRANCH  11  22
ENDBRANCH   9  10
ENDBRANCH   8   9
ENDBRANCH   1   8
BRANCH   2  24
HETATM   24  C16 UNL     1       8.543  -2.516  14.736  1.00  0.00     0.097 C 
BRANCH  24  25
HETATM   25  C17 UNL     1       8.827  -3.849  15.227  1.00  0.00    -0.052 A 
HETATM   26  C18 UNL     1       8.879  -4.149  16.585  1.00  0.00     0.008 A 
HETATM   27  C19 UNL     1       9.116  -5.415  17.080  1.00  0.00     0.012 A 
HETATM   28  C20 UNL     1       9.319  -6.474  16.223  1.00  0.00    -0.036 A 
HETATM   29  C24 UNL     1       9.270  -6.191  14.855  1.00  0.00     0.012 A 
HETATM   30  C25 UNL     1       9.032  -4.920  14.390  1.00  0.00     0.008 A 
BRANCH  28  31
HETATM   31  C21 UNL     1       9.564  -7.823  16.691  1.00  0.00     0.018 C 
HETATM   32  C22 UNL     1       8.610  -8.683  16.967  1.00  0.00     0.085 C 
BRANCH  32  33
HETATM   33  C23 UNL     1       8.938 -10.028  17.436  1.00  0.00     0.198 C 
HETATM   34  O2  UNL     1       9.011 -10.977  16.608  1.00  0.00    -0.645 OA
HETATM   35  O3  UNL     1       9.178 -10.320  18.767  1.00  0.00    -0.645 OA
ENDBRANCH  32  33
ENDBRANCH  28  31
ENDBRANCH  24  25
ENDBRANCH   2  24
BRANCH   7  36
HETATM   36  C27 UNL     1       3.597  -1.897  14.930  1.00  0.00     0.172 C 
BRANCH  36  37
HETATM   37  C28 UNL     1       2.910  -1.152  13.873  1.00  0.00    -0.040 A 
HETATM   38  C29 UNL     1       1.620  -0.689  14.143  1.00  0.00     0.010 A 
HETATM   39  C30 UNL     1       0.909   0.013  13.205  1.00  0.00     0.015 A 
HETATM   40  C31 UNL     1       1.431   0.291  11.967  1.00  0.00     0.004 A 
HETATM   41  C33 UNL     1       2.700  -0.150  11.665  1.00  0.00     0.015 A 
HETATM   42  C34 UNL     1       3.405  -0.861  12.634  1.00  0.00     0.010 A 
BRANCH  40  43
HETATM   43  C32 UNL     1       0.663   1.031  10.971  1.00  0.00     0.120 C 
HETATM   44  N4  UNL     1       0.943   0.945   9.716  1.00  0.00    -0.387 N 
ATOM     45  H42 UNL     1       1.712   0.359   9.392  1.00  0.00     0.157 HD
ATOM     46  H41 UNL     1       0.406   1.463   9.020  1.00  0.00     0.157 HD
HETATM   47  N5  UNL     1      -0.409   1.847  11.423  1.00  0.00    -0.082 NA
ENDBRANCH  40  43
ENDBRANCH  36  37
ENDBRANCH   7  36
TORSDOF 11
ENDMDL
MODEL 3
REMARK VINA RESULT: -9.283337795      3.487     10.630
REMARK  11 active torsions:
REMARK  status: ('A' for Active; 'I' for Inactive)
REMARK    1  A    between atoms: C2_2  and  C3_3 
REMARK    2  A    between atoms: C11_14  and  C12_15 
REMARK    3  A    between atoms: C12_15  and  C13_16 
REMARK    4  A    between atoms: C13_16  and  C14_17 
REMARK    5  A    between atoms: C15_18  and  C16_19 
REMARK    6  A    between atoms: C16_19  and  C17_20 
REMARK    7  A    between atoms: C20_23  and  C21_24 
REMARK    8  A    between atoms: C22_25  and  C23_26 
REMARK    9  A    between atoms: N3_35  and  C27_36 
REMARK   10  A    between atoms: C27_36  and  C28_37 
REMARK   11  A    between atoms: C31_40  and  C32_41 
ROOT
HETATM    1  C14 UNL     1       5.689  -2.547  14.129  1.00  0.00     0.043 A 
HETATM    2  C15 UNL     1       5.876  -2.718  15.476  1.00  0.00     0.041 A 
HETATM    3  N2  UNL     1       4.664  -2.758  16.047  1.00  0.00    -0.310 N 
ATOM      4  H2  UNL     1       4.485  -2.876  17.044  1.00  0.00     0.170 HD
HETATM    5  C26 UNL     1       3.734  -2.620  15.114  1.00  0.00     0.327 A 
HETATM    6  O4  UNL     1       2.499  -2.622  15.373  1.00  0.00    -0.246 OA
HETATM    7  N3  UNL     1       4.372  -2.489  13.926  1.00  0.00    -0.297 N 
ENDROOT
BRANCH   1   8
HETATM    8  C13 UNL     1       6.778  -2.450  13.067  1.00  0.00     0.087 C 
BRANCH   8   9
HETATM    9  C12 UNL     1       7.533  -1.212  13.218  1.00  0.00    -0.003 C 
BRANCH   9  10
HETATM   10  C11 UNL     1       7.386   0.030  12.924  1.00  0.00     0.038 A 
HETATM   11  C3  UNL     1       6.890   1.007  13.747  1.00  0.00     0.042 A 
HETATM   12  N1  UNL     1       6.838   2.321  13.352  1.00  0.00    -0.355 N 
HETATM   13  C4  UNL     1       7.270   2.707  12.135  1.00  0.00     0.046 A 
ATOM     14  H1  UNL     1       6.464   3.021  13.994  1.00  0.00     0.166 HD
HETATM   15  C5  UNL     1       7.202   4.045  11.778  1.00  0.00     0.030 A 
HETATM   16  C9  UNL     1       7.779   1.788  11.252  1.00  0.00     0.042 A 
HETATM   17  C6  UNL     1       7.634   4.472  10.549  1.00  0.00     0.002 A 
HETATM   18  C7  UNL     1       8.145   3.516   9.672  1.00  0.00     0.001 A 
HETATM   19  C8  UNL     1       8.222   2.190  10.004  1.00  0.00     0.018 A 
HETATM   20  C10 UNL     1       7.830   0.479  11.648  1.00  0.00     0.196 A 
HETATM   21  O1  UNL     1       8.298  -0.371  10.834  1.00  0.00    -0.286 OA
BRANCH  11  22
HETATM   22  C2  UNL     1       6.411   0.793  14.957  1.00  0.00    -0.001 C 
HETATM   23  C1  UNL     1       4.925   0.756  15.176  1.00  0.00     0.038 C 
ENDBRANCH  11  22
ENDBRANCH   9  10
ENDBRANCH   8   9
ENDBRANCH   1   8
BRANCH   2  24
HETATM   24  C16 UNL     1       7.114  -2.860  16.234  1.00  0.00     0.097 C 
BRANCH  24  25
HETATM   25  C17 UNL     1       7.669  -4.180  16.453  1.00  0.00    -0.052 A 
HETATM   26  C18 UNL     1       7.197  -5.034  17.445  1.00  0.00     0.008 A 
HETATM   27  C19 UNL     1       7.684  -6.307  17.655  1.00  0.00     0.012 A 
HETATM   28  C20 UNL     1       8.696  -6.808  16.866  1.00  0.00    -0.036 A 
HETATM   29  C24 UNL     1       9.183  -5.964  15.863  1.00  0.00     0.012 A 
HETATM   30  C25 UNL     1       8.678  -4.700  15.676  1.00  0.00     0.008 A 
BRANCH  28  31
HETATM   31  C21 UNL     1       9.238  -8.139  17.040  1.00  0.00     0.018 C 
HETATM   32  C22 UNL     1       8.504  -9.229  17.052  1.00  0.00     0.085 C 
BRANCH  32  33
HETATM   33  C23 UNL     1       9.125 -10.539  17.233  1.00  0.00     0.198 C 
HETATM   34  O2  UNL     1       8.928 -11.447  16.381  1.00  0.00    -0.645 OA
HETATM   35  O3  UNL     1       9.936 -10.840  18.314  1.00  0.00    -0.645 OA
ENDBRANCH  32  33
ENDBRANCH  28  31
ENDBRANCH  24  25
ENDBRANCH   2  24
BRANCH   7  36
HETATM   36  C27 UNL     1       3.684  -2.287  12.658  1.00  0.00     0.172 C 
BRANCH  36  37
HETATM   37  C28 UNL     1       3.346  -0.891  12.372  1.00  0.00    -0.040 A 
HETATM   38  C29 UNL     1       4.277  -0.136  11.655  1.00  0.00     0.010 A 
HETATM   39  C30 UNL     1       4.038   1.179  11.351  1.00  0.00     0.015 A 
HETATM   40  C31 UNL     1       2.880   1.807  11.735  1.00  0.00     0.004 A 
HETATM   41  C33 UNL     1       1.940   1.093  12.445  1.00  0.00     0.015 A 
HETATM   42  C34 UNL     1       2.203  -0.242  12.742  1.00  0.00     0.010 A 
BRANCH  40  43
HETATM   43  C32 UNL     1       2.637   3.210  11.416  1.00  0.00     0.120 C 
HETATM   44  N4  UNL     1       3.614   4.033  11.243  1.00  0.00    -0.387 N 
ATOM     45  H42 UNL     1       4.581   3.721  11.331  1.00  0.00     0.157 HD
ATOM     46  H41 UNL     1       3.443   5.014  11.020  1.00  0.00     0.157 HD
HETATM   47  N5  UNL     1       1.289   3.645  11.294  1.00  0.00    -0.082 NA
ENDBRANCH  40  43
ENDBRANCH  36  37
ENDBRANCH   7  36
TORSDOF 11
ENDMDL
MODEL 4
REMARK VINA RESULT: -9.260461857      3.119      5.387
REMARK  11 active torsions:
REMARK  status: ('A' for Active; 'I' for Inactive)
REMARK    1  A    between atoms: C2_2  and  C3_3 
REMARK    2  A    between atoms: C11_14  and  C12_15 
REMARK    3  A    between atoms: C12_15  and  C13_16 
REMARK    4  A    between atoms: C13_16  and  C14_17 
REMARK    5  A    between atoms: C15_18  and  C16_19 
REMARK    6  A    between atoms: C16_19  and  C17_20 
REMARK    7  A    between atoms: C20_23  and  C21_24 
REMARK    8  A    between atoms: C22_25  and  C23_26 
REMARK    9  A    between atoms: N3_35  and  C27_36 
REMARK   10  A    between atoms: C27_36  and  C28_37 
REMARK   11  A    between atoms: C31_40  and  C32_41 
ROOT
HETATM    1  C14 UNL     1       7.669  -2.841  14.316  1.00  0.00     0.043 A 
HETATM    2  C15 UNL     1       7.733  -1.575  14.836  1.00  0.00     0.041 A 
HETATM    3  N2  UNL     1       8.825  -1.515  15.613  1.00  0.00    -0.310 N 
ATOM      4  H2  UNL     1       9.133  -0.695  16.135  1.00  0.00     0.170 HD
HETATM    5  C26 UNL     1       9.440  -2.688  15.595  1.00  0.00     0.327 A 
HETATM    6  O4  UNL     1      10.500  -2.914  16.241  1.00  0.00    -0.246 OA
HETATM    7  N3  UNL     1       8.721  -3.508  14.791  1.00  0.00    -0.297 N 
ENDROOT
BRANCH   1   8
HETATM    8  C13 UNL     1       6.603  -3.380  13.368  1.00  0.00     0.087 C 
BRANCH   8   9
HETATM    9  C12 UNL     1       5.296  -3.377  14.013  1.00  0.00    -0.003 C 
BRANCH   9  10
HETATM   10  C11 UNL     1       4.229  -2.661  13.991  1.00  0.00     0.038 A 
HETATM   11  C3  UNL     1       3.372  -2.448  15.038  1.00  0.00     0.042 A 
HETATM   12  N1  UNL     1       2.292  -1.606  14.924  1.00  0.00    -0.355 N 
HETATM   13  C4  UNL     1       2.028  -0.956  13.774  1.00  0.00     0.046 A 
ATOM     14  H1  UNL     1       1.677  -1.472  15.726  1.00  0.00     0.166 HD
HETATM   15  C5  UNL     1       0.929  -0.114  13.702  1.00  0.00     0.030 A 
HETATM   16  C9  UNL     1       2.838  -1.118  12.678  1.00  0.00     0.042 A 
HETATM   17  C6  UNL     1       0.631   0.565  12.549  1.00  0.00     0.002 A 
HETATM   18  C7  UNL     1       1.472   0.380  11.451  1.00  0.00     0.001 A 
HETATM   19  C8  UNL     1       2.562  -0.445  11.500  1.00  0.00     0.018 A 
HETATM   20  C10 UNL     1       3.913  -1.955  12.795  1.00  0.00     0.196 A 
HETATM   21  O1  UNL     1       4.662  -2.107  11.785  1.00  0.00    -0.286 OA
BRANCH  11  22
HETATM   22  C2  UNL     1       3.479  -3.021  16.221  1.00  0.00    -0.001 C 
HETATM   23  C1  UNL     1       2.459  -4.037  16.654  1.00  0.00     0.038 C 
ENDBRANCH  11  22
ENDBRANCH   9  10
ENDBRANCH   8   9
ENDBRANCH   1   8
BRANCH   2  24
HETATM   24  C16 UNL     1       6.845  -0.436  14.629  1.00  0.00     0.097 C 
BRANCH  24  25
HETATM   25  C17 UNL     1       7.087   0.465  13.521  1.00  0.00    -0.052 A 
HETATM   26  C18 UNL     1       7.405   1.807  13.706  1.00  0.00     0.008 A 
HETATM   27  C19 UNL     1       7.671   2.680  12.672  1.00  0.00     0.012 A 
HETATM   28  C20 UNL     1       7.633   2.247  11.364  1.00  0.00    -0.036 A 
HETATM   29  C24 UNL     1       7.315   0.901  11.159  1.00  0.00     0.012 A 
HETATM   30  C25 UNL     1       7.055   0.055  12.209  1.00  0.00     0.008 A 
BRANCH  28  31
HETATM   31  C21 UNL     1       7.911   3.121  10.243  1.00  0.00     0.018 C 
HETATM   32  C22 UNL     1       8.070   4.421  10.354  1.00  0.00     0.085 C 
BRANCH  32  33
HETATM   33  C23 UNL     1       8.349   5.236   9.174  1.00  0.00     0.198 C 
HETATM   34  O2  UNL     1       9.350   6.002   9.166  1.00  0.00    -0.645 OA
HETATM   35  O3  UNL     1       7.554   5.211   8.041  1.00  0.00    -0.645 OA
ENDBRANCH  32  33
ENDBRANCH  28  31
ENDBRANCH  24  25
ENDBRANCH   2  24
BRANCH   7  36
HETATM   36  C27 UNL     1       9.068  -4.901  14.542  1.00  0.00     0.172 C 
BRANCH  36  37
HETATM   37  C28 UNL     1       8.687  -5.818  15.619  1.00  0.00    -0.040 A 
HETATM   38  C29 UNL     1       9.534  -6.898  15.875  1.00  0.00     0.010 A 
HETATM   39  C30 UNL     1       9.246  -7.804  16.864  1.00  0.00     0.015 A 
HETATM   40  C31 UNL     1       8.120  -7.688  17.639  1.00  0.00     0.004 A 
HETATM   41  C33 UNL     1       7.262  -6.635  17.414  1.00  0.00     0.015 A 
HETATM   42  C34 UNL     1       7.574  -5.726  16.405  1.00  0.00     0.010 A 
BRANCH  40  43
HETATM   43  C32 UNL     1       7.816  -8.662  18.683  1.00  0.00     0.120 C 
HETATM   44  N4  UNL     1       8.715  -9.039  19.525  1.00  0.00    -0.387 N 
ATOM     45  H42 UNL     1       9.663  -8.667  19.478  1.00  0.00     0.157 HD
ATOM     46  H41 UNL     1       8.501  -9.720  20.254  1.00  0.00     0.157 HD
HETATM   47  N5  UNL     1       6.494  -9.181  18.748  1.00  0.00    -0.082 NA
ENDBRANCH  40  43
ENDBRANCH  36  37
ENDBRANCH   7  36
TORSDOF 11
ENDMDL
MODEL 5
REMARK VINA RESULT: -9.259695716      3.150      5.411
REMARK  11 active torsions:
REMARK  status: ('A' for Active; 'I' for Inactive)
REMARK    1  A    between atoms: C2_2  and  C3_3 
REMARK    2  A    between atoms: C11_14  and  C12_15 
REMARK    3  A    between atoms: C12_15  and  C13_16 
REMARK    4  A    between atoms: C13_16  and  C14_17 
REMARK    5  A    between atoms: C15_18  and  C16_19 
REMARK    6  A    between atoms: C16_19  and  C17_20 
REMARK    7  A    between atoms: C20_23  and  C21_24 
REMARK    8  A    between atoms: C22_25  and  C23_26 
REMARK    9  A    between atoms: N3_35  and  C27_36 
REMARK   10  A    between atoms: C27_36  and  C28_37 
REMARK   11  A    between atoms: C31_40  and  C32_41 
ROOT
HETATM    1  C14 UNL     1       7.103  -2.428  14.120  1.00  0.00     0.043 A 
HETATM    2  C15 UNL     1       7.459  -1.131  14.385  1.00  0.00     0.041 A 
HETATM    3  N2  UNL     1       8.516  -1.166  15.211  1.00  0.00    -0.310 N 
ATOM      4  H2  UNL     1       9.001  -0.350  15.583  1.00  0.00     0.170 HD
HETATM    5  C26 UNL     1       8.831  -2.426  15.467  1.00  0.00     0.327 A 
HETATM    6  O4  UNL     1       9.791  -2.753  16.218  1.00  0.00    -0.246 OA
HETATM    7  N3  UNL     1       7.954  -3.206  14.790  1.00  0.00    -0.297 N 
ENDROOT
BRANCH   1   8
HETATM    8  C13 UNL     1       5.960  -2.890  13.224  1.00  0.00     0.087 C 
BRANCH   8   9
HETATM    9  C12 UNL     1       4.689  -2.810  13.933  1.00  0.00    -0.003 C 
BRANCH   9  10
HETATM   10  C11 UNL     1       3.595  -2.143  13.845  1.00  0.00     0.038 A 
HETATM   11  C3  UNL     1       2.600  -2.085  14.785  1.00  0.00     0.042 A 
HETATM   12  N1  UNL     1       1.498  -1.284  14.618  1.00  0.00    -0.355 N 
HETATM   13  C4  UNL     1       1.344  -0.520  13.518  1.00  0.00     0.046 A 
ATOM     14  H1  UNL     1       0.778  -1.267  15.342  1.00  0.00     0.166 HD
HETATM   15  C5  UNL     1       0.217   0.276  13.391  1.00  0.00     0.030 A 
HETATM   16  C9  UNL     1       2.296  -0.524  12.529  1.00  0.00     0.042 A 
HETATM   17  C6  UNL     1       0.030   1.066  12.286  1.00  0.00     0.002 A 
HETATM   18  C7  UNL     1       1.013   1.042  11.297  1.00  0.00     0.001 A 
HETATM   19  C8  UNL     1       2.134   0.264  11.402  1.00  0.00     0.018 A 
HETATM   20  C10 UNL     1       3.393  -1.322  12.698  1.00  0.00     0.196 A 
HETATM   21  O1  UNL     1       4.272  -1.327  11.786  1.00  0.00    -0.286 OA
BRANCH  11  22
HETATM   22  C2  UNL     1       2.588  -2.783  15.905  1.00  0.00    -0.001 C 
HETATM   23  C1  UNL     1       2.100  -4.205  15.895  1.00  0.00     0.038 C 
ENDBRANCH  11  22
ENDBRANCH   9  10
ENDBRANCH   8   9
ENDBRANCH   1   8
BRANCH   2  24
HETATM   24  C16 UNL     1       6.876   0.114  13.897  1.00  0.00     0.097 C 
BRANCH  24  25
HETATM   25  C17 UNL     1       7.073   0.500  12.515  1.00  0.00    -0.052 A 
HETATM   26  C18 UNL     1       6.256   1.427  11.875  1.00  0.00     0.008 A 
HETATM   27  C19 UNL     1       6.439   1.837  10.572  1.00  0.00     0.012 A 
HETATM   28  C20 UNL     1       7.475   1.330   9.818  1.00  0.00    -0.036 A 
HETATM   29  C24 UNL     1       8.307   0.397  10.444  1.00  0.00     0.012 A 
HETATM   30  C25 UNL     1       8.100   0.007  11.746  1.00  0.00     0.008 A 
BRANCH  28  31
HETATM   31  C21 UNL     1       7.715   1.732   8.448  1.00  0.00     0.018 C 
HETATM   32  C22 UNL     1       7.405   0.993   7.406  1.00  0.00     0.085 C 
BRANCH  32  33
HETATM   33  C23 UNL     1       7.679   1.469   6.052  1.00  0.00     0.198 C 
HETATM   34  O2  UNL     1       8.446   2.454   5.880  1.00  0.00    -0.645 OA
HETATM   35  O3  UNL     1       7.130   0.881   4.926  1.00  0.00    -0.645 OA
ENDBRANCH  32  33
ENDBRANCH  28  31
ENDBRANCH  24  25
ENDBRANCH   2  24
BRANCH   7  36
HETATM   36  C27 UNL     1       7.960  -4.662  14.843  1.00  0.00     0.172 C 
BRANCH  36  37
HETATM   37  C28 UNL     1       7.297  -5.224  16.022  1.00  0.00    -0.040 A 
HETATM   38  C29 UNL     1       5.907  -5.355  15.980  1.00  0.00     0.010 A 
HETATM   39  C30 UNL     1       5.212  -5.868  17.044  1.00  0.00     0.015 A 
HETATM   40  C31 UNL     1       5.847  -6.273  18.190  1.00  0.00     0.004 A 
HETATM   41  C33 UNL     1       7.218  -6.159  18.268  1.00  0.00     0.015 A 
HETATM   42  C34 UNL     1       7.905  -5.635  17.175  1.00  0.00     0.010 A 
BRANCH  40  43
HETATM   43  C32 UNL     1       5.099  -6.810  19.322  1.00  0.00     0.120 C 
HETATM   44  N4  UNL     1       4.740  -6.054  20.302  1.00  0.00    -0.387 N 
ATOM     45  H42 UNL     1       4.976  -5.062  20.310  1.00  0.00     0.157 HD
ATOM     46  H41 UNL     1       4.217  -6.429  21.093  1.00  0.00     0.157 HD
HETATM   47  N5  UNL     1       4.769  -8.193  19.311  1.00  0.00    -0.082 NA
ENDBRANCH  40  43
ENDBRANCH  36  37
ENDBRANCH   7  36
TORSDOF 11
ENDMDL
