MODEL 1
REMARK VINA RESULT: -6.660481808      0.000      0.000
REMARK  10 active torsions:
REMARK  status: ('A' for Active; 'I' for Inactive)
REMARK    1  A    between atoms: C2_2  and  C4_4 
REMARK    2  A    between atoms: C4_4  and  C5_5 
REMARK    3  A    between atoms: C7_10  and  C8_11 
REMARK    4  A    between atoms: C8_11  and  C9_12 
REMARK    5  A    between atoms: C13_19  and  C14_20 
REMARK    6  A    between atoms: C14_20  and  C15_21 
REMARK    7  A    between atoms: C15_21  and  C16_22 
REMARK    8  A    between atoms: C16_22  and  C17_23 
REMARK    9  A    between atoms: C17_23  and  N3_24 
REMARK   10  A    between atoms: C19_32  and  C20_33 
ROOT
HETATM    1  C5  UNL     1       6.933  -3.991  16.032  1.00  0.00     0.154 C 
HETATM    2  N1  UNL     1       5.911  -4.544  15.166  1.00  0.00    -0.348 N 
ATOM      3  H1  UNL     1       5.961  -4.267  14.185  1.00  0.00     0.163 HD
HETATM    4  C6  UNL     1       4.861  -5.411  15.507  1.00  0.00     0.241 C 
HETATM    5  O1  UNL     1       4.766  -6.491  14.795  1.00  0.00    -0.271 OA
HETATM    6  C7  UNL     1       3.863  -5.250  16.570  1.00  0.00     0.177 C 
HETATM    7  N2  UNL     1       4.501  -5.266  17.900  1.00  0.00    -0.346 N 
ATOM      8  H2  UNL     1       4.802  -4.355  18.248  1.00  0.00     0.163 HD
HETATM    9  C12 UNL     1       4.752  -6.335  18.747  1.00  0.00     0.241 C 
HETATM   10  O2  UNL     1       6.004  -6.610  18.938  1.00  0.00    -0.271 OA
HETATM   11  C13 UNL     1       3.868  -7.236  19.488  1.00  0.00     0.176 C 
HETATM   12  N4  UNL     1       4.390  -8.564  19.656  1.00  0.00    -0.346 N 
ATOM     13  H4  UNL     1       4.608  -8.830  20.617  1.00  0.00     0.163 HD
HETATM   14  C18 UNL     1       4.641  -9.540  18.693  1.00  0.00     0.241 C 
HETATM   15  O3  UNL     1       4.800 -10.747  19.094  1.00  0.00    -0.271 OA
HETATM   16  C19 UNL     1       4.753  -9.381  17.233  1.00  0.00     0.180 C 
HETATM   17  N5  UNL     1       6.104  -9.437  16.717  1.00  0.00    -0.347 N 
ATOM     18  H5  UNL     1       6.224  -9.009  15.799  1.00  0.00     0.163 HD
HETATM   19  C23 UNL     1       7.263  -9.972  17.256  1.00  0.00     0.218 C 
HETATM   20  O4  UNL     1       7.812 -10.943  16.599  1.00  0.00    -0.274 OA
HETATM   21  C24 UNL     1       8.000  -9.616  18.484  1.00  0.00     0.103 C 
HETATM   22  C25 UNL     1       9.029  -8.560  18.362  1.00  0.00     0.009 C 
HETATM   23  C26 UNL     1       9.357  -8.166  16.936  1.00  0.00     0.000 C 
HETATM   24  C27 UNL     1       8.904  -6.732  16.751  1.00  0.00     0.000 C 
HETATM   25  C28 UNL     1      10.011  -5.830  16.228  1.00  0.00     0.007 C 
HETATM   26  C29 UNL     1       9.501  -4.395  16.419  1.00  0.00     0.080 C 
HETATM   27  C30 UNL     1       8.292  -4.301  15.516  1.00  0.00     0.149 C 
HETATM   28  O5  UNL     1       8.508  -4.499  14.336  1.00  0.00    -0.296 OA
ENDROOT
BRANCH  11  29
HETATM   29  C14 UNL     1       2.455  -7.329  19.066  1.00  0.00     0.035 C 
BRANCH  29  30
HETATM   30  C15 UNL     1       1.657  -8.176  20.026  1.00  0.00     0.004 C 
BRANCH  30  31
HETATM   31  C16 UNL     1       0.892  -9.252  19.301  1.00  0.00     0.027 C 
BRANCH  31  32
HETATM   32  C17 UNL     1       0.776 -10.510  20.153  1.00  0.00     0.229 C 
BRANCH  32  33
HETATM   33  N3  UNL     1       1.895 -11.371  19.914  1.00  0.00    -0.079 N 
ATOM     34  H33 UNL     1       2.407 -11.106  19.072  1.00  0.00     0.274 HD
ATOM     35  H32 UNL     1       2.640 -11.227  20.595  1.00  0.00     0.274 HD
ATOM     36  H31 UNL     1       1.588 -12.343  19.883  1.00  0.00     0.274 HD
ENDBRANCH  32  33
ENDBRANCH  31  32
ENDBRANCH  30  31
ENDBRANCH  29  30
ENDBRANCH  11  29
BRANCH   6  37
HETATM   37  C8  UNL     1       2.952  -4.069  16.454  1.00  0.00     0.038 C 
BRANCH  37  38
HETATM   38  C9  UNL     1       2.608  -3.632  15.090  1.00  0.00    -0.020 C 
HETATM   39  C10 UNL     1       1.375  -4.478  14.602  1.00  0.00     0.009 C 
HETATM   40  C11 UNL     1       1.989  -2.229  15.121  1.00  0.00     0.009 C 
ENDBRANCH  37  38
ENDBRANCH   6  37
BRANCH  16  41
HETATM   41  C20 UNL     1       4.000 -10.543  16.554  1.00  0.00     0.009 C 
HETATM   42  C21 UNL     1       2.530 -10.336  16.479  1.00  0.00     0.012 C 
HETATM   43  C22 UNL     1       4.515 -10.734  15.136  1.00  0.00     0.012 C 
ENDBRANCH  16  41
BRANCH   1  44
HETATM   44  C4  UNL     1       6.738  -2.556  16.343  1.00  0.00     0.037 C 
BRANCH  44  45
HETATM   45  C2  UNL     1       5.992  -1.713  15.388  1.00  0.00    -0.020 C 
HETATM   46  C1  UNL     1       5.180  -0.725  16.257  1.00  0.00     0.009 C 
HETATM   47  C3  UNL     1       6.818  -0.833  14.488  1.00  0.00     0.009 C 
ENDBRANCH  44  45
ENDBRANCH   1  44
TORSDOF 10
ENDMDL
MODEL 2
REMARK VINA RESULT: -6.542086692      1.232      1.285
REMARK  10 active torsions:
REMARK  status: ('A' for Active; 'I' for Inactive)
REMARK    1  A    between atoms: C2_2  and  C4_4 
REMARK    2  A    between atoms: C4_4  and  C5_5 
REMARK    3  A    between atoms: C7_10  and  C8_11 
REMARK    4  A    between atoms: C8_11  and  C9_12 
REMARK    5  A    between atoms: C13_19  and  C14_20 
REMARK    6  A    between atoms: C14_20  and  C15_21 
REMARK    7  A    between atoms: C15_21  and  C16_22 
REMARK    8  A    between atoms: C16_22  and  C17_23 
REMARK    9  A    between atoms: C17_23  and  N3_24 
REMARK   10  A    between atoms: C19_32  and  C20_33 
ROOT
HETATM    1  C5  UNL     1       6.612  -4.889  16.366  1.00  0.00     0.154 C 
HETATM    2  N1  UNL     1       5.646  -5.339  15.385  1.00  0.00    -0.348 N 
ATOM      3  H1  UNL     1       5.747  -4.949  14.448  1.00  0.00     0.163 HD
HETATM    4  C6  UNL     1       4.588  -6.246  15.562  1.00  0.00     0.241 C 
HETATM    5  O1  UNL     1       4.545  -7.234  14.723  1.00  0.00    -0.271 OA
HETATM    6  C7  UNL     1       3.531  -6.216  16.578  1.00  0.00     0.177 C 
HETATM    7  N2  UNL     1       4.095  -6.387  17.931  1.00  0.00    -0.346 N 
ATOM      8  H2  UNL     1       4.366  -5.522  18.401  1.00  0.00     0.163 HD
HETATM    9  C12 UNL     1       4.310  -7.548  18.659  1.00  0.00     0.241 C 
HETATM   10  O2  UNL     1       5.552  -7.837  18.886  1.00  0.00    -0.271 OA
HETATM   11  C13 UNL     1       3.396  -8.534  19.237  1.00  0.00     0.176 C 
HETATM   12  N4  UNL     1       3.923  -9.870  19.277  1.00  0.00    -0.346 N 
ATOM     13  H4  UNL     1       4.090 -10.247  20.209  1.00  0.00     0.163 HD
HETATM   14  C18 UNL     1       4.238 -10.724  18.221  1.00  0.00     0.241 C 
HETATM   15  O3  UNL     1       4.388 -11.970  18.485  1.00  0.00    -0.271 OA
HETATM   16  C19 UNL     1       4.428 -10.393  16.798  1.00  0.00     0.180 C 
HETATM   17  N5  UNL     1       5.807 -10.381  16.356  1.00  0.00    -0.347 N 
ATOM     18  H5  UNL     1       5.973  -9.847  15.504  1.00  0.00     0.163 HD
HETATM   19  C23 UNL     1       6.940 -10.971  16.893  1.00  0.00     0.218 C 
HETATM   20  O4  UNL     1       7.536 -11.855  16.158  1.00  0.00    -0.274 OA
HETATM   21  C24 UNL     1       7.604 -10.760  18.193  1.00  0.00     0.103 C 
HETATM   22  C25 UNL     1       8.627  -9.693  18.255  1.00  0.00     0.009 C 
HETATM   23  C26 UNL     1       9.028  -9.130  16.907  1.00  0.00     0.000 C 
HETATM   24  C27 UNL     1       8.570  -7.686  16.867  1.00  0.00     0.000 C 
HETATM   25  C28 UNL     1       9.695  -6.724  16.517  1.00  0.00     0.007 C 
HETATM   26  C29 UNL     1       9.159  -5.324  16.847  1.00  0.00     0.080 C 
HETATM   27  C30 UNL     1       8.001  -5.129  15.895  1.00  0.00     0.149 C 
HETATM   28  O5  UNL     1       8.284  -5.185  14.714  1.00  0.00    -0.296 OA
ENDROOT
BRANCH  11  29
HETATM   29  C14 UNL     1       2.010  -8.583  18.728  1.00  0.00     0.035 C 
BRANCH  29  30
HETATM   30  C15 UNL     1       1.123  -9.387  19.647  1.00  0.00     0.004 C 
BRANCH  30  31
HETATM   31  C16 UNL     1       0.158 -10.239  18.866  1.00  0.00     0.027 C 
BRANCH  31  32
HETATM   32  C17 UNL     1      -0.804 -10.968  19.797  1.00  0.00     0.229 C 
BRANCH  32  33
HETATM   33  N3  UNL     1      -2.150 -10.559  19.531  1.00  0.00    -0.079 N 
ATOM     34  H33 UNL     1      -2.197  -9.857  18.792  1.00  0.00     0.274 HD
ATOM     35  H32 UNL     1      -2.689 -11.294  19.074  1.00  0.00     0.274 HD
ATOM     36  H31 UNL     1      -2.594 -10.237  20.391  1.00  0.00     0.274 HD
ENDBRANCH  32  33
ENDBRANCH  31  32
ENDBRANCH  30  31
ENDBRANCH  29  30
ENDBRANCH  11  29
BRANCH   6  37
HETATM   37  C8  UNL     1       2.615  -5.034  16.551  1.00  0.00     0.038 C 
BRANCH  37  38
HETATM   38  C9  UNL     1       2.455  -4.353  15.256  1.00  0.00    -0.020 C 
HETATM   39  C10 UNL     1       1.155  -4.910  14.567  1.00  0.00     0.009 C 
HETATM   40  C11 UNL     1       2.051  -2.889  15.471  1.00  0.00     0.009 C 
ENDBRANCH  37  38
ENDBRANCH   6  37
BRANCH  16  41
HETATM   41  C20 UNL     1       3.728 -11.469  15.946  1.00  0.00     0.009 C 
HETATM   42  C21 UNL     1       2.245 -11.429  16.038  1.00  0.00     0.012 C 
HETATM   43  C22 UNL     1       4.107 -11.298  14.483  1.00  0.00     0.012 C 
ENDBRANCH  16  41
BRANCH   1  44
HETATM   44  C4  UNL     1       6.384  -3.501  16.833  1.00  0.00     0.037 C 
BRANCH  44  45
HETATM   45  C2  UNL     1       5.848  -2.507  15.883  1.00  0.00    -0.020 C 
HETATM   46  C1  UNL     1       5.196  -1.411  16.757  1.00  0.00     0.009 C 
HETATM   47  C3  UNL     1       6.860  -1.770  15.047  1.00  0.00     0.009 C 
ENDBRANCH  44  45
ENDBRANCH   1  44
TORSDOF 10
ENDMDL
MODEL 3
REMARK VINA RESULT: -4.449150610      1.646      7.043
REMARK  10 active torsions:
REMARK  status: ('A' for Active; 'I' for Inactive)
REMARK    1  A    between atoms: C2_2  and  C4_4 
REMARK    2  A    between atoms: C4_4  and  C5_5 
REMARK    3  A    between atoms: C7_10  and  C8_11 
REMARK    4  A    between atoms: C8_11  and  C9_12 
REMARK    5  A    between atoms: C13_19  and  C14_20 
REMARK    6  A    between atoms: C14_20  and  C15_21 
REMARK    7  A    between atoms: C15_21  and  C16_22 
REMARK    8  A    between atoms: C16_22  and  C17_23 
REMARK    9  A    between atoms: C17_23  and  N3_24 
REMARK   10  A    between atoms: C19_32  and  C20_33 
ROOT
HETATM    1  C5  UNL     1       5.690  -8.886  18.260  1.00  0.00     0.154 C 
HETATM    2  N1  UNL     1       5.390  -7.777  19.142  1.00  0.00    -0.348 N 
ATOM      3  H1  UNL     1       5.563  -7.937  20.135  1.00  0.00     0.163 HD
HETATM    4  C6  UNL     1       4.891  -6.509  18.802  1.00  0.00     0.241 C 
HETATM    5  O1  UNL     1       5.570  -5.497  19.247  1.00  0.00    -0.271 OA
HETATM    6  C7  UNL     1       3.702  -6.187  18.005  1.00  0.00     0.177 C 
HETATM    7  N2  UNL     1       3.855  -6.660  16.616  1.00  0.00    -0.346 N 
ATOM      8  H2  UNL     1       3.532  -7.612  16.443  1.00  0.00     0.163 HD
HETATM    9  C12 UNL     1       4.373  -6.001  15.510  1.00  0.00     0.241 C 
HETATM   10  O2  UNL     1       5.475  -6.492  15.038  1.00  0.00    -0.271 OA
HETATM   11  C13 UNL     1       3.914  -4.837  14.751  1.00  0.00     0.176 C 
HETATM   12  N4  UNL     1       4.974  -4.050  14.185  1.00  0.00    -0.346 N 
ATOM     13  H4  UNL     1       5.020  -4.046  13.166  1.00  0.00     0.163 HD
HETATM   14  C18 UNL     1       5.950  -3.293  14.830  1.00  0.00     0.241 C 
HETATM   15  O3  UNL     1       6.590  -2.425  14.135  1.00  0.00    -0.271 OA
HETATM   16  C19 UNL     1       6.368  -3.344  16.242  1.00  0.00     0.180 C 
HETATM   17  N5  UNL     1       7.635  -4.002  16.477  1.00  0.00    -0.347 N 
ATOM     18  H5  UNL     1       7.769  -4.333  17.433  1.00  0.00     0.163 HD
HETATM   19  C23 UNL     1       8.699  -4.261  15.628  1.00  0.00     0.218 C 
HETATM   20  O4  UNL     1       9.828  -3.703  15.928  1.00  0.00    -0.274 OA
HETATM   21  C24 UNL     1       8.769  -5.084  14.406  1.00  0.00     0.103 C 
HETATM   22  C25 UNL     1       9.092  -6.517  14.584  1.00  0.00     0.009 C 
HETATM   23  C26 UNL     1       9.553  -6.887  15.979  1.00  0.00     0.000 C 
HETATM   24  C27 UNL     1       8.498  -7.797  16.575  1.00  0.00     0.000 C 
HETATM   25  C28 UNL     1       9.077  -9.108  17.085  1.00  0.00     0.007 C 
HETATM   26  C29 UNL     1       7.870 -10.024  17.332  1.00  0.00     0.080 C 
HETATM   27  C30 UNL     1       7.095  -9.340  18.434  1.00  0.00     0.149 C 
HETATM   28  O5  UNL     1       7.702  -9.182  19.477  1.00  0.00    -0.296 OA
ENDROOT
BRANCH  11  29
HETATM   29  C14 UNL     1       2.936  -3.931  15.387  1.00  0.00     0.035 C 
BRANCH  29  30
HETATM   30  C15 UNL     1       2.316  -3.003  14.372  1.00  0.00     0.004 C 
BRANCH  30  31
HETATM   31  C16 UNL     1       2.228  -1.595  14.900  1.00  0.00     0.027 C 
BRANCH  31  32
HETATM   32  C17 UNL     1       2.614  -0.584  13.827  1.00  0.00     0.229 C 
BRANCH  32  33
HETATM   33  N3  UNL     1       3.792  -1.021  13.141  1.00  0.00    -0.079 N 
ATOM     34  H33 UNL     1       4.598  -1.079  13.764  1.00  0.00     0.274 HD
ATOM     35  H32 UNL     1       3.737  -2.005  12.877  1.00  0.00     0.274 HD
ATOM     36  H31 UNL     1       3.974  -0.419  12.338  1.00  0.00     0.274 HD
ENDBRANCH  32  33
ENDBRANCH  31  32
ENDBRANCH  30  31
ENDBRANCH  29  30
ENDBRANCH  11  29
BRANCH   6  37
HETATM   37  C8  UNL     1       2.388  -6.641  18.558  1.00  0.00     0.038 C 
BRANCH  37  38
HETATM   38  C9  UNL     1       2.423  -7.338  19.854  1.00  0.00    -0.020 C 
HETATM   39  C10 UNL     1       1.581  -6.499  20.884  1.00  0.00     0.009 C 
HETATM   40  C11 UNL     1       1.586  -8.622  19.791  1.00  0.00     0.009 C 
ENDBRANCH  37  38
ENDBRANCH   6  37
BRANCH  16  41
HETATM   41  C20 UNL     1       6.547  -1.901  16.754  1.00  0.00     0.009 C 
HETATM   42  C21 UNL     1       7.489  -1.093  15.937  1.00  0.00     0.012 C 
HETATM   43  C22 UNL     1       5.205  -1.185  16.760  1.00  0.00     0.012 C 
ENDBRANCH  16  41
BRANCH   1  44
HETATM   44  C4  UNL     1       4.705  -9.990  18.335  1.00  0.00     0.037 C 
BRANCH  44  45
HETATM   45  C2  UNL     1       3.658 -10.085  17.300  1.00  0.00    -0.020 C 
HETATM   46  C1  UNL     1       4.415 -10.220  15.959  1.00  0.00     0.009 C 
HETATM   47  C3  UNL     1       2.770 -11.300  17.356  1.00  0.00     0.009 C 
ENDBRANCH  44  45
ENDBRANCH   1  44
TORSDOF 10
ENDMDL
MODEL 4
REMARK VINA RESULT: -4.041909794     11.589     16.385
REMARK  10 active torsions:
REMARK  status: ('A' for Active; 'I' for Inactive)
REMARK    1  A    between atoms: C2_2  and  C4_4 
REMARK    2  A    between atoms: C4_4  and  C5_5 
REMARK    3  A    between atoms: C7_10  and  C8_11 
REMARK    4  A    between atoms: C8_11  and  C9_12 
REMARK    5  A    between atoms: C13_19  and  C14_20 
REMARK    6  A    between atoms: C14_20  and  C15_21 
REMARK    7  A    between atoms: C15_21  and  C16_22 
REMARK    8  A    between atoms: C16_22  and  C17_23 
REMARK    9  A    between atoms: C17_23  and  N3_24 
REMARK   10  A    between atoms: C19_32  and  C20_33 
ROOT
HETATM    1  C5  UNL     1       2.597   3.165   9.761  1.00  0.00     0.154 C 
HETATM    2  N1  UNL     1       2.221   4.496   9.331  1.00  0.00    -0.348 N 
ATOM      3  H1  UNL     1       1.760   5.077  10.032  1.00  0.00     0.163 HD
HETATM    4  C6  UNL     1       2.410   5.086   8.071  1.00  0.00     0.241 C 
HETATM    5  O1  UNL     1       3.005   6.239   8.071  1.00  0.00    -0.271 OA
HETATM    6  C7  UNL     1       2.024   4.560   6.757  1.00  0.00     0.177 C 
HETATM    7  N2  UNL     1       2.761   3.319   6.448  1.00  0.00    -0.346 N 
ATOM      8  H2  UNL     1       2.312   2.458   6.761  1.00  0.00     0.163 HD
HETATM    9  C12 UNL     1       3.974   3.151   5.796  1.00  0.00     0.241 C 
HETATM   10  O2  UNL     1       4.938   2.690   6.527  1.00  0.00    -0.271 OA
HETATM   11  C13 UNL     1       4.392   3.394   4.414  1.00  0.00     0.176 C 
HETATM   12  N4  UNL     1       5.769   3.780   4.278  1.00  0.00    -0.346 N 
ATOM     13  H4  UNL     1       6.366   3.110   3.793  1.00  0.00     0.163 HD
HETATM   14  C18 UNL     1       6.406   4.940   4.716  1.00  0.00     0.241 C 
HETATM   15  O3  UNL     1       7.552   5.219   4.212  1.00  0.00    -0.271 OA
HETATM   16  C19 UNL     1       5.938   5.927   5.705  1.00  0.00     0.180 C 
HETATM   17  N5  UNL     1       6.591   5.849   6.995  1.00  0.00    -0.347 N 
ATOM     18  H5  UNL     1       6.068   6.276   7.759  1.00  0.00     0.163 HD
HETATM   19  C23 UNL     1       7.804   5.296   7.370  1.00  0.00     0.218 C 
HETATM   20  O4  UNL     1       8.688   6.110   7.852  1.00  0.00    -0.274 OA
HETATM   21  C24 UNL     1       8.276   3.900   7.314  1.00  0.00     0.103 C 
HETATM   22  C25 UNL     1       7.989   3.049   8.490  1.00  0.00     0.009 C 
HETATM   23  C26 UNL     1       7.466   3.804   9.696  1.00  0.00     0.000 C 
HETATM   24  C27 UNL     1       6.039   3.349   9.927  1.00  0.00     0.000 C 
HETATM   25  C28 UNL     1       5.805   2.857  11.347  1.00  0.00     0.007 C 
HETATM   26  C29 UNL     1       4.449   2.136  11.317  1.00  0.00     0.080 C 
HETATM   27  C30 UNL     1       3.453   3.220  10.976  1.00  0.00     0.149 C 
HETATM   28  O5  UNL     1       3.400   4.145  11.764  1.00  0.00    -0.296 OA
ENDROOT
BRANCH  11  29
HETATM   29  C14 UNL     1       3.562   4.286   3.580  1.00  0.00     0.035 C 
BRANCH  29  30
HETATM   30  C15 UNL     1       2.975   5.406   4.403  1.00  0.00     0.004 C 
BRANCH  30  31
HETATM   31  C16 UNL     1       2.502   6.537   3.528  1.00  0.00     0.027 C 
BRANCH  31  32
HETATM   32  C17 UNL     1       2.238   7.792   4.352  1.00  0.00     0.229 C 
BRANCH  32  33
HETATM   33  N3  UNL     1       1.050   8.443   3.890  1.00  0.00    -0.079 N 
ATOM     34  H33 UNL     1       0.382   7.782   3.491  1.00  0.00     0.274 HD
ATOM     35  H32 UNL     1       0.477   8.786   4.662  1.00  0.00     0.274 HD
ATOM     36  H31 UNL     1       1.290   9.186   3.233  1.00  0.00     0.274 HD
ENDBRANCH  32  33
ENDBRANCH  31  32
ENDBRANCH  30  31
ENDBRANCH  29  30
ENDBRANCH  11  29
BRANCH   6  37
HETATM   37  C8  UNL     1       0.560   4.356   6.527  1.00  0.00     0.038 C 
BRANCH  37  38
HETATM   38  C9  UNL     1      -0.167   5.461   5.879  1.00  0.00    -0.020 C 
HETATM   39  C10 UNL     1      -0.743   4.933   4.514  1.00  0.00     0.009 C 
HETATM   40  C11 UNL     1      -1.468   5.757   6.636  1.00  0.00     0.009 C 
ENDBRANCH  37  38
ENDBRANCH   6  37
BRANCH  16  41
HETATM   41  C20 UNL     1       6.240   7.340   5.169  1.00  0.00     0.009 C 
HETATM   42  C21 UNL     1       5.839   7.538   3.752  1.00  0.00     0.012 C 
HETATM   43  C22 UNL     1       5.511   8.377   6.009  1.00  0.00     0.012 C 
ENDBRANCH  16  41
BRANCH   1  44
HETATM   44  C4  UNL     1       1.450   2.235   9.895  1.00  0.00     0.037 C 
BRANCH  44  45
HETATM   45  C2  UNL     1       1.242   1.539  11.180  1.00  0.00    -0.020 C 
HETATM   46  C1  UNL     1      -0.082   2.103  11.743  1.00  0.00     0.009 C 
HETATM   47  C3  UNL     1       1.016   0.052  11.104  1.00  0.00     0.009 C 
ENDBRANCH  44  45
ENDBRANCH   1  44
TORSDOF 10
ENDMDL
MODEL 5
REMARK VINA RESULT: -4.007814808      1.428      2.123
REMARK  10 active torsions:
REMARK  status: ('A' for Active; 'I' for Inactive)
REMARK    1  A    between atoms: C2_2  and  C4_4 
REMARK    2  A    between atoms: C4_4  and  C5_5 
REMARK    3  A    between atoms: C7_10  and  C8_11 
REMARK    4  A    between atoms: C8_11  and  C9_12 
REMARK    5  A    between atoms: C13_19  and  C14_20 
REMARK    6  A    between atoms: C14_20  and  C15_21 
REMARK    7  A    between atoms: C15_21  and  C16_22 
REMARK    8  A    between atoms: C16_22  and  C17_23 
REMARK    9  A    between atoms: C17_23  and  N3_24 
REMARK   10  A    between atoms: C19_32  and  C20_33 
ROOT
HETATM    1  C5  UNL     1       7.899  -4.166  15.776  1.00  0.00     0.154 C 
HETATM    2  N1  UNL     1       6.830  -4.550  14.877  1.00  0.00    -0.348 N 
ATOM      3  H1  UNL     1       7.009  -4.404  13.883  1.00  0.00     0.163 HD
HETATM    4  C6  UNL     1       5.579  -5.099  15.202  1.00  0.00     0.241 C 
HETATM    5  O1  UNL     1       5.266  -6.196  14.585  1.00  0.00    -0.271 OA
HETATM    6  C7  UNL     1       4.586  -4.588  16.153  1.00  0.00     0.177 C 
HETATM    7  N2  UNL     1       5.115  -4.609  17.531  1.00  0.00    -0.346 N 
ATOM      8  H2  UNL     1       5.609  -3.764  17.819  1.00  0.00     0.163 HD
HETATM    9  C12 UNL     1       5.041  -5.607  18.491  1.00  0.00     0.241 C 
HETATM   10  O2  UNL     1       6.171  -6.150  18.815  1.00  0.00    -0.271 OA
HETATM   11  C13 UNL     1       3.916  -6.184  19.230  1.00  0.00     0.176 C 
HETATM   12  N4  UNL     1       4.083  -7.571  19.564  1.00  0.00    -0.346 N 
ATOM     13  H4  UNL     1       4.168  -7.774  20.560  1.00  0.00     0.163 HD
HETATM   14  C18 UNL     1       4.146  -8.678  18.720  1.00  0.00     0.241 C 
HETATM   15  O3  UNL     1       3.977  -9.837  19.242  1.00  0.00    -0.271 OA
HETATM   16  C19 UNL     1       4.386  -8.713  17.267  1.00  0.00     0.180 C 
HETATM   17  N5  UNL     1       5.712  -9.146  16.880  1.00  0.00    -0.347 N 
ATOM     18  H5  UNL     1       5.992  -8.863  15.941  1.00  0.00     0.163 HD
HETATM   19  C23 UNL     1       6.666  -9.880  17.566  1.00  0.00     0.218 C 
HETATM   20  O4  UNL     1       7.000 -11.020  17.051  1.00  0.00    -0.274 OA
HETATM   21  C24 UNL     1       7.389  -9.577  18.816  1.00  0.00     0.103 C 
HETATM   22  C25 UNL     1       8.652  -8.818  18.689  1.00  0.00     0.009 C 
HETATM   23  C26 UNL     1       9.157  -8.672  17.268  1.00  0.00     0.000 C 
HETATM   24  C27 UNL     1       9.084  -7.201  16.913  1.00  0.00     0.000 C 
HETATM   25  C28 UNL     1      10.411  -6.654  16.410  1.00  0.00     0.007 C 
HETATM   26  C29 UNL     1      10.259  -5.126  16.423  1.00  0.00     0.080 C 
HETATM   27  C30 UNL     1       9.170  -4.846  15.413  1.00  0.00     0.149 C 
HETATM   28  O5  UNL     1       9.405  -5.218  14.279  1.00  0.00    -0.296 OA
ENDROOT
BRANCH  11  29
HETATM   29  C14 UNL     1       2.554  -5.982  18.695  1.00  0.00     0.035 C 
BRANCH  29  30
HETATM   30  C15 UNL     1       2.519  -6.201  17.202  1.00  0.00     0.004 C 
BRANCH  30  31
HETATM   31  C16 UNL     1       1.380  -5.450  16.566  1.00  0.00     0.027 C 
BRANCH  31  32
HETATM   32  C17 UNL     1       1.170  -5.894  15.123  1.00  0.00     0.229 C 
BRANCH  32  33
HETATM   33  N3  UNL     1       2.319  -6.611  14.658  1.00  0.00    -0.079 N 
ATOM     34  H33 UNL     1       2.781  -7.121  15.411  1.00  0.00     0.274 HD
ATOM     35  H32 UNL     1       2.061  -7.407  14.075  1.00  0.00     0.274 HD
ATOM     36  H31 UNL     1       2.957  -5.977  14.178  1.00  0.00     0.274 HD
ENDBRANCH  32  33
ENDBRANCH  31  32
ENDBRANCH  30  31
ENDBRANCH  29  30
ENDBRANCH  11  29
BRANCH   6  37
HETATM   37  C8  UNL     1       4.004  -3.243  15.850  1.00  0.00     0.038 C 
BRANCH  37  38
HETATM   38  C9  UNL     1       3.273  -3.112  14.578  1.00  0.00    -0.020 C 
HETATM   39  C10 UNL     1       2.231  -1.944  14.731  1.00  0.00     0.009 C 
HETATM   40  C11 UNL     1       4.190  -2.528  13.496  1.00  0.00     0.009 C 
ENDBRANCH  37  38
ENDBRANCH   6  37
BRANCH  16  41
HETATM   41  C20 UNL     1       3.415  -9.729  16.633  1.00  0.00     0.009 C 
HETATM   42  C21 UNL     1       1.984  -9.434  16.907  1.00  0.00     0.012 C 
HETATM   43  C22 UNL     1       3.604  -9.752  15.125  1.00  0.00     0.012 C 
ENDBRANCH  16  41
BRANCH   1  44
HETATM   44  C4  UNL     1       8.045  -2.700  15.936  1.00  0.00     0.037 C 
BRANCH  44  45
HETATM   45  C2  UNL     1       7.122  -1.807  15.208  1.00  0.00    -0.020 C 
HETATM   46  C1  UNL     1       6.229  -1.165  16.294  1.00  0.00     0.009 C 
HETATM   47  C3  UNL     1       7.748  -0.637  14.495  1.00  0.00     0.009 C 
ENDBRANCH  44  45
ENDBRANCH   1  44
TORSDOF 10
ENDMDL
