MODEL 1
REMARK VINA RESULT: -10.329424072      0.000      0.000
REMARK  12 active torsions:
REMARK  status: ('A' for Active; 'I' for Inactive)
REMARK    1  A    between atoms: C2_2  and  C3_3 
REMARK    2  A    between atoms: C3_3  and  N1_4 
REMARK    3  A    between atoms: N1_4  and  C4_6 
REMARK    4  A    between atoms: C5_9  and  N3_10 
REMARK    5  A    between atoms: N3_10  and  C6_12 
REMARK    6  A    between atoms: C6_12  and  C7_13 
REMARK    7  A    between atoms: C7_13  and  C8_14 
REMARK    8  A    between atoms: C16_26  and  N6_27 
REMARK    9  A    between atoms: N6_27  and  C17_29 
REMARK   10  A    between atoms: C17_29  and  C18_30 
REMARK   11  A    between atoms: C21_33  and  C22_34 
REMARK       I    between atoms: N8_39  and  C25_40 
REMARK       I    between atoms: C25_40  and  N9_42 
REMARK   12  A    between atoms: N9_42  and  C26_44 
ROOT
HETATM    1  C4  UNL     1       7.591  -8.506  17.333  1.00  0.00     0.707 A 
HETATM    2  N2  UNL     1       6.665  -7.975  18.131  1.00  0.00    -0.022 N 
ATOM      3  H2  UNL     1       5.888  -8.550  18.455  1.00  0.00     0.203 HD
HETATM    4  C5  UNL     1       6.747  -6.667  18.518  1.00  0.00     0.707 A 
HETATM    5  N5  UNL     1       7.784  -5.947  18.067  1.00  0.00    -0.022 N 
ATOM      6  H5  UNL     1       7.853  -4.971  18.352  1.00  0.00     0.203 HD
HETATM    7  C16 UNL     1       8.737  -6.442  17.263  1.00  0.00     0.707 A 
HETATM    8  N12 UNL     1       8.612  -7.750  16.905  1.00  0.00    -0.022 N 
ATOM      9  H12 UNL     1       9.315  -8.166  16.295  1.00  0.00     0.203 HD
ENDROOT
BRANCH   7  10
HETATM   10  N6  UNL     1       9.737  -5.737  16.834  1.00  0.00    -0.221 N 
ATOM     11  H6  UNL     1      10.453  -5.454  17.503  1.00  0.00     0.178 HD
BRANCH  10  12
HETATM   12  C17 UNL     1       9.886  -5.334  15.461  1.00  0.00     0.176 C 
BRANCH  12  13
HETATM   13  C18 UNL     1       8.874  -4.253  15.197  1.00  0.00    -0.040 A 
HETATM   14  C19 UNL     1       7.757  -4.471  14.429  1.00  0.00     0.010 A 
HETATM   15  C20 UNL     1       6.849  -3.429  14.206  1.00  0.00     0.014 A 
HETATM   16  C21 UNL     1       7.049  -2.197  14.742  1.00  0.00    -0.007 A 
HETATM   17  C30 UNL     1       8.216  -1.992  15.536  1.00  0.00     0.014 A 
HETATM   18  C31 UNL     1       9.077  -3.000  15.737  1.00  0.00     0.010 A 
BRANCH  16  19
HETATM   19  C22 UNL     1       6.124  -1.076  14.671  1.00  0.00     0.070 A 
HETATM   20  C23 UNL     1       5.238  -0.826  15.761  1.00  0.00     0.119 A 
HETATM   21  N7  UNL     1       4.450   0.205  15.476  1.00  0.00    -0.359 N 
HETATM   22  C24 UNL     1       4.768   0.640  14.262  1.00  0.00     0.193 A 
ATOM     23  H7  UNL     1       3.729   0.593  16.083  1.00  0.00     0.166 HD
HETATM   24  N8  UNL     1       5.806  -0.165  13.770  1.00  0.00    -0.258 N 
HETATM   25  C25 UNL     1       6.310   0.009  12.470  1.00  0.00     0.333 C 
HETATM   26  O1  UNL     1       7.176  -0.637  11.910  1.00  0.00    -0.246 OA
HETATM   27  N9  UNL     1       5.760   1.081  11.657  1.00  0.00    -0.293 N 
ATOM     28  H9  UNL     1       4.840   0.986  11.228  1.00  0.00     0.172 HD
BRANCH  27  29
HETATM   29  C26 UNL     1       6.459   2.160  11.486  1.00  0.00     0.125 A 
HETATM   30  C27 UNL     1       6.995   2.597  10.293  1.00  0.00     0.076 A 
HETATM   31  C28 UNL     1       7.673   3.792  10.551  1.00  0.00     0.025 A 
HETATM   32  C29 UNL     1       8.380   4.564   9.517  1.00  0.00     0.070 C 
HETATM   33  N10 UNL     1       7.531   4.038  11.866  1.00  0.00    -0.304 N 
HETATM   34  N11 UNL     1       6.813   3.068  12.403  1.00  0.00    -0.285 N 
ATOM     35  H10 UNL     1       7.914   4.840  12.365  1.00  0.00     0.186 HD
ATOM     36  H11 UNL     1       6.561   3.017  13.391  1.00  0.00     0.188 HD
ENDBRANCH  27  29
ENDBRANCH  16  19
ENDBRANCH  12  13
ENDBRANCH  10  12
ENDBRANCH   7  10
BRANCH   4  37
HETATM   37  N3  UNL     1       5.825  -6.243  19.279  1.00  0.00    -0.225 N 
ATOM     38  H3  UNL     1       5.944  -5.297  19.641  1.00  0.00     0.177 HD
BRANCH  37  39
HETATM   39  C6  UNL     1       4.637  -6.926  19.692  1.00  0.00     0.142 C 
BRANCH  39  40
HETATM   40  C7  UNL     1       3.445  -6.058  19.330  1.00  0.00     0.061 C 
BRANCH  40  41
HETATM   41  C8  UNL     1       3.060  -6.236  17.908  1.00  0.00    -0.029 A 
HETATM   42  C9  UNL     1       2.845  -7.427  17.233  1.00  0.00     0.096 A 
HETATM   43  N4  UNL     1       2.514  -7.155  15.965  1.00  0.00    -0.365 N 
HETATM   44  C10 UNL     1       2.494  -5.828  15.747  1.00  0.00     0.042 A 
ATOM     45  H4  UNL     1       2.305  -7.859  15.258  1.00  0.00     0.165 HD
HETATM   46  C11 UNL     1       2.216  -5.062  14.623  1.00  0.00     0.030 A 
HETATM   47  C15 UNL     1       2.834  -5.248  16.955  1.00  0.00    -0.002 A 
HETATM   48  C12 UNL     1       2.274  -3.686  14.693  1.00  0.00     0.002 A 
HETATM   49  C13 UNL     1       2.614  -3.111  15.899  1.00  0.00     0.001 A 
HETATM   50  C14 UNL     1       2.890  -3.890  17.017  1.00  0.00     0.014 A 
ENDBRANCH  40  41
ENDBRANCH  39  40
ENDBRANCH  37  39
ENDBRANCH   4  37
BRANCH   1  51
HETATM   51  N1  UNL     1       7.522  -9.721  16.966  1.00  0.00    -0.222 N 
ATOM     52  H1  UNL     1       8.351 -10.172  16.579  1.00  0.00     0.178 HD
BRANCH  51  53
HETATM   53  C3  UNL     1       6.302 -10.478  17.084  1.00  0.00     0.164 C 
BRANCH  53  54
HETATM   54  C2  UNL     1       6.164 -11.341  15.886  1.00  0.00    -0.017 C 
HETATM   55  C1  UNL     1       5.047 -11.252  15.174  1.00  0.00     0.008 C 
ENDBRANCH  53  54
ENDBRANCH  51  53
ENDBRANCH   1  51
TORSDOF 12
ENDMDL
MODEL 2
REMARK VINA RESULT: -10.296893810      2.636      5.010
REMARK  12 active torsions:
REMARK  status: ('A' for Active; 'I' for Inactive)
REMARK    1  A    between atoms: C2_2  and  C3_3 
REMARK    2  A    between atoms: C3_3  and  N1_4 
REMARK    3  A    between atoms: N1_4  and  C4_6 
REMARK    4  A    between atoms: C5_9  and  N3_10 
REMARK    5  A    between atoms: N3_10  and  C6_12 
REMARK    6  A    between atoms: C6_12  and  C7_13 
REMARK    7  A    between atoms: C7_13  and  C8_14 
REMARK    8  A    between atoms: C16_26  and  N6_27 
REMARK    9  A    between atoms: N6_27  and  C17_29 
REMARK   10  A    between atoms: C17_29  and  C18_30 
REMARK   11  A    between atoms: C21_33  and  C22_34 
REMARK       I    between atoms: N8_39  and  C25_40 
REMARK       I    between atoms: C25_40  and  N9_42 
REMARK   12  A    between atoms: N9_42  and  C26_44 
ROOT
HETATM    1  C4  UNL     1       4.367  -7.156  16.061  1.00  0.00     0.707 A 
HETATM    2  N2  UNL     1       5.290  -7.674  16.869  1.00  0.00    -0.022 N 
ATOM      3  H2  UNL     1       5.511  -8.668  16.814  1.00  0.00     0.203 HD
HETATM    4  C5  UNL     1       5.945  -6.885  17.773  1.00  0.00     0.707 A 
HETATM    5  N5  UNL     1       5.624  -5.585  17.813  1.00  0.00    -0.022 N 
ATOM      6  H5  UNL     1       6.108  -4.989  18.484  1.00  0.00     0.203 HD
HETATM    7  C16 UNL     1       4.700  -5.024  17.018  1.00  0.00     0.707 A 
HETATM    8  N12 UNL     1       4.076  -5.850  16.134  1.00  0.00    -0.022 N 
ATOM      9  H12 UNL     1       3.367  -5.463  15.511  1.00  0.00     0.203 HD
ENDROOT
BRANCH   7  10
HETATM   10  N6  UNL     1       4.399  -3.763  17.064  1.00  0.00    -0.221 N 
ATOM     11  H6  UNL     1       4.987  -3.144  17.621  1.00  0.00     0.178 HD
BRANCH  10  12
HETATM   12  C17 UNL     1       3.273  -3.196  16.370  1.00  0.00     0.176 C 
BRANCH  12  13
HETATM   13  C18 UNL     1       3.814  -2.350  15.251  1.00  0.00    -0.040 A 
HETATM   14  C19 UNL     1       3.622  -2.676  13.931  1.00  0.00     0.010 A 
HETATM   15  C20 UNL     1       4.154  -1.858  12.926  1.00  0.00     0.014 A 
HETATM   16  C21 UNL     1       4.858  -0.739  13.231  1.00  0.00    -0.007 A 
HETATM   17  C30 UNL     1       5.048  -0.419  14.609  1.00  0.00     0.014 A 
HETATM   18  C31 UNL     1       4.534  -1.214  15.559  1.00  0.00     0.010 A 
BRANCH  16  19
HETATM   19  C22 UNL     1       5.360   0.239  12.277  1.00  0.00     0.070 A 
HETATM   20  C23 UNL     1       6.696   0.120  11.788  1.00  0.00     0.119 A 
HETATM   21  N7  UNL     1       6.970   1.132  10.972  1.00  0.00    -0.359 N 
HETATM   22  C24 UNL     1       5.893   1.906  10.903  1.00  0.00     0.193 A 
ATOM     23  H7  UNL     1       7.852   1.287  10.485  1.00  0.00     0.166 HD
HETATM   24  N8  UNL     1       4.900   1.344  11.720  1.00  0.00    -0.258 N 
HETATM   25  C25 UNL     1       3.662   1.981  11.908  1.00  0.00     0.333 C 
HETATM   26  O1  UNL     1       2.736   1.624  12.611  1.00  0.00    -0.246 OA
HETATM   27  N9  UNL     1       3.412   3.222  11.193  1.00  0.00    -0.293 N 
ATOM     28  H9  UNL     1       3.844   4.093  11.500  1.00  0.00     0.172 HD
BRANCH  27  29
HETATM   29  C26 UNL     1       2.630   3.203  10.158  1.00  0.00     0.125 A 
HETATM   30  C27 UNL     1       2.754   3.993   9.035  1.00  0.00     0.076 A 
HETATM   31  C28 UNL     1       1.710   3.657   8.169  1.00  0.00     0.025 A 
HETATM   32  C29 UNL     1       1.506   4.292   6.858  1.00  0.00     0.070 C 
HETATM   33  N10 UNL     1       0.999   2.693   8.781  1.00  0.00    -0.304 N 
HETATM   34  N11 UNL     1       1.553   2.436   9.952  1.00  0.00    -0.285 N 
ATOM     35  H10 UNL     1       0.169   2.236   8.403  1.00  0.00     0.186 HD
ATOM     36  H11 UNL     1       1.205   1.741  10.614  1.00  0.00     0.188 HD
ENDBRANCH  27  29
ENDBRANCH  16  19
ENDBRANCH  12  13
ENDBRANCH  10  12
ENDBRANCH   7  10
BRANCH   4  37
HETATM   37  N3  UNL     1       6.810  -7.459  18.503  1.00  0.00    -0.225 N 
ATOM     38  H3  UNL     1       6.460  -8.200  19.110  1.00  0.00     0.177 HD
BRANCH  37  39
HETATM   39  C6  UNL     1       8.214  -7.195  18.581  1.00  0.00     0.142 C 
BRANCH  39  40
HETATM   40  C7  UNL     1       8.747  -7.067  17.164  1.00  0.00     0.061 C 
BRANCH  40  41
HETATM   41  C8  UNL     1       9.231  -5.690  16.892  1.00  0.00    -0.029 A 
HETATM   42  C9  UNL     1      10.306  -5.042  17.479  1.00  0.00     0.096 A 
HETATM   43  N4  UNL     1      10.409  -3.813  16.958  1.00  0.00    -0.365 N 
HETATM   44  C10 UNL     1       9.449  -3.597  16.040  1.00  0.00     0.042 A 
ATOM     45  H4  UNL     1      11.120  -3.131  17.221  1.00  0.00     0.165 HD
HETATM   46  C11 UNL     1       9.140  -2.506  15.239  1.00  0.00     0.030 A 
HETATM   47  C15 UNL     1       8.710  -4.765  15.994  1.00  0.00    -0.002 A 
HETATM   48  C12 UNL     1       8.072  -2.569  14.369  1.00  0.00     0.002 A 
HETATM   49  C13 UNL     1       7.338  -3.735  14.325  1.00  0.00     0.001 A 
HETATM   50  C14 UNL     1       7.659  -4.820  15.133  1.00  0.00     0.014 A 
ENDBRANCH  40  41
ENDBRANCH  39  40
ENDBRANCH  37  39
ENDBRANCH   4  37
BRANCH   1  51
HETATM   51  N1  UNL     1       3.751  -7.883  15.218  1.00  0.00    -0.222 N 
ATOM     52  H1  UNL     1       3.378  -7.455  14.370  1.00  0.00     0.178 HD
BRANCH  51  53
HETATM   53  C3  UNL     1       3.567  -9.295  15.430  1.00  0.00     0.164 C 
BRANCH  53  54
HETATM   54  C2  UNL     1       3.654  -9.985  14.120  1.00  0.00    -0.017 C 
HETATM   55  C1  UNL     1       4.055 -11.251  14.103  1.00  0.00     0.008 C 
ENDBRANCH  53  54
ENDBRANCH  51  53
ENDBRANCH   1  51
TORSDOF 12
ENDMDL
MODEL 3
REMARK VINA RESULT: -10.273468078      0.967      1.229
REMARK  12 active torsions:
REMARK  status: ('A' for Active; 'I' for Inactive)
REMARK    1  A    between atoms: C2_2  and  C3_3 
REMARK    2  A    between atoms: C3_3  and  N1_4 
REMARK    3  A    between atoms: N1_4  and  C4_6 
REMARK    4  A    between atoms: C5_9  and  N3_10 
REMARK    5  A    between atoms: N3_10  and  C6_12 
REMARK    6  A    between atoms: C6_12  and  C7_13 
REMARK    7  A    between atoms: C7_13  and  C8_14 
REMARK    8  A    between atoms: C16_26  and  N6_27 
REMARK    9  A    between atoms: N6_27  and  C17_29 
REMARK   10  A    between atoms: C17_29  and  C18_30 
REMARK   11  A    between atoms: C21_33  and  C22_34 
REMARK       I    between atoms: N8_39  and  C25_40 
REMARK       I    between atoms: C25_40  and  N9_42 
REMARK   12  A    between atoms: N9_42  and  C26_44 
ROOT
HETATM    1  C4  UNL     1       8.220  -8.271  18.178  1.00  0.00     0.707 A 
HETATM    2  N2  UNL     1       7.086  -7.750  18.645  1.00  0.00    -0.022 N 
ATOM      3  H2  UNL     1       6.388  -8.359  19.072  1.00  0.00     0.203 HD
HETATM    4  C5  UNL     1       6.849  -6.407  18.556  1.00  0.00     0.707 A 
HETATM    5  N5  UNL     1       7.793  -5.644  17.987  1.00  0.00    -0.022 N 
ATOM      6  H5  UNL     1       7.624  -4.641  17.917  1.00  0.00     0.203 HD
HETATM    7  C16 UNL     1       8.947  -6.129  17.504  1.00  0.00     0.707 A 
HETATM    8  N12 UNL     1       9.137  -7.472  17.616  1.00  0.00    -0.022 N 
ATOM      9  H12 UNL     1      10.002  -7.881  17.262  1.00  0.00     0.203 HD
ENDROOT
BRANCH   7  10
HETATM   10  N6  UNL     1       9.854  -5.380  16.957  1.00  0.00    -0.221 N 
ATOM     11  H6  UNL     1      10.550  -4.941  17.559  1.00  0.00     0.178 HD
BRANCH  10  12
HETATM   12  C17 UNL     1       9.926  -5.139  15.540  1.00  0.00     0.176 C 
BRANCH  12  13
HETATM   13  C18 UNL     1       8.897  -4.094  15.209  1.00  0.00    -0.040 A 
HETATM   14  C19 UNL     1       7.829  -4.357  14.386  1.00  0.00     0.010 A 
HETATM   15  C20 UNL     1       6.902  -3.347  14.102  1.00  0.00     0.014 A 
HETATM   16  C21 UNL     1       7.034  -2.103  14.631  1.00  0.00    -0.007 A 
HETATM   17  C30 UNL     1       8.151  -1.851  15.483  1.00  0.00     0.014 A 
HETATM   18  C31 UNL     1       9.031  -2.829  15.742  1.00  0.00     0.010 A 
BRANCH  16  19
HETATM   19  C22 UNL     1       6.080  -1.013  14.495  1.00  0.00     0.070 A 
HETATM   20  C23 UNL     1       5.117  -0.790  15.526  1.00  0.00     0.119 A 
HETATM   21  N7  UNL     1       4.316   0.213  15.186  1.00  0.00    -0.359 N 
HETATM   22  C24 UNL     1       4.698   0.657  13.994  1.00  0.00     0.193 A 
ATOM     23  H7  UNL     1       3.545   0.579  15.743  1.00  0.00     0.166 HD
HETATM   24  N8  UNL     1       5.791  -0.114  13.573  1.00  0.00    -0.258 N 
HETATM   25  C25 UNL     1       6.373   0.074  12.308  1.00  0.00     0.333 C 
HETATM   26  O1  UNL     1       7.293  -0.544  11.807  1.00  0.00    -0.246 OA
HETATM   27  N9  UNL     1       5.842   1.127  11.457  1.00  0.00    -0.293 N 
ATOM     28  H9  UNL     1       4.955   1.001  10.969  1.00  0.00     0.172 HD
BRANCH  27  29
HETATM   29  C26 UNL     1       6.515   2.228  11.328  1.00  0.00     0.125 A 
HETATM   30  C27 UNL     1       7.146   2.661  10.181  1.00  0.00     0.076 A 
HETATM   31  C28 UNL     1       7.754   3.886  10.474  1.00  0.00     0.025 A 
HETATM   32  C29 UNL     1       8.528   4.663   9.495  1.00  0.00     0.070 C 
HETATM   33  N10 UNL     1       7.478   4.152  11.763  1.00  0.00    -0.304 N 
HETATM   34  N11 UNL     1       6.747   3.166  12.253  1.00  0.00    -0.285 N 
ATOM     35  H10 UNL     1       7.782   4.978  12.278  1.00  0.00     0.186 HD
ATOM     36  H11 UNL     1       6.403   3.126  13.213  1.00  0.00     0.188 HD
ENDBRANCH  27  29
ENDBRANCH  16  19
ENDBRANCH  12  13
ENDBRANCH  10  12
ENDBRANCH   7  10
BRANCH   4  37
HETATM   37  N3  UNL     1       5.746  -5.995  19.026  1.00  0.00    -0.225 N 
ATOM     38  H3  UNL     1       5.546  -5.004  18.893  1.00  0.00     0.177 HD
BRANCH  37  39
HETATM   39  C6  UNL     1       4.745  -6.748  19.720  1.00  0.00     0.142 C 
BRANCH  39  40
HETATM   40  C7  UNL     1       3.391  -6.140  19.394  1.00  0.00     0.061 C 
BRANCH  40  41
HETATM   41  C8  UNL     1       3.066  -6.285  17.954  1.00  0.00    -0.029 A 
HETATM   42  C9  UNL     1       2.926  -7.461  17.233  1.00  0.00     0.096 A 
HETATM   43  N4  UNL     1       2.631  -7.159  15.963  1.00  0.00    -0.365 N 
HETATM   44  C10 UNL     1       2.564  -5.828  15.787  1.00  0.00     0.042 A 
ATOM     45  H4  UNL     1       2.478  -7.848  15.226  1.00  0.00     0.165 HD
HETATM   46  C11 UNL     1       2.296  -5.036  14.679  1.00  0.00     0.030 A 
HETATM   47  C15 UNL     1       2.835  -5.276  17.025  1.00  0.00    -0.002 A 
HETATM   48  C12 UNL     1       2.295  -3.662  14.795  1.00  0.00     0.002 A 
HETATM   49  C13 UNL     1       2.565  -3.115  16.031  1.00  0.00     0.001 A 
HETATM   50  C14 UNL     1       2.832  -3.920  17.134  1.00  0.00     0.014 A 
ENDBRANCH  40  41
ENDBRANCH  39  40
ENDBRANCH  37  39
ENDBRANCH   4  37
BRANCH   1  51
HETATM   51  N1  UNL     1       8.448  -9.520  18.255  1.00  0.00    -0.222 N 
ATOM     52  H1  UNL     1       8.381  -9.983  19.161  1.00  0.00     0.178 HD
BRANCH  51  53
HETATM   53  C3  UNL     1       8.800 -10.297  17.094  1.00  0.00     0.164 C 
BRANCH  53  54
HETATM   54  C2  UNL     1       9.466 -11.543  17.543  1.00  0.00    -0.017 C 
HETATM   55  C1  UNL     1      10.428 -11.448  18.453  1.00  0.00     0.008 C 
ENDBRANCH  53  54
ENDBRANCH  51  53
ENDBRANCH   1  51
TORSDOF 12
ENDMDL
MODEL 4
REMARK VINA RESULT: -10.247614502      2.607      9.982
REMARK  12 active torsions:
REMARK  status: ('A' for Active; 'I' for Inactive)
REMARK    1  A    between atoms: C2_2  and  C3_3 
REMARK    2  A    between atoms: C3_3  and  N1_4 
REMARK    3  A    between atoms: N1_4  and  C4_6 
REMARK    4  A    between atoms: C5_9  and  N3_10 
REMARK    5  A    between atoms: N3_10  and  C6_12 
REMARK    6  A    between atoms: C6_12  and  C7_13 
REMARK    7  A    between atoms: C7_13  and  C8_14 
REMARK    8  A    between atoms: C16_26  and  N6_27 
REMARK    9  A    between atoms: N6_27  and  C17_29 
REMARK   10  A    between atoms: C17_29  and  C18_30 
REMARK   11  A    between atoms: C21_33  and  C22_34 
REMARK       I    between atoms: N8_39  and  C25_40 
REMARK       I    between atoms: C25_40  and  N9_42 
REMARK   12  A    between atoms: N9_42  and  C26_44 
ROOT
HETATM    1  C4  UNL     1       3.956   1.100  13.055  1.00  0.00     0.707 A 
HETATM    2  N2  UNL     1       5.256   1.033  13.341  1.00  0.00    -0.022 N 
ATOM      3  H2  UNL     1       5.903   1.691  12.907  1.00  0.00     0.203 HD
HETATM    4  C5  UNL     1       5.730   0.091  14.210  1.00  0.00     0.707 A 
HETATM    5  N5  UNL     1       4.845  -0.754  14.757  1.00  0.00    -0.022 N 
ATOM      6  H5  UNL     1       5.189  -1.459  15.407  1.00  0.00     0.203 HD
HETATM    7  C16 UNL     1       3.529  -0.721  14.496  1.00  0.00     0.707 A 
HETATM    8  N12 UNL     1       3.106   0.235  13.624  1.00  0.00    -0.022 N 
ATOM      9  H12 UNL     1       2.113   0.294  13.398  1.00  0.00     0.203 HD
ENDROOT
BRANCH   7  10
HETATM   10  N6  UNL     1       2.681  -1.543  15.032  1.00  0.00    -0.221 N 
ATOM     11  H6  UNL     1       2.398  -1.386  15.999  1.00  0.00     0.178 HD
BRANCH  10  12
HETATM   12  C17 UNL     1       2.121  -2.667  14.329  1.00  0.00     0.176 C 
BRANCH  12  13
HETATM   13  C18 UNL     1       2.373  -3.891  15.164  1.00  0.00    -0.040 A 
HETATM   14  C19 UNL     1       2.438  -5.149  14.615  1.00  0.00     0.010 A 
HETATM   15  C20 UNL     1       2.667  -6.258  15.438  1.00  0.00     0.014 A 
HETATM   16  C21 UNL     1       2.833  -6.116  16.778  1.00  0.00    -0.007 A 
HETATM   17  C30 UNL     1       2.761  -4.802  17.328  1.00  0.00     0.014 A 
HETATM   18  C31 UNL     1       2.538  -3.750  16.526  1.00  0.00     0.010 A 
BRANCH  16  19
HETATM   19  C22 UNL     1       3.184  -7.177  17.711  1.00  0.00     0.070 A 
HETATM   20  C23 UNL     1       2.149  -7.967  18.297  1.00  0.00     0.119 A 
HETATM   21  N7  UNL     1       2.675  -8.839  19.149  1.00  0.00    -0.359 N 
HETATM   22  C24 UNL     1       3.992  -8.664  19.156  1.00  0.00     0.193 A 
ATOM     23  H7  UNL     1       2.159  -9.523  19.701  1.00  0.00     0.166 HD
HETATM   24  N8  UNL     1       4.296  -7.627  18.261  1.00  0.00    -0.258 N 
HETATM   25  C25 UNL     1       5.612  -7.161  18.104  1.00  0.00     0.333 C 
HETATM   26  O1  UNL     1       6.007  -6.253  17.397  1.00  0.00    -0.246 OA
HETATM   27  N9  UNL     1       6.668  -7.816  18.861  1.00  0.00    -0.293 N 
ATOM     28  H9  UNL     1       6.781  -7.633  19.858  1.00  0.00     0.172 HD
BRANCH  27  29
HETATM   29  C26 UNL     1       7.463  -8.635  18.247  1.00  0.00     0.125 A 
HETATM   30  C27 UNL     1       8.423  -9.429  18.838  1.00  0.00     0.076 A 
HETATM   31  C28 UNL     1       9.054 -10.152  17.823  1.00  0.00     0.025 A 
HETATM   32  C29 UNL     1      10.142 -11.112  18.065  1.00  0.00     0.070 C 
HETATM   33  N10 UNL     1       8.470  -9.782  16.669  1.00  0.00    -0.304 N 
HETATM   34  N11 UNL     1       7.534  -8.888  16.934  1.00  0.00    -0.285 N 
ATOM     35  H10 UNL     1       8.709 -10.134  15.742  1.00  0.00     0.186 HD
ATOM     36  H11 UNL     1       6.942  -8.448  16.230  1.00  0.00     0.188 HD
ENDBRANCH  27  29
ENDBRANCH  16  19
ENDBRANCH  12  13
ENDBRANCH  10  12
ENDBRANCH   7  10
BRANCH   4  37
HETATM   37  N3  UNL     1       6.979   0.099  14.427  1.00  0.00    -0.225 N 
ATOM     38  H3  UNL     1       7.349   0.936  14.878  1.00  0.00     0.177 HD
BRANCH  37  39
HETATM   39  C6  UNL     1       7.935  -0.921  14.119  1.00  0.00     0.142 C 
BRANCH  39  40
HETATM   40  C7  UNL     1       8.219  -1.699  15.393  1.00  0.00     0.061 C 
BRANCH  40  41
HETATM   41  C8  UNL     1       8.289  -3.158  15.129  1.00  0.00    -0.029 A 
HETATM   42  C9  UNL     1       7.583  -3.880  14.180  1.00  0.00     0.096 A 
HETATM   43  N4  UNL     1       7.933  -5.169  14.266  1.00  0.00    -0.365 N 
HETATM   44  C10 UNL     1       8.849  -5.356  15.234  1.00  0.00     0.042 A 
ATOM     45  H4  UNL     1       7.556  -5.911  13.677  1.00  0.00     0.165 HD
HETATM   46  C11 UNL     1       9.510  -6.484  15.700  1.00  0.00     0.030 A 
HETATM   47  C15 UNL     1       9.075  -4.105  15.777  1.00  0.00    -0.002 A 
HETATM   48  C12 UNL     1      10.420  -6.375  16.730  1.00  0.00     0.002 A 
HETATM   49  C13 UNL     1      10.643  -5.127  17.270  1.00  0.00     0.001 A 
HETATM   50  C14 UNL     1       9.974  -4.004  16.792  1.00  0.00     0.014 A 
ENDBRANCH  40  41
ENDBRANCH  39  40
ENDBRANCH  37  39
ENDBRANCH   4  37
BRANCH   1  51
HETATM   51  N1  UNL     1       3.506   1.972  12.246  1.00  0.00    -0.222 N 
ATOM     52  H1  UNL     1       3.889   2.917  12.270  1.00  0.00     0.178 HD
BRANCH  51  53
HETATM   53  C3  UNL     1       2.470   1.658  11.296  1.00  0.00     0.164 C 
BRANCH  53  54
HETATM   54  C2  UNL     1       1.382   2.657  11.437  1.00  0.00    -0.017 C 
HETATM   55  C1  UNL     1       0.177   2.226  11.787  1.00  0.00     0.008 C 
ENDBRANCH  53  54
ENDBRANCH  51  53
ENDBRANCH   1  51
TORSDOF 12
ENDMDL
MODEL 5
REMARK VINA RESULT: -10.152384257      3.837     11.532
REMARK  12 active torsions:
REMARK  status: ('A' for Active; 'I' for Inactive)
REMARK    1  A    between atoms: C2_2  and  C3_3 
REMARK    2  A    between atoms: C3_3  and  N1_4 
REMARK    3  A    between atoms: N1_4  and  C4_6 
REMARK    4  A    between atoms: C5_9  and  N3_10 
REMARK    5  A    between atoms: N3_10  and  C6_12 
REMARK    6  A    between atoms: C6_12  and  C7_13 
REMARK    7  A    between atoms: C7_13  and  C8_14 
REMARK    8  A    between atoms: C16_26  and  N6_27 
REMARK    9  A    between atoms: N6_27  and  C17_29 
REMARK   10  A    between atoms: C17_29  and  C18_30 
REMARK   11  A    between atoms: C21_33  and  C22_34 
REMARK       I    between atoms: N8_39  and  C25_40 
REMARK       I    between atoms: C25_40  and  N9_42 
REMARK   12  A    between atoms: N9_42  and  C26_44 
ROOT
HETATM    1  C4  UNL     1       1.959   5.151   8.462  1.00  0.00     0.707 A 
HETATM    2  N2  UNL     1       3.172   5.038   7.921  1.00  0.00    -0.022 N 
ATOM      3  H2  UNL     1       3.434   5.639   7.139  1.00  0.00     0.203 HD
HETATM    4  C5  UNL     1       4.067   4.125   8.403  1.00  0.00     0.707 A 
HETATM    5  N5  UNL     1       3.680   3.357   9.431  1.00  0.00    -0.022 N 
ATOM      6  H5  UNL     1       4.341   2.673   9.797  1.00  0.00     0.203 HD
HETATM    7  C16 UNL     1       2.469   3.437  10.004  1.00  0.00     0.707 A 
HETATM    8  N12 UNL     1       1.614   4.362   9.488  1.00  0.00    -0.022 N 
ATOM      9  H12 UNL     1       0.683   4.456   9.895  1.00  0.00     0.203 HD
ENDROOT
BRANCH   7  10
HETATM   10  N6  UNL     1       2.106   2.689  10.998  1.00  0.00    -0.221 N 
ATOM     11  H6  UNL     1       2.432   2.932  11.933  1.00  0.00     0.178 HD
BRANCH  10  12
HETATM   12  C17 UNL     1       1.266   1.530  10.847  1.00  0.00     0.176 C 
BRANCH  12  13
HETATM   13  C18 UNL     1       1.675   0.537  11.899  1.00  0.00    -0.040 A 
HETATM   14  C19 UNL     1       0.859   0.216  12.956  1.00  0.00     0.010 A 
HETATM   15  C20 UNL     1       1.291  -0.710  13.914  1.00  0.00     0.014 A 
HETATM   16  C21 UNL     1       2.507  -1.306  13.817  1.00  0.00    -0.007 A 
HETATM   17  C30 UNL     1       3.339  -0.957  12.712  1.00  0.00     0.014 A 
HETATM   18  C31 UNL     1       2.912  -0.066  11.805  1.00  0.00     0.010 A 
BRANCH  16  19
HETATM   19  C22 UNL     1       3.013  -2.357  14.686  1.00  0.00     0.070 A 
HETATM   20  C23 UNL     1       2.259  -3.558  14.848  1.00  0.00     0.119 A 
HETATM   21  N7  UNL     1       2.867  -4.360  15.714  1.00  0.00    -0.359 N 
HETATM   22  C24 UNL     1       3.973  -3.753  16.129  1.00  0.00     0.193 A 
ATOM     23  H7  UNL     1       2.543  -5.281  16.009  1.00  0.00     0.166 HD
HETATM   24  N8  UNL     1       4.052  -2.508  15.487  1.00  0.00    -0.258 N 
HETATM   25  C25 UNL     1       5.084  -1.600  15.779  1.00  0.00     0.333 C 
HETATM   26  O1  UNL     1       5.249  -0.483  15.327  1.00  0.00    -0.246 OA
HETATM   27  N9  UNL     1       6.103  -2.002  16.736  1.00  0.00    -0.293 N 
ATOM     28  H9  UNL     1       5.901  -2.010  17.735  1.00  0.00     0.172 HD
BRANCH  27  29
HETATM   29  C26 UNL     1       7.272  -2.350  16.296  1.00  0.00     0.125 A 
HETATM   30  C27 UNL     1       7.753  -3.639  16.208  1.00  0.00     0.076 A 
HETATM   31  C28 UNL     1       9.049  -3.569  15.687  1.00  0.00     0.025 A 
HETATM   32  C29 UNL     1       9.892  -4.750  15.447  1.00  0.00     0.070 C 
HETATM   33  N10 UNL     1       9.308  -2.266  15.480  1.00  0.00    -0.304 N 
HETATM   34  N11 UNL     1       8.252  -1.560  15.843  1.00  0.00    -0.285 N 
ATOM     35  H10 UNL     1      10.177  -1.885  15.104  1.00  0.00     0.186 HD
ATOM     36  H11 UNL     1       8.192  -0.543  15.785  1.00  0.00     0.188 HD
ENDBRANCH  27  29
ENDBRANCH  16  19
ENDBRANCH  12  13
ENDBRANCH  10  12
ENDBRANCH   7  10
BRANCH   4  37
HETATM   37  N3  UNL     1       5.198   4.085   7.831  1.00  0.00    -0.225 N 
ATOM     38  H3  UNL     1       5.416   4.869   7.217  1.00  0.00     0.177 HD
BRANCH  37  39
HETATM   39  C6  UNL     1       6.208   3.077   7.942  1.00  0.00     0.142 C 
BRANCH  39  40
HETATM   40  C7  UNL     1       7.378   3.666   8.710  1.00  0.00     0.061 C 
BRANCH  40  41
HETATM   41  C8  UNL     1       7.215   3.474  10.173  1.00  0.00    -0.029 A 
HETATM   42  C9  UNL     1       6.877   4.430  11.117  1.00  0.00     0.096 A 
HETATM   43  N4  UNL     1       6.832   3.852  12.324  1.00  0.00    -0.365 N 
HETATM   44  C10 UNL     1       7.125   2.542  12.241  1.00  0.00     0.042 A 
ATOM     45  H4  UNL     1       6.606   4.339  13.191  1.00  0.00     0.165 HD
HETATM   46  C11 UNL     1       7.208   1.533  13.191  1.00  0.00     0.030 A 
HETATM   47  C15 UNL     1       7.365   2.299  10.901  1.00  0.00    -0.002 A 
HETATM   48  C12 UNL     1       7.537   0.250  12.809  1.00  0.00     0.002 A 
HETATM   49  C13 UNL     1       7.776   0.011  11.473  1.00  0.00     0.001 A 
HETATM   50  C14 UNL     1       7.688   1.031  10.531  1.00  0.00     0.014 A 
ENDBRANCH  40  41
ENDBRANCH  39  40
ENDBRANCH  37  39
ENDBRANCH   4  37
BRANCH   1  51
HETATM   51  N1  UNL     1       1.119   5.997   8.018  1.00  0.00    -0.222 N 
ATOM     52  H1  UNL     1       0.660   6.631   8.672  1.00  0.00     0.178 HD
BRANCH  51  53
HETATM   53  C3  UNL     1       0.801   6.081   6.616  1.00  0.00     0.164 C 
BRANCH  53  54
HETATM   54  C2  UNL     1      -0.027   4.907   6.248  1.00  0.00    -0.017 C 
HETATM   55  C1  UNL     1       0.361   4.163   5.220  1.00  0.00     0.008 C 
ENDBRANCH  53  54
ENDBRANCH  51  53
ENDBRANCH   1  51
TORSDOF 12
ENDMDL
