MODEL 1
REMARK VINA RESULT: -8.608948010      0.000      0.000
REMARK  10 active torsions:
REMARK  status: ('A' for Active; 'I' for Inactive)
REMARK    1  A    between atoms: C2_2  and  C3_3 
REMARK    2  A    between atoms: C3_3  and  C4_4 
REMARK    3  A    between atoms: C4_4  and  C5_5 
REMARK    4  A    between atoms: C8_8  and  O1_9 
REMARK    5  A    between atoms: C9_11  and  C10_12 
REMARK    6  A    between atoms: C12_14  and  C13_15 
REMARK       I    between atoms: C13_15  and  N1_17 
REMARK    7  A    between atoms: N1_17  and  C14_19 
REMARK    8  A    between atoms: C26_31  and  C27_32 
REMARK       I    between atoms: C27_32  and  N2_34 
REMARK    9  A    between atoms: N2_34  and  C29_36 
REMARK   10  A    between atoms: C29_36  and  C30_37 
ROOT
HETATM    1  C5  UNL     1       7.917  -0.917  13.648  1.00  0.00     0.187 C 
HETATM    2  C6  UNL     1       6.965  -0.274  14.639  1.00  0.00     0.040 C 
HETATM    3  C7  UNL     1       6.156  -1.396  15.223  1.00  0.00     0.023 C 
HETATM    4  C8  UNL     1       4.970  -0.991  15.998  1.00  0.00     0.127 C 
HETATM    5  C9  UNL     1       4.099  -2.217  16.177  1.00  0.00     0.027 C 
HETATM    6  C12 UNL     1       4.887  -3.249  16.878  1.00  0.00     0.085 C 
HETATM    7  C24 UNL     1       6.229  -3.558  16.249  1.00  0.00     0.022 C 
HETATM    8  C25 UNL     1       7.011  -2.287  16.143  1.00  0.00     0.033 C 
HETATM    9  C26 UNL     1       8.335  -2.360  15.522  1.00  0.00     0.282 C 
HETATM   10  N5  UNL     1       8.190  -2.293  14.082  1.00  0.00    -0.058 N 
ATOM     11  H51 UNL     1       9.000  -2.685  13.603  1.00  0.00     0.278 HD
ATOM     12  H52 UNL     1       7.481  -2.943  13.744  1.00  0.00     0.278 HD
ENDROOT
BRANCH   6  13
HETATM   13  C13 UNL     1       4.222  -4.504  17.186  1.00  0.00     0.223 C 
HETATM   14  O2  UNL     1       3.058  -4.474  17.664  1.00  0.00    -0.273 OA
HETATM   15  N1  UNL     1       4.779  -5.798  16.989  1.00  0.00    -0.351 N 
ATOM     16  H1  UNL     1       5.722  -5.856  16.604  1.00  0.00     0.163 HD
BRANCH  15  17
HETATM   17  C14 UNL     1       4.105  -7.033  17.296  1.00  0.00     0.034 C 
HETATM   18  C15 UNL     1       2.825  -7.230  16.531  1.00  0.00     0.035 C 
HETATM   19  C16 UNL     1       2.249  -8.571  16.897  1.00  0.00    -0.012 C 
HETATM   20  C17 UNL     1       1.943  -8.583  18.382  1.00  0.00     0.009 C 
HETATM   21  C21 UNL     1       3.170  -9.686  16.525  1.00  0.00     0.009 C 
HETATM   22  C18 UNL     1       3.250  -8.482  19.106  1.00  0.00    -0.012 C 
HETATM   23  C19 UNL     1       4.212  -9.581  18.729  1.00  0.00     0.009 C 
HETATM   24  C23 UNL     1       3.887  -7.172  18.805  1.00  0.00     0.035 C 
HETATM   25  C20 UNL     1       4.480  -9.504  17.257  1.00  0.00    -0.012 C 
HETATM   26  C22 UNL     1       5.033  -8.171  16.888  1.00  0.00     0.035 C 
ENDBRANCH  15  17
ENDBRANCH   6  13
BRANCH   5  27
HETATM   27  C10 UNL     1       3.454  -2.676  14.902  1.00  0.00     0.003 C 
HETATM   28  C11 UNL     1       2.012  -2.307  14.801  1.00  0.00     0.005 C 
ENDBRANCH   5  27
BRANCH   4  29
HETATM   29  O1  UNL     1       4.285   0.099  15.514  1.00  0.00    -0.395 OA
ATOM     30  H1  UNL     1       3.534  -0.097  14.966  1.00  0.00     0.210 HD
ENDBRANCH   4  29
BRANCH   9  31
HETATM   31  C27 UNL     1       9.200  -3.482  15.876  1.00  0.00     0.251 C 
HETATM   32  O3  UNL     1      10.011  -3.292  16.821  1.00  0.00    -0.271 OA
HETATM   33  N2  UNL     1       9.219  -4.749  15.272  1.00  0.00    -0.349 N 
HETATM   34  C28 UNL     1       8.346  -5.137  14.176  1.00  0.00     0.153 C 
BRANCH  33  35
HETATM   35  C29 UNL     1      10.149  -5.750  15.748  1.00  0.00     0.183 C 
BRANCH  35  36
HETATM   36  C30 UNL     1       9.545  -6.569  16.813  1.00  0.00     0.049 A 
HETATM   37  C31 UNL     1       9.034  -7.845  16.695  1.00  0.00     0.103 A 
HETATM   38  C32 UNL     1       8.581  -8.196  17.949  1.00  0.00     0.261 A 
HETATM   39  O4  UNL     1       8.047  -9.293  18.239  1.00  0.00    -0.267 OA
HETATM   40  N3  UNL     1       8.824  -7.157  18.762  1.00  0.00    -0.266 N 
HETATM   41  N4  UNL     1       9.402  -6.175  18.087  1.00  0.00    -0.300 N 
ATOM     42  H3  UNL     1       8.596  -7.127  19.755  1.00  0.00     0.190 HD
ATOM     43  H4  UNL     1       9.691  -5.275  18.470  1.00  0.00     0.186 HD
ENDBRANCH  35  36
ENDBRANCH  33  35
ENDBRANCH   9  31
BRANCH   1  44
HETATM   44  C4  UNL     1       7.310  -1.041  12.265  1.00  0.00     0.033 C 
BRANCH  44  45
HETATM   45  C3  UNL     1       6.893   0.369  11.861  1.00  0.00     0.002 C 
BRANCH  45  46
HETATM   46  C2  UNL     1       8.039   1.138  11.267  1.00  0.00    -0.004 C 
HETATM   47  C1  UNL     1       8.728   0.347  10.180  1.00  0.00     0.005 C 
ENDBRANCH  45  46
ENDBRANCH  44  45
ENDBRANCH   1  44
TORSDOF 10
ENDMDL
MODEL 2
REMARK VINA RESULT: -8.502528092      3.074      7.587
REMARK  10 active torsions:
REMARK  status: ('A' for Active; 'I' for Inactive)
REMARK    1  A    between atoms: C2_2  and  C3_3 
REMARK    2  A    between atoms: C3_3  and  C4_4 
REMARK    3  A    between atoms: C4_4  and  C5_5 
REMARK    4  A    between atoms: C8_8  and  O1_9 
REMARK    5  A    between atoms: C9_11  and  C10_12 
REMARK    6  A    between atoms: C12_14  and  C13_15 
REMARK       I    between atoms: C13_15  and  N1_17 
REMARK    7  A    between atoms: N1_17  and  C14_19 
REMARK    8  A    between atoms: C26_31  and  C27_32 
REMARK       I    between atoms: C27_32  and  N2_34 
REMARK    9  A    between atoms: N2_34  and  C29_36 
REMARK   10  A    between atoms: C29_36  and  C30_37 
ROOT
HETATM    1  C5  UNL     1       8.140  -5.238  16.106  1.00  0.00     0.187 C 
HETATM    2  C6  UNL     1       8.209  -3.769  16.481  1.00  0.00     0.040 C 
HETATM    3  C7  UNL     1       7.114  -3.093  15.706  1.00  0.00     0.023 C 
HETATM    4  C8  UNL     1       7.164  -1.621  15.684  1.00  0.00     0.127 C 
HETATM    5  C9  UNL     1       6.240  -1.148  14.581  1.00  0.00     0.027 C 
HETATM    6  C12 UNL     1       4.881  -1.647  14.866  1.00  0.00     0.085 C 
HETATM    7  C24 UNL     1       4.793  -3.137  15.119  1.00  0.00     0.022 C 
HETATM    8  C25 UNL     1       5.723  -3.488  16.237  1.00  0.00     0.033 C 
HETATM    9  C26 UNL     1       5.819  -4.898  16.617  1.00  0.00     0.282 C 
HETATM   10  N5  UNL     1       6.757  -5.566  15.739  1.00  0.00    -0.058 N 
ATOM     11  H51 UNL     1       6.602  -6.574  15.718  1.00  0.00     0.278 HD
ATOM     12  H52 UNL     1       6.567  -5.361  14.758  1.00  0.00     0.278 HD
ENDROOT
BRANCH   6  13
HETATM   13  C13 UNL     1       3.823  -1.273  13.942  1.00  0.00     0.223 C 
HETATM   14  O2  UNL     1       3.123  -2.180  13.420  1.00  0.00    -0.273 OA
HETATM   15  N1  UNL     1       3.496   0.058  13.563  1.00  0.00    -0.351 N 
ATOM     16  H1  UNL     1       4.047   0.815  13.968  1.00  0.00     0.163 HD
BRANCH  15  17
HETATM   17  C14 UNL     1       2.442   0.411  12.648  1.00  0.00     0.034 C 
HETATM   18  C15 UNL     1       2.452  -0.389  11.375  1.00  0.00     0.035 C 
HETATM   19  C16 UNL     1       1.279   0.032  10.533  1.00  0.00    -0.012 C 
HETATM   20  C17 UNL     1       1.425   1.502  10.192  1.00  0.00     0.009 C 
HETATM   21  C21 UNL     1      -0.018  -0.238  11.222  1.00  0.00     0.009 C 
HETATM   22  C18 UNL     1       1.312   2.270  11.475  1.00  0.00    -0.012 C 
HETATM   23  C19 UNL     1       0.023   1.994  12.206  1.00  0.00     0.009 C 
HETATM   24  C23 UNL     1       2.448   1.916  12.368  1.00  0.00     0.035 C 
HETATM   25  C20 UNL     1      -0.052   0.532  12.522  1.00  0.00    -0.012 C 
HETATM   26  C22 UNL     1       1.119   0.107  13.341  1.00  0.00     0.035 C 
ENDBRANCH  15  17
ENDBRANCH   6  13
BRANCH   5  27
HETATM   27  C10 UNL     1       6.751  -1.464  13.205  1.00  0.00     0.003 C 
HETATM   28  C11 UNL     1       7.095  -0.251  12.408  1.00  0.00     0.005 C 
ENDBRANCH   5  27
BRANCH   4  29
HETATM   29  O1  UNL     1       8.421  -1.068  15.617  1.00  0.00    -0.395 OA
ATOM     30  H1  UNL     1       8.618  -0.413  16.277  1.00  0.00     0.210 HD
ENDBRANCH   4  29
BRANCH   9  31
HETATM   31  C27 UNL     1       4.584  -5.674  16.696  1.00  0.00     0.251 C 
HETATM   32  O3  UNL     1       3.965  -5.862  15.614  1.00  0.00    -0.271 OA
HETATM   33  N2  UNL     1       4.017  -6.232  17.853  1.00  0.00    -0.349 N 
HETATM   34  C28 UNL     1       4.603  -6.116  19.178  1.00  0.00     0.153 C 
BRANCH  33  35
HETATM   35  C29 UNL     1       2.777  -6.973  17.752  1.00  0.00     0.183 C 
BRANCH  35  36
HETATM   36  C30 UNL     1       2.953  -8.360  18.215  1.00  0.00     0.049 A 
HETATM   37  C31 UNL     1       2.341  -8.962  19.295  1.00  0.00     0.103 A 
HETATM   38  C32 UNL     1       2.812 -10.257  19.333  1.00  0.00     0.261 A 
HETATM   39  O4  UNL     1       2.481 -11.118  20.182  1.00  0.00    -0.267 OA
HETATM   40  N3  UNL     1       3.668 -10.396  18.308  1.00  0.00    -0.266 N 
HETATM   41  N4  UNL     1       3.758  -9.261  17.632  1.00  0.00    -0.300 N 
ATOM     42  H3  UNL     1       4.175 -11.251  18.083  1.00  0.00     0.190 HD
ATOM     43  H4  UNL     1       4.338  -9.099  16.809  1.00  0.00     0.186 HD
ENDBRANCH  35  36
ENDBRANCH  33  35
ENDBRANCH   9  31
BRANCH   1  44
HETATM   44  C4  UNL     1       8.971  -5.558  14.880  1.00  0.00     0.033 C 
BRANCH  44  45
HETATM   45  C3  UNL     1       9.575  -6.937  15.130  1.00  0.00     0.002 C 
BRANCH  45  46
HETATM   46  C2  UNL     1       9.651  -7.251  16.597  1.00  0.00    -0.004 C 
HETATM   47  C1  UNL     1       9.036  -8.596  16.904  1.00  0.00     0.005 C 
ENDBRANCH  45  46
ENDBRANCH  44  45
ENDBRANCH   1  44
TORSDOF 10
ENDMDL
MODEL 3
REMARK VINA RESULT: -8.473939566      3.068      7.518
REMARK  10 active torsions:
REMARK  status: ('A' for Active; 'I' for Inactive)
REMARK    1  A    between atoms: C2_2  and  C3_3 
REMARK    2  A    between atoms: C3_3  and  C4_4 
REMARK    3  A    between atoms: C4_4  and  C5_5 
REMARK    4  A    between atoms: C8_8  and  O1_9 
REMARK    5  A    between atoms: C9_11  and  C10_12 
REMARK    6  A    between atoms: C12_14  and  C13_15 
REMARK       I    between atoms: C13_15  and  N1_17 
REMARK    7  A    between atoms: N1_17  and  C14_19 
REMARK    8  A    between atoms: C26_31  and  C27_32 
REMARK       I    between atoms: C27_32  and  N2_34 
REMARK    9  A    between atoms: N2_34  and  C29_36 
REMARK   10  A    between atoms: C29_36  and  C30_37 
ROOT
HETATM    1  C5  UNL     1       8.314  -4.850  15.962  1.00  0.00     0.187 C 
HETATM    2  C6  UNL     1       8.353  -3.370  16.296  1.00  0.00     0.040 C 
HETATM    3  C7  UNL     1       7.210  -2.747  15.548  1.00  0.00     0.023 C 
HETATM    4  C8  UNL     1       7.216  -1.275  15.485  1.00  0.00     0.127 C 
HETATM    5  C9  UNL     1       6.236  -0.859  14.408  1.00  0.00     0.027 C 
HETATM    6  C12 UNL     1       4.905  -1.389  14.759  1.00  0.00     0.085 C 
HETATM    7  C24 UNL     1       4.870  -2.873  15.053  1.00  0.00     0.022 C 
HETATM    8  C25 UNL     1       5.853  -3.167  16.142  1.00  0.00     0.033 C 
HETATM    9  C26 UNL     1       6.005  -4.563  16.555  1.00  0.00     0.282 C 
HETATM   10  N5  UNL     1       6.928  -5.228  15.659  1.00  0.00    -0.058 N 
ATOM     11  H51 UNL     1       6.802  -6.239  15.670  1.00  0.00     0.278 HD
ATOM     12  H52 UNL     1       6.695  -5.054  14.681  1.00  0.00     0.278 HD
ENDROOT
BRANCH   6  13
HETATM   13  C13 UNL     1       3.801  -1.070  13.867  1.00  0.00     0.223 C 
HETATM   14  O2  UNL     1       3.048  -1.999  13.477  1.00  0.00    -0.273 OA
HETATM   15  N1  UNL     1       3.485   0.229  13.384  1.00  0.00    -0.351 N 
ATOM     16  H1  UNL     1       4.079   1.004  13.682  1.00  0.00     0.163 HD
BRANCH  15  17
HETATM   17  C14 UNL     1       2.386   0.528  12.504  1.00  0.00     0.034 C 
HETATM   18  C15 UNL     1       2.383  -0.287  11.240  1.00  0.00     0.035 C 
HETATM   19  C16 UNL     1       1.165   0.076  10.437  1.00  0.00    -0.012 C 
HETATM   20  C17 UNL     1       1.238   1.546  10.074  1.00  0.00     0.009 C 
HETATM   21  C21 UNL     1      -0.095  -0.238  11.174  1.00  0.00     0.009 C 
HETATM   22  C18 UNL     1       1.139   2.324  11.351  1.00  0.00    -0.012 C 
HETATM   23  C19 UNL     1      -0.111   2.006  12.132  1.00  0.00     0.009 C 
HETATM   24  C23 UNL     1       2.319   2.028  12.207  1.00  0.00     0.035 C 
HETATM   25  C20 UNL     1      -0.114   0.546  12.467  1.00  0.00    -0.012 C 
HETATM   26  C22 UNL     1       1.101   0.179  13.247  1.00  0.00     0.035 C 
ENDBRANCH  15  17
ENDBRANCH   6  13
BRANCH   5  27
HETATM   27  C10 UNL     1       6.703  -1.197  13.021  1.00  0.00     0.003 C 
HETATM   28  C11 UNL     1       6.999   0.003  12.186  1.00  0.00     0.005 C 
ENDBRANCH   5  27
BRANCH   4  29
HETATM   29  O1  UNL     1       8.452  -0.688  15.354  1.00  0.00    -0.395 OA
ATOM     30  H1  UNL     1       8.665  -0.365  14.486  1.00  0.00     0.210 HD
ENDBRANCH   4  29
BRANCH   9  31
HETATM   31  C27 UNL     1       4.798  -5.372  16.703  1.00  0.00     0.251 C 
HETATM   32  O3  UNL     1       3.823  -5.069  15.964  1.00  0.00    -0.271 OA
HETATM   33  N2  UNL     1       4.613  -6.449  17.584  1.00  0.00    -0.349 N 
HETATM   34  C28 UNL     1       5.634  -6.931  18.498  1.00  0.00     0.153 C 
BRANCH  33  35
HETATM   35  C29 UNL     1       3.342  -7.142  17.603  1.00  0.00     0.183 C 
BRANCH  35  36
HETATM   36  C30 UNL     1       3.357  -8.299  16.692  1.00  0.00     0.049 A 
HETATM   37  C31 UNL     1       2.849  -9.559  16.935  1.00  0.00     0.103 A 
HETATM   38  C32 UNL     1       3.094 -10.299  15.799  1.00  0.00     0.261 A 
HETATM   39  O4  UNL     1       2.774 -11.501  15.641  1.00  0.00    -0.267 OA
HETATM   40  N3  UNL     1       3.722  -9.492  14.930  1.00  0.00    -0.266 N 
HETATM   41  N4  UNL     1       3.884  -8.289  15.459  1.00  0.00    -0.300 N 
ATOM     42  H3  UNL     1       4.030  -9.765  13.997  1.00  0.00     0.190 HD
ATOM     43  H4  UNL     1       4.332  -7.492  15.007  1.00  0.00     0.186 HD
ENDBRANCH  35  36
ENDBRANCH  33  35
ENDBRANCH   9  31
BRANCH   1  44
HETATM   44  C4  UNL     1       9.106  -5.179  14.713  1.00  0.00     0.033 C 
BRANCH  44  45
HETATM   45  C3  UNL     1       9.574  -6.622  14.880  1.00  0.00     0.002 C 
BRANCH  45  46
HETATM   46  C2  UNL     1       9.938  -6.925  16.305  1.00  0.00    -0.004 C 
HETATM   47  C1  UNL     1       9.203  -8.144  16.813  1.00  0.00     0.005 C 
ENDBRANCH  45  46
ENDBRANCH  44  45
ENDBRANCH   1  44
TORSDOF 10
ENDMDL
MODEL 4
REMARK VINA RESULT: -8.464577149      3.071      7.523
REMARK  10 active torsions:
REMARK  status: ('A' for Active; 'I' for Inactive)
REMARK    1  A    between atoms: C2_2  and  C3_3 
REMARK    2  A    between atoms: C3_3  and  C4_4 
REMARK    3  A    between atoms: C4_4  and  C5_5 
REMARK    4  A    between atoms: C8_8  and  O1_9 
REMARK    5  A    between atoms: C9_11  and  C10_12 
REMARK    6  A    between atoms: C12_14  and  C13_15 
REMARK       I    between atoms: C13_15  and  N1_17 
REMARK    7  A    between atoms: N1_17  and  C14_19 
REMARK    8  A    between atoms: C26_31  and  C27_32 
REMARK       I    between atoms: C27_32  and  N2_34 
REMARK    9  A    between atoms: N2_34  and  C29_36 
REMARK   10  A    between atoms: C29_36  and  C30_37 
ROOT
HETATM    1  C5  UNL     1       8.059  -4.955  15.866  1.00  0.00     0.187 C 
HETATM    2  C6  UNL     1       8.192  -3.479  16.193  1.00  0.00     0.040 C 
HETATM    3  C7  UNL     1       7.039  -2.799  15.512  1.00  0.00     0.023 C 
HETATM    4  C8  UNL     1       7.114  -1.330  15.444  1.00  0.00     0.127 C 
HETATM    5  C9  UNL     1       6.095  -0.864  14.426  1.00  0.00     0.027 C 
HETATM    6  C12 UNL     1       4.762  -1.327  14.856  1.00  0.00     0.085 C 
HETATM    7  C24 UNL     1       4.671  -2.807  15.157  1.00  0.00     0.022 C 
HETATM    8  C25 UNL     1       5.700  -3.150  16.187  1.00  0.00     0.033 C 
HETATM    9  C26 UNL     1       5.806  -4.552  16.594  1.00  0.00     0.282 C 
HETATM   10  N5  UNL     1       6.640  -5.262  15.647  1.00  0.00    -0.058 N 
ATOM     11  H51 UNL     1       6.464  -6.266  15.668  1.00  0.00     0.278 HD
ATOM     12  H52 UNL     1       6.358  -5.077  14.684  1.00  0.00     0.278 HD
ENDROOT
BRANCH   6  13
HETATM   13  C13 UNL     1       3.625  -0.953  14.031  1.00  0.00     0.223 C 
HETATM   14  O2  UNL     1       2.698  -1.786  13.861  1.00  0.00    -0.273 OA
HETATM   15  N1  UNL     1       3.459   0.301  13.382  1.00  0.00    -0.351 N 
ATOM     16  H1  UNL     1       4.195   0.998  13.500  1.00  0.00     0.163 HD
BRANCH  15  17
HETATM   17  C14 UNL     1       2.324   0.656  12.570  1.00  0.00     0.034 C 
HETATM   18  C15 UNL     1       2.342   2.083  12.095  1.00  0.00     0.035 C 
HETATM   19  C16 UNL     1       1.142   2.313  11.217  1.00  0.00    -0.012 C 
HETATM   20  C17 UNL     1      -0.113   2.081  12.036  1.00  0.00     0.009 C 
HETATM   21  C21 UNL     1       1.169   1.438  10.007  1.00  0.00     0.009 C 
HETATM   22  C18 UNL     1      -0.141   0.629  12.405  1.00  0.00    -0.012 C 
HETATM   23  C19 UNL     1      -0.087  -0.279  11.202  1.00  0.00     0.009 C 
HETATM   24  C23 UNL     1       1.015   0.317  13.287  1.00  0.00     0.035 C 
HETATM   25  C20 UNL     1       1.179  -0.008  10.449  1.00  0.00    -0.012 C 
HETATM   26  C22 UNL     1       2.370  -0.216  11.320  1.00  0.00     0.035 C 
ENDBRANCH  15  17
ENDBRANCH   6  13
BRANCH   5  27
HETATM   27  C10 UNL     1       6.461  -1.226  13.015  1.00  0.00     0.003 C 
HETATM   28  C11 UNL     1       6.880  -0.053  12.193  1.00  0.00     0.005 C 
ENDBRANCH   5  27
BRANCH   4  29
HETATM   29  O1  UNL     1       8.369  -0.806  15.239  1.00  0.00    -0.395 OA
ATOM     30  H1  UNL     1       8.584  -0.038  15.757  1.00  0.00     0.210 HD
ENDBRANCH   4  29
BRANCH   9  31
HETATM   31  C27 UNL     1       4.570  -5.299  16.816  1.00  0.00     0.251 C 
HETATM   32  O3  UNL     1       3.632  -5.092  16.000  1.00  0.00    -0.271 OA
HETATM   33  N2  UNL     1       4.322  -6.223  17.843  1.00  0.00    -0.349 N 
HETATM   34  C28 UNL     1       5.295  -6.582  18.861  1.00  0.00     0.153 C 
BRANCH  33  35
HETATM   35  C29 UNL     1       3.031  -6.874  17.917  1.00  0.00     0.183 C 
BRANCH  35  36
HETATM   36  C30 UNL     1       3.055  -8.175  17.228  1.00  0.00     0.049 A 
HETATM   37  C31 UNL     1       2.480  -9.355  17.653  1.00  0.00     0.103 A 
HETATM   38  C32 UNL     1       2.765 -10.293  16.684  1.00  0.00     0.261 A 
HETATM   39  O4  UNL     1       2.406 -11.494  16.720  1.00  0.00    -0.267 OA
HETATM   40  N3  UNL     1       3.480  -9.674  15.733  1.00  0.00    -0.266 N 
HETATM   41  N4  UNL     1       3.659  -8.401  16.052  1.00  0.00    -0.300 N 
ATOM     42  H3  UNL     1       3.835 -10.119  14.886  1.00  0.00     0.190 HD
ATOM     43  H4  UNL     1       4.167  -7.712  15.499  1.00  0.00     0.186 HD
ENDBRANCH  35  36
ENDBRANCH  33  35
ENDBRANCH   9  31
BRANCH   1  44
HETATM   44  C4  UNL     1       8.758  -5.324  14.574  1.00  0.00     0.033 C 
BRANCH  44  45
HETATM   45  C3  UNL     1       9.504  -6.624  14.856  1.00  0.00     0.002 C 
BRANCH  45  46
HETATM   46  C2  UNL     1       9.761  -6.809  16.324  1.00  0.00    -0.004 C 
HETATM   47  C1  UNL     1       9.173  -8.107  16.826  1.00  0.00     0.005 C 
ENDBRANCH  45  46
ENDBRANCH  44  45
ENDBRANCH   1  44
TORSDOF 10
ENDMDL
MODEL 5
REMARK VINA RESULT: -8.455537413      3.104      7.375
REMARK  10 active torsions:
REMARK  status: ('A' for Active; 'I' for Inactive)
REMARK    1  A    between atoms: C2_2  and  C3_3 
REMARK    2  A    between atoms: C3_3  and  C4_4 
REMARK    3  A    between atoms: C4_4  and  C5_5 
REMARK    4  A    between atoms: C8_8  and  O1_9 
REMARK    5  A    between atoms: C9_11  and  C10_12 
REMARK    6  A    between atoms: C12_14  and  C13_15 
REMARK       I    between atoms: C13_15  and  N1_17 
REMARK    7  A    between atoms: N1_17  and  C14_19 
REMARK    8  A    between atoms: C26_31  and  C27_32 
REMARK       I    between atoms: C27_32  and  N2_34 
REMARK    9  A    between atoms: N2_34  and  C29_36 
REMARK   10  A    between atoms: C29_36  and  C30_37 
ROOT
HETATM    1  C5  UNL     1       7.949  -5.576  16.291  1.00  0.00     0.187 C 
HETATM    2  C6  UNL     1       8.007  -4.129  16.744  1.00  0.00     0.040 C 
HETATM    3  C7  UNL     1       6.956  -3.405  15.954  1.00  0.00     0.023 C 
HETATM    4  C8  UNL     1       7.016  -1.934  16.009  1.00  0.00     0.127 C 
HETATM    5  C9  UNL     1       6.150  -1.398  14.889  1.00  0.00     0.027 C 
HETATM    6  C12 UNL     1       4.775  -1.899  15.081  1.00  0.00     0.085 C 
HETATM    7  C24 UNL     1       4.666  -3.399  15.252  1.00  0.00     0.022 C 
HETATM    8  C25 UNL     1       5.538  -3.815  16.394  1.00  0.00     0.033 C 
HETATM    9  C26 UNL     1       5.607  -5.244  16.706  1.00  0.00     0.282 C 
HETATM   10  N5  UNL     1       6.583  -5.874  15.841  1.00  0.00    -0.058 N 
ATOM     11  H51 UNL     1       6.423  -6.877  15.761  1.00  0.00     0.278 HD
ATOM     12  H52 UNL     1       6.443  -5.616  14.864  1.00  0.00     0.278 HD
ENDROOT
BRANCH   6  13
HETATM   13  C13 UNL     1       3.767  -1.470  14.127  1.00  0.00     0.223 C 
HETATM   14  O2  UNL     1       3.031  -2.337  13.589  1.00  0.00    -0.273 OA
HETATM   15  N1  UNL     1       3.527  -0.124  13.736  1.00  0.00    -0.351 N 
ATOM     16  H1  UNL     1       4.109   0.603  14.154  1.00  0.00     0.163 HD
BRANCH  15  17
HETATM   17  C14 UNL     1       2.520   0.286  12.791  1.00  0.00     0.034 C 
HETATM   18  C15 UNL     1       2.549  -0.489  11.502  1.00  0.00     0.035 C 
HETATM   19  C16 UNL     1       1.423  -0.009  10.628  1.00  0.00    -0.012 C 
HETATM   20  C17 UNL     1       1.633   1.461  10.324  1.00  0.00     0.009 C 
HETATM   21  C21 UNL     1       0.093  -0.247  11.263  1.00  0.00     0.009 C 
HETATM   22  C18 UNL     1       1.500   2.206  11.618  1.00  0.00    -0.012 C 
HETATM   23  C19 UNL     1       0.175   1.962  12.296  1.00  0.00     0.009 C 
HETATM   24  C23 UNL     1       2.588   1.794  12.543  1.00  0.00     0.035 C 
HETATM   25  C20 UNL     1       0.038   0.497  12.578  1.00  0.00    -0.012 C 
HETATM   26  C22 UNL     1       1.162   0.014  13.429  1.00  0.00     0.035 C 
ENDBRANCH  15  17
ENDBRANCH   6  13
BRANCH   5  27
HETATM   27  C10 UNL     1       6.726  -1.647  13.525  1.00  0.00     0.003 C 
HETATM   28  C11 UNL     1       7.190  -0.405  12.841  1.00  0.00     0.005 C 
ENDBRANCH   5  27
BRANCH   4  29
HETATM   29  O1  UNL     1       8.278  -1.389  16.032  1.00  0.00    -0.395 OA
ATOM     30  H1  UNL     1       8.977  -1.981  16.282  1.00  0.00     0.210 HD
ENDBRANCH   4  29
BRANCH   9  31
HETATM   31  C27 UNL     1       4.365  -6.012  16.685  1.00  0.00     0.251 C 
HETATM   32  O3  UNL     1       3.952  -6.386  15.554  1.00  0.00    -0.271 OA
HETATM   33  N2  UNL     1       3.586  -6.377  17.794  1.00  0.00    -0.349 N 
HETATM   34  C28 UNL     1       3.921  -6.034  19.166  1.00  0.00     0.153 C 
BRANCH  33  35
HETATM   35  C29 UNL     1       2.373  -7.141  17.591  1.00  0.00     0.183 C 
BRANCH  35  36
HETATM   36  C30 UNL     1       2.494  -8.487  18.177  1.00  0.00     0.049 A 
HETATM   37  C31 UNL     1       1.777  -9.002  19.238  1.00  0.00     0.103 A 
HETATM   38  C32 UNL     1       2.234 -10.289  19.423  1.00  0.00     0.261 A 
HETATM   39  O4  UNL     1       1.817 -11.081  20.302  1.00  0.00    -0.267 OA
HETATM   40  N3  UNL     1       3.183 -10.508  18.499  1.00  0.00    -0.266 N 
HETATM   41  N4  UNL     1       3.345  -9.430  17.748  1.00  0.00    -0.300 N 
ATOM     42  H3  UNL     1       3.704 -11.378  18.393  1.00  0.00     0.190 HD
ATOM     43  H4  UNL     1       4.003  -9.334  16.975  1.00  0.00     0.186 HD
ENDBRANCH  35  36
ENDBRANCH  33  35
ENDBRANCH   9  31
BRANCH   1  44
HETATM   44  C4  UNL     1       8.837  -5.840  15.093  1.00  0.00     0.033 C 
BRANCH  44  45
HETATM   45  C3  UNL     1      10.135  -5.083  15.355  1.00  0.00     0.002 C 
BRANCH  45  46
HETATM   46  C2  UNL     1      10.585  -4.317  14.144  1.00  0.00    -0.004 C 
HETATM   47  C1  UNL     1      10.576  -2.828  14.401  1.00  0.00     0.005 C 
ENDBRANCH  45  46
ENDBRANCH  44  45
ENDBRANCH   1  44
TORSDOF 10
ENDMDL
