MODEL 1
REMARK VINA RESULT: -9.228887944      0.000      0.000
REMARK  10 active torsions:
REMARK  status: ('A' for Active; 'I' for Inactive)
REMARK    1  A    between atoms: C4_5  and  N2_6 
REMARK    2  A    between atoms: N2_6  and  C5_8 
REMARK    3  A    between atoms: N3_11  and  C8_12 
REMARK    4  A    between atoms: C8_12  and  C9_13 
REMARK    5  A    between atoms: C9_13  and  C10_14 
REMARK    6  A    between atoms: C10_14  and  C11_15 
REMARK    7  A    between atoms: N5_23  and  C17_24 
REMARK    8  A    between atoms: C17_24  and  C18_25 
REMARK    9  A    between atoms: C20_28  and  N6_29 
REMARK   10  A    between atoms: C27_42  and  C28_43 
ROOT
HETATM    1  C11 UNL     1       8.546  -3.159  15.418  1.00  0.00    -0.057 A 
HETATM    2  C12 UNL     1       9.364  -3.793  14.516  1.00  0.00     0.009 A 
HETATM    3  C13 UNL     1       9.624  -5.135  14.694  1.00  0.00     0.031 A 
HETATM    4  C14 UNL     1       9.076  -5.845  15.759  1.00  0.00     0.043 A 
HETATM    5  N4  UNL     1       9.355  -7.173  15.905  1.00  0.00    -0.353 N 
ATOM      6  H4  UNL     1       9.967  -7.623  15.224  1.00  0.00     0.166 HD
HETATM    7  C15 UNL     1       8.857  -7.908  16.910  1.00  0.00     0.078 A 
HETATM    8  C16 UNL     1       8.925  -9.215  17.345  1.00  0.00     0.142 A 
HETATM    9  N5  UNL     1       8.170  -9.345  18.469  1.00  0.00    -0.295 N 
HETATM   10  N8  UNL     1       7.628  -8.173  18.759  1.00  0.00    -0.296 N 
ATOM     11  H8  UNL     1       7.016  -8.005  19.558  1.00  0.00     0.187 HD
HETATM   12  C21 UNL     1       7.986  -7.235  17.870  1.00  0.00     0.077 A 
HETATM   13  C22 UNL     1       7.728  -5.889  17.688  1.00  0.00     0.047 A 
HETATM   14  C23 UNL     1       8.260  -5.159  16.637  1.00  0.00    -0.007 A 
HETATM   15  C24 UNL     1       7.989  -3.812  16.473  1.00  0.00     0.021 A 
ENDROOT
BRANCH   1  16
HETATM   16  C10 UNL     1       8.260  -1.712  15.234  1.00  0.00     0.040 C 
BRANCH  16  17
HETATM   17  C9  UNL     1       7.325  -1.468  14.081  1.00  0.00     0.025 C 
BRANCH  17  18
HETATM   18  C8  UNL     1       5.955  -1.042  14.531  1.00  0.00     0.128 C 
BRANCH  18  19
HETATM   19  N3  UNL     1       5.143  -2.139  15.032  1.00  0.00    -0.366 N 
HETATM   20  C7  UNL     1       4.600  -2.121  16.263  1.00  0.00     0.092 A 
HETATM   21  C6  UNL     1       3.829  -3.124  16.794  1.00  0.00     0.046 A 
HETATM   22  C5  UNL     1       3.575  -4.246  16.030  1.00  0.00     0.035 A 
HETATM   23  C26 UNL     1       4.121  -4.281  14.773  1.00  0.00     0.046 A 
HETATM   24  C25 UNL     1       4.885  -3.240  14.304  1.00  0.00     0.092 A 
BRANCH  22  25
HETATM   25  N2  UNL     1       2.722  -5.292  16.510  1.00  0.00    -0.355 N 
ATOM     26  H2  UNL     1       1.821  -5.056  16.927  1.00  0.00     0.166 HD
BRANCH  25  27
HETATM   27  C4  UNL     1       3.110  -6.635  16.415  1.00  0.00     0.052 A 
HETATM   28  C3  UNL     1       3.017  -7.334  15.193  1.00  0.00     0.048 A 
HETATM   29  C2  UNL     1       3.484  -8.609  15.109  1.00  0.00     0.094 A 
HETATM   30  N1  UNL     1       4.041  -9.263  16.130  1.00  0.00    -0.349 N 
HETATM   31  C1  UNL     1       4.522 -10.636  15.962  1.00  0.00     0.156 C 
HETATM   32  C29 UNL     1       4.142  -8.621  17.301  1.00  0.00     0.135 A 
HETATM   33  C27 UNL     1       3.680  -7.302  17.469  1.00  0.00     0.097 A 
HETATM   34  N10 UNL     1       4.731  -9.295  18.404  1.00  0.00    -0.081 NA
BRANCH  33  35
HETATM   35  C28 UNL     1       3.797  -6.735  18.781  1.00  0.00     0.270 C 
HETATM   36  N9  UNL     1       2.656  -6.503  19.619  1.00  0.00    -0.057 NA
HETATM   37  O1  UNL     1       4.874  -6.401  19.296  1.00  0.00    -0.271 OA
ENDBRANCH  33  35
ENDBRANCH  25  27
ENDBRANCH  22  25
ENDBRANCH  18  19
ENDBRANCH  17  18
ENDBRANCH  16  17
ENDBRANCH   1  16
BRANCH   9  38
HETATM   38  C17 UNL     1       8.030 -10.602  19.177  1.00  0.00     0.205 C 
BRANCH  38  39
HETATM   39  C18 UNL     1       9.267 -10.759  20.068  1.00  0.00     0.037 A 
HETATM   40  C19 UNL     1      10.218 -11.716  19.804  1.00  0.00     0.080 A 
HETATM   41  S1  UNL     1      11.341 -11.463  21.059  1.00  0.00    -0.064 SA
HETATM   42  C20 UNL     1      10.558 -10.176  21.844  1.00  0.00     0.142 A 
HETATM   43  N7  UNL     1       9.464  -9.989  21.112  1.00  0.00    -0.338 N 
ATOM     44  H7  UNL     1       8.792  -9.261  21.356  1.00  0.00     0.168 HD
BRANCH  42  45
HETATM   45  N6  UNL     1      10.931  -9.512  22.916  1.00  0.00    -0.380 N 
ATOM     46  H62 UNL     1      10.336  -9.132  23.652  1.00  0.00     0.158 HD
ATOM     47  H61 UNL     1      11.871  -9.252  23.215  1.00  0.00     0.158 HD
ENDBRANCH  42  45
ENDBRANCH  38  39
ENDBRANCH   9  38
TORSDOF 10
ENDMDL
MODEL 2
REMARK VINA RESULT: -8.867097475      8.695     14.777
REMARK  10 active torsions:
REMARK  status: ('A' for Active; 'I' for Inactive)
REMARK    1  A    between atoms: C4_5  and  N2_6 
REMARK    2  A    between atoms: N2_6  and  C5_8 
REMARK    3  A    between atoms: N3_11  and  C8_12 
REMARK    4  A    between atoms: C8_12  and  C9_13 
REMARK    5  A    between atoms: C9_13  and  C10_14 
REMARK    6  A    between atoms: C10_14  and  C11_15 
REMARK    7  A    between atoms: N5_23  and  C17_24 
REMARK    8  A    between atoms: C17_24  and  C18_25 
REMARK    9  A    between atoms: C20_28  and  N6_29 
REMARK   10  A    between atoms: C27_42  and  C28_43 
ROOT
HETATM    1  C11 UNL     1       1.899  -0.014  13.137  1.00  0.00    -0.057 A 
HETATM    2  C12 UNL     1       0.744  -0.345  12.476  1.00  0.00     0.009 A 
HETATM    3  C13 UNL     1       0.414   0.356  11.335  1.00  0.00     0.031 A 
HETATM    4  C14 UNL     1       1.227   1.378  10.852  1.00  0.00     0.043 A 
HETATM    5  N4  UNL     1       0.869   2.051   9.720  1.00  0.00    -0.353 N 
ATOM      6  H4  UNL     1       0.005   1.789   9.245  1.00  0.00     0.166 HD
HETATM    7  C15 UNL     1       1.611   3.043   9.208  1.00  0.00     0.078 A 
HETATM    8  C16 UNL     1       1.557   3.902   8.129  1.00  0.00     0.142 A 
HETATM    9  N5  UNL     1       2.648   4.712   8.156  1.00  0.00    -0.295 N 
HETATM   10  N8  UNL     1       3.389   4.400   9.207  1.00  0.00    -0.296 N 
ATOM     11  H8  UNL     1       4.264   4.864   9.451  1.00  0.00     0.187 HD
HETATM   12  C21 UNL     1       2.842   3.397   9.909  1.00  0.00     0.077 A 
HETATM   13  C22 UNL     1       3.168   2.692  11.053  1.00  0.00     0.047 A 
HETATM   14  C23 UNL     1       2.378   1.670  11.555  1.00  0.00    -0.007 A 
HETATM   15  C24 UNL     1       2.724   0.978  12.703  1.00  0.00     0.021 A 
ENDROOT
BRANCH   1  16
HETATM   16  C10 UNL     1       2.263  -0.764  14.367  1.00  0.00     0.040 C 
BRANCH  16  17
HETATM   17  C9  UNL     1       3.187  -1.913  14.071  1.00  0.00     0.025 C 
BRANCH  17  18
HETATM   18  C8  UNL     1       4.533  -1.752  14.722  1.00  0.00     0.128 C 
BRANCH  18  19
HETATM   19  N3  UNL     1       5.405  -0.821  14.025  1.00  0.00    -0.366 N 
HETATM   20  C7  UNL     1       5.867  -1.066  12.785  1.00  0.00     0.092 A 
HETATM   21  C6  UNL     1       6.693  -0.230  12.077  1.00  0.00     0.046 A 
HETATM   22  C5  UNL     1       7.095   0.958  12.656  1.00  0.00     0.035 A 
HETATM   23  C26 UNL     1       6.634   1.223  13.919  1.00  0.00     0.046 A 
HETATM   24  C25 UNL     1       5.808   0.340  14.571  1.00  0.00     0.092 A 
BRANCH  22  25
HETATM   25  N2  UNL     1       7.903   1.897  11.935  1.00  0.00    -0.355 N 
ATOM     26  H2  UNL     1       8.654   2.391  12.418  1.00  0.00     0.166 HD
BRANCH  25  27
HETATM   27  C4  UNL     1       7.674   2.145  10.576  1.00  0.00     0.052 A 
HETATM   28  C3  UNL     1       7.887   1.141   9.607  1.00  0.00     0.048 A 
HETATM   29  C2  UNL     1       7.571   1.383   8.306  1.00  0.00     0.094 A 
HETATM   30  N1  UNL     1       7.058   2.534   7.870  1.00  0.00    -0.349 N 
HETATM   31  C1  UNL     1       6.743   2.719   6.451  1.00  0.00     0.156 C 
HETATM   32  C29 UNL     1       6.846   3.503   8.769  1.00  0.00     0.135 A 
HETATM   33  C27 UNL     1       7.148   3.331  10.133  1.00  0.00     0.097 A 
HETATM   34  N10 UNL     1       6.300   4.738   8.330  1.00  0.00    -0.081 NA
BRANCH  33  35
HETATM   35  C28 UNL     1       6.923   4.455  10.995  1.00  0.00     0.270 C 
HETATM   36  N9  UNL     1       8.001   5.197  11.582  1.00  0.00    -0.057 NA
HETATM   37  O1  UNL     1       5.798   4.876  11.302  1.00  0.00    -0.271 OA
ENDBRANCH  33  35
ENDBRANCH  25  27
ENDBRANCH  22  25
ENDBRANCH  18  19
ENDBRANCH  17  18
ENDBRANCH  16  17
ENDBRANCH   1  16
BRANCH   9  38
HETATM   38  C17 UNL     1       2.891   5.732   7.154  1.00  0.00     0.205 C 
BRANCH  38  39
HETATM   39  C18 UNL     1       1.612   6.570   7.042  1.00  0.00     0.037 A 
HETATM   40  C19 UNL     1       0.989   6.760   5.831  1.00  0.00     0.080 A 
HETATM   41  S1  UNL     1      -0.341   7.732   6.260  1.00  0.00    -0.064 SA
HETATM   42  C20 UNL     1      -0.044   7.846   7.929  1.00  0.00     0.142 A 
HETATM   43  N7  UNL     1       1.066   7.133   8.094  1.00  0.00    -0.338 N 
ATOM     44  H7  UNL     1       1.484   7.026   9.018  1.00  0.00     0.168 HD
BRANCH  42  45
HETATM   45  N6  UNL     1      -0.735   8.482   8.851  1.00  0.00    -0.380 N 
ATOM     46  H62 UNL     1      -1.662   8.248   9.206  1.00  0.00     0.158 HD
ATOM     47  H61 UNL     1      -0.483   9.317   9.379  1.00  0.00     0.158 HD
ENDBRANCH  42  45
ENDBRANCH  38  39
ENDBRANCH   9  38
TORSDOF 10
ENDMDL
MODEL 3
REMARK VINA RESULT: -8.707554813      9.315     15.019
REMARK  10 active torsions:
REMARK  status: ('A' for Active; 'I' for Inactive)
REMARK    1  A    between atoms: C4_5  and  N2_6 
REMARK    2  A    between atoms: N2_6  and  C5_8 
REMARK    3  A    between atoms: N3_11  and  C8_12 
REMARK    4  A    between atoms: C8_12  and  C9_13 
REMARK    5  A    between atoms: C9_13  and  C10_14 
REMARK    6  A    between atoms: C10_14  and  C11_15 
REMARK    7  A    between atoms: N5_23  and  C17_24 
REMARK    8  A    between atoms: C17_24  and  C18_25 
REMARK    9  A    between atoms: C20_28  and  N6_29 
REMARK   10  A    between atoms: C27_42  and  C28_43 
ROOT
HETATM    1  C11 UNL     1       2.759   0.196  13.184  1.00  0.00    -0.057 A 
HETATM    2  C12 UNL     1       1.579  -0.275  12.665  1.00  0.00     0.009 A 
HETATM    3  C13 UNL     1       1.053   0.350  11.554  1.00  0.00     0.031 A 
HETATM    4  C14 UNL     1       1.693   1.435  10.962  1.00  0.00     0.043 A 
HETATM    5  N4  UNL     1       1.143   2.030   9.863  1.00  0.00    -0.353 N 
ATOM      6  H4  UNL     1       0.265   1.664   9.495  1.00  0.00     0.166 HD
HETATM    7  C15 UNL     1       1.714   3.077   9.250  1.00  0.00     0.078 A 
HETATM    8  C16 UNL     1       1.449   3.890   8.167  1.00  0.00     0.142 A 
HETATM    9  N5  UNL     1       2.444   4.810   8.054  1.00  0.00    -0.295 N 
HETATM   10  N8  UNL     1       3.325   4.611   9.021  1.00  0.00    -0.296 N 
ATOM     11  H8  UNL     1       4.167   5.171   9.155  1.00  0.00     0.187 HD
HETATM   12  C21 UNL     1       2.970   3.580   9.801  1.00  0.00     0.077 A 
HETATM   13  C22 UNL     1       3.493   2.950  10.915  1.00  0.00     0.047 A 
HETATM   14  C23 UNL     1       2.877   1.868  11.524  1.00  0.00    -0.007 A 
HETATM   15  C24 UNL     1       3.419   1.253  12.639  1.00  0.00     0.021 A 
ENDROOT
BRANCH   1  16
HETATM   16  C10 UNL     1       3.334  -0.472  14.381  1.00  0.00     0.040 C 
BRANCH  16  17
HETATM   17  C9  UNL     1       4.421   0.352  15.013  1.00  0.00     0.025 C 
BRANCH  17  18
HETATM   18  C8  UNL     1       5.784  -0.259  14.837  1.00  0.00     0.128 C 
BRANCH  18  19
HETATM   19  N3  UNL     1       6.513   0.272  13.697  1.00  0.00    -0.366 N 
HETATM   20  C7  UNL     1       6.699  -0.443  12.573  1.00  0.00     0.092 A 
HETATM   21  C6  UNL     1       7.379  -0.000  11.465  1.00  0.00     0.046 A 
HETATM   22  C5  UNL     1       7.922   1.270  11.480  1.00  0.00     0.035 A 
HETATM   23  C26 UNL     1       7.742   2.011  12.619  1.00  0.00     0.046 A 
HETATM   24  C25 UNL     1       7.049   1.505  13.692  1.00  0.00     0.092 A 
BRANCH  22  25
HETATM   25  N2  UNL     1       8.583   1.805  10.328  1.00  0.00    -0.355 N 
ATOM     26  H2  UNL     1       9.594   1.949  10.348  1.00  0.00     0.166 HD
BRANCH  25  27
HETATM   27  C4  UNL     1       7.861   2.135   9.174  1.00  0.00     0.052 A 
HETATM   28  C3  UNL     1       7.572   1.162   8.193  1.00  0.00     0.048 A 
HETATM   29  C2  UNL     1       6.792   1.490   7.128  1.00  0.00     0.094 A 
HETATM   30  N1  UNL     1       6.265   2.701   6.941  1.00  0.00    -0.349 N 
HETATM   31  C1  UNL     1       5.434   2.978   5.768  1.00  0.00     0.156 C 
HETATM   32  C29 UNL     1       6.522   3.642   7.858  1.00  0.00     0.135 A 
HETATM   33  C27 UNL     1       7.322   3.382   8.987  1.00  0.00     0.097 A 
HETATM   34  N10 UNL     1       5.972   4.940   7.682  1.00  0.00    -0.081 NA
BRANCH  33  35
HETATM   35  C28 UNL     1       7.569   4.480   9.875  1.00  0.00     0.270 C 
HETATM   36  N9  UNL     1       8.785   5.238   9.836  1.00  0.00    -0.057 NA
HETATM   37  O1  UNL     1       6.766   4.864  10.740  1.00  0.00    -0.271 OA
ENDBRANCH  33  35
ENDBRANCH  25  27
ENDBRANCH  22  25
ENDBRANCH  18  19
ENDBRANCH  17  18
ENDBRANCH  16  17
ENDBRANCH   1  16
BRANCH   9  38
HETATM   38  C17 UNL     1       2.464   5.816   7.010  1.00  0.00     0.205 C 
BRANCH  38  39
HETATM   39  C18 UNL     1       1.142   6.587   7.099  1.00  0.00     0.037 A 
HETATM   40  C19 UNL     1       0.212   6.523   6.089  1.00  0.00     0.080 A 
HETATM   41  S1  UNL     1      -1.028   7.531   6.679  1.00  0.00    -0.064 SA
HETATM   42  C20 UNL     1      -0.313   7.974   8.155  1.00  0.00     0.142 A 
HETATM   43  N7  UNL     1       0.851   7.332   8.139  1.00  0.00    -0.338 N 
ATOM     44  H7  UNL     1       1.503   7.417   8.918  1.00  0.00     0.168 HD
BRANCH  42  45
HETATM   45  N6  UNL     1      -0.784   8.761   9.098  1.00  0.00    -0.380 N 
ATOM     46  H62 UNL     1      -1.415   9.556   8.990  1.00  0.00     0.158 HD
ATOM     47  H61 UNL     1      -0.613   8.731  10.103  1.00  0.00     0.158 HD
ENDBRANCH  42  45
ENDBRANCH  38  39
ENDBRANCH   9  38
TORSDOF 10
ENDMDL
MODEL 4
REMARK VINA RESULT: -8.647274437      1.226      1.934
REMARK  10 active torsions:
REMARK  status: ('A' for Active; 'I' for Inactive)
REMARK    1  A    between atoms: C4_5  and  N2_6 
REMARK    2  A    between atoms: N2_6  and  C5_8 
REMARK    3  A    between atoms: N3_11  and  C8_12 
REMARK    4  A    between atoms: C8_12  and  C9_13 
REMARK    5  A    between atoms: C9_13  and  C10_14 
REMARK    6  A    between atoms: C10_14  and  C11_15 
REMARK    7  A    between atoms: N5_23  and  C17_24 
REMARK    8  A    between atoms: C17_24  and  C18_25 
REMARK    9  A    between atoms: C20_28  and  N6_29 
REMARK   10  A    between atoms: C27_42  and  C28_43 
ROOT
HETATM    1  C11 UNL     1       8.623  -3.222  15.389  1.00  0.00    -0.057 A 
HETATM    2  C12 UNL     1       9.355  -3.910  14.454  1.00  0.00     0.009 A 
HETATM    3  C13 UNL     1       9.559  -5.261  14.641  1.00  0.00     0.031 A 
HETATM    4  C14 UNL     1       9.040  -5.926  15.748  1.00  0.00     0.043 A 
HETATM    5  N4  UNL     1       9.262  -7.264  15.902  1.00  0.00    -0.353 N 
ATOM      6  H4  UNL     1       9.810  -7.754  15.195  1.00  0.00     0.166 HD
HETATM    7  C15 UNL     1       8.787  -7.958  16.946  1.00  0.00     0.078 A 
HETATM    8  C16 UNL     1       8.816  -9.260  17.400  1.00  0.00     0.142 A 
HETATM    9  N5  UNL     1       8.122  -9.335  18.567  1.00  0.00    -0.295 N 
HETATM   10  N8  UNL     1       7.656  -8.134  18.867  1.00  0.00    -0.296 N 
ATOM     11  H8  UNL     1       7.100  -7.924  19.696  1.00  0.00     0.187 HD
HETATM   12  C21 UNL     1       8.007  -7.228  17.943  1.00  0.00     0.077 A 
HETATM   13  C22 UNL     1       7.805  -5.874  17.751  1.00  0.00     0.047 A 
HETATM   14  C23 UNL     1       8.310  -5.187  16.658  1.00  0.00    -0.007 A 
HETATM   15  C24 UNL     1       8.096  -3.831  16.487  1.00  0.00     0.021 A 
ENDROOT
BRANCH   1  16
HETATM   16  C10 UNL     1       8.397  -1.766  15.197  1.00  0.00     0.040 C 
BRANCH  16  17
HETATM   17  C9  UNL     1       7.636  -1.480  13.931  1.00  0.00     0.025 C 
BRANCH  17  18
HETATM   18  C8  UNL     1       6.301  -0.840  14.194  1.00  0.00     0.128 C 
BRANCH  18  19
HETATM   19  N3  UNL     1       5.373  -1.708  14.902  1.00  0.00    -0.366 N 
HETATM   20  C7  UNL     1       4.813  -2.782  14.317  1.00  0.00     0.092 A 
HETATM   21  C6  UNL     1       3.931  -3.637  14.929  1.00  0.00     0.046 A 
HETATM   22  C5  UNL     1       3.574  -3.400  16.242  1.00  0.00     0.035 A 
HETATM   23  C26 UNL     1       4.136  -2.309  16.853  1.00  0.00     0.046 A 
HETATM   24  C25 UNL     1       5.014  -1.494  16.180  1.00  0.00     0.092 A 
BRANCH  22  25
HETATM   25  N2  UNL     1       2.709  -4.297  16.948  1.00  0.00    -0.355 N 
ATOM     26  H2  UNL     1       1.762  -4.000  17.188  1.00  0.00     0.166 HD
BRANCH  25  27
HETATM   27  C4  UNL     1       3.146  -5.577  17.314  1.00  0.00     0.052 A 
HETATM   28  C3  UNL     1       3.839  -5.790  18.525  1.00  0.00     0.048 A 
HETATM   29  C2  UNL     1       4.171  -7.056  18.896  1.00  0.00     0.094 A 
HETATM   30  N1  UNL     1       3.879  -8.140  18.176  1.00  0.00    -0.349 N 
HETATM   31  C1  UNL     1       4.271  -9.472  18.643  1.00  0.00     0.156 C 
HETATM   32  C29 UNL     1       3.222  -7.965  17.024  1.00  0.00     0.135 A 
HETATM   33  C27 UNL     1       2.844  -6.687  16.569  1.00  0.00     0.097 A 
HETATM   34  N10 UNL     1       2.899  -9.103  16.238  1.00  0.00    -0.081 NA
BRANCH  33  35
HETATM   35  C28 UNL     1       2.187  -6.618  15.296  1.00  0.00     0.270 C 
HETATM   36  N9  UNL     1       0.882  -6.046  15.139  1.00  0.00    -0.057 NA
HETATM   37  O1  UNL     1       2.681  -7.040  14.239  1.00  0.00    -0.271 OA
ENDBRANCH  33  35
ENDBRANCH  25  27
ENDBRANCH  22  25
ENDBRANCH  18  19
ENDBRANCH  17  18
ENDBRANCH  16  17
ENDBRANCH   1  16
BRANCH   9  38
HETATM   38  C17 UNL     1       7.962 -10.574  19.304  1.00  0.00     0.205 C 
BRANCH  38  39
HETATM   39  C18 UNL     1       9.220 -10.755  20.162  1.00  0.00     0.037 A 
HETATM   40  C19 UNL     1      10.124 -11.755  19.897  1.00  0.00     0.080 A 
HETATM   41  S1  UNL     1      11.294 -11.512  21.110  1.00  0.00    -0.064 SA
HETATM   42  C20 UNL     1      10.587 -10.173  21.880  1.00  0.00     0.142 A 
HETATM   43  N7  UNL     1       9.478  -9.964  21.176  1.00  0.00    -0.338 N 
ATOM     44  H7  UNL     1       8.843  -9.204  21.420  1.00  0.00     0.168 HD
BRANCH  42  45
HETATM   45  N6  UNL     1      11.019  -9.495  22.921  1.00  0.00    -0.380 N 
ATOM     46  H62 UNL     1      11.982  -9.388  23.240  1.00  0.00     0.158 HD
ATOM     47  H61 UNL     1      10.483  -8.955  23.601  1.00  0.00     0.158 HD
ENDBRANCH  42  45
ENDBRANCH  38  39
ENDBRANCH   9  38
TORSDOF 10
ENDMDL
MODEL 5
REMARK VINA RESULT: -8.539499896      8.397     14.272
REMARK  10 active torsions:
REMARK  status: ('A' for Active; 'I' for Inactive)
REMARK    1  A    between atoms: C4_5  and  N2_6 
REMARK    2  A    between atoms: N2_6  and  C5_8 
REMARK    3  A    between atoms: N3_11  and  C8_12 
REMARK    4  A    between atoms: C8_12  and  C9_13 
REMARK    5  A    between atoms: C9_13  and  C10_14 
REMARK    6  A    between atoms: C10_14  and  C11_15 
REMARK    7  A    between atoms: N5_23  and  C17_24 
REMARK    8  A    between atoms: C17_24  and  C18_25 
REMARK    9  A    between atoms: C20_28  and  N6_29 
REMARK   10  A    between atoms: C27_42  and  C28_43 
ROOT
HETATM    1  C11 UNL     1       1.714   0.002  13.226  1.00  0.00    -0.057 A 
HETATM    2  C12 UNL     1       0.441  -0.044  12.716  1.00  0.00     0.009 A 
HETATM    3  C13 UNL     1       0.130   0.768  11.646  1.00  0.00     0.031 A 
HETATM    4  C14 UNL     1       1.076   1.620  11.084  1.00  0.00     0.043 A 
HETATM    5  N4  UNL     1       0.734   2.410  10.025  1.00  0.00    -0.353 N 
ATOM      6  H4  UNL     1      -0.219   2.360   9.664  1.00  0.00     0.166 HD
HETATM    7  C15 UNL     1       1.601   3.249   9.442  1.00  0.00     0.078 A 
HETATM    8  C16 UNL     1       1.599   4.154   8.401  1.00  0.00     0.142 A 
HETATM    9  N5  UNL     1       2.834   4.715   8.301  1.00  0.00    -0.295 N 
HETATM   10  N8  UNL     1       3.615   4.201   9.237  1.00  0.00    -0.296 N 
ATOM     11  H8  UNL     1       4.593   4.456   9.374  1.00  0.00     0.187 HD
HETATM   12  C21 UNL     1       2.958   3.300   9.982  1.00  0.00     0.077 A 
HETATM   13  C22 UNL     1       3.264   2.484  11.056  1.00  0.00     0.047 A 
HETATM   14  C23 UNL     1       2.342   1.627  11.634  1.00  0.00    -0.007 A 
HETATM   15  C24 UNL     1       2.671   0.819  12.709  1.00  0.00     0.021 A 
ENDROOT
BRANCH   1  16
HETATM   16  C10 UNL     1       2.059  -0.870  14.379  1.00  0.00     0.040 C 
BRANCH  16  17
HETATM   17  C9  UNL     1       2.988  -1.983  13.982  1.00  0.00     0.025 C 
BRANCH  17  18
HETATM   18  C8  UNL     1       4.322  -1.893  14.670  1.00  0.00     0.128 C 
BRANCH  18  19
HETATM   19  N3  UNL     1       5.218  -0.918  14.069  1.00  0.00    -0.366 N 
HETATM   20  C7  UNL     1       5.713  -1.074  12.826  1.00  0.00     0.092 A 
HETATM   21  C6  UNL     1       6.562  -0.193  12.205  1.00  0.00     0.046 A 
HETATM   22  C5  UNL     1       6.955   0.945  12.882  1.00  0.00     0.035 A 
HETATM   23  C26 UNL     1       6.461   1.119  14.149  1.00  0.00     0.046 A 
HETATM   24  C25 UNL     1       5.613   0.195  14.711  1.00  0.00     0.092 A 
BRANCH  22  25
HETATM   25  N2  UNL     1       7.787   1.929  12.256  1.00  0.00    -0.355 N 
ATOM     26  H2  UNL     1       8.415   2.495  12.827  1.00  0.00     0.166 HD
BRANCH  25  27
HETATM   27  C4  UNL     1       7.750   2.123  10.869  1.00  0.00     0.052 A 
HETATM   28  C3  UNL     1       8.076   1.078   9.979  1.00  0.00     0.048 A 
HETATM   29  C2  UNL     1       7.943   1.269   8.639  1.00  0.00     0.094 A 
HETATM   30  N1  UNL     1       7.514   2.407   8.091  1.00  0.00    -0.349 N 
HETATM   31  C1  UNL     1       7.397   2.536   6.637  1.00  0.00     0.156 C 
HETATM   32  C29 UNL     1       7.197   3.414   8.914  1.00  0.00     0.135 A 
HETATM   33  C27 UNL     1       7.309   3.296  10.312  1.00  0.00     0.097 A 
HETATM   34  N10 UNL     1       6.737   4.636   8.357  1.00  0.00    -0.081 NA
BRANCH  33  35
HETATM   35  C28 UNL     1       6.987   4.457  11.090  1.00  0.00     0.270 C 
HETATM   36  N9  UNL     1       7.996   5.262  11.716  1.00  0.00    -0.057 NA
HETATM   37  O1  UNL     1       5.831   4.859  11.287  1.00  0.00    -0.271 OA
ENDBRANCH  33  35
ENDBRANCH  25  27
ENDBRANCH  22  25
ENDBRANCH  18  19
ENDBRANCH  17  18
ENDBRANCH  16  17
ENDBRANCH   1  16
BRANCH   9  38
HETATM   38  C17 UNL     1       3.163   5.711   7.300  1.00  0.00     0.205 C 
BRANCH  38  39
HETATM   39  C18 UNL     1       3.881   4.984   6.157  1.00  0.00     0.037 A 
HETATM   40  C19 UNL     1       3.358   3.840   5.602  1.00  0.00     0.080 A 
HETATM   41  S1  UNL     1       4.514   3.458   4.412  1.00  0.00    -0.064 SA
HETATM   42  C20 UNL     1       5.586   4.749   4.676  1.00  0.00     0.142 A 
HETATM   43  N7  UNL     1       5.015   5.426   5.668  1.00  0.00    -0.338 N 
ATOM     44  H7  UNL     1       5.449   6.270   6.041  1.00  0.00     0.168 HD
BRANCH  42  45
HETATM   45  N6  UNL     1       6.712   5.029   4.057  1.00  0.00    -0.380 N 
ATOM     46  H62 UNL     1       6.959   4.824   3.088  1.00  0.00     0.158 HD
ATOM     47  H61 UNL     1       7.544   5.496   4.419  1.00  0.00     0.158 HD
ENDBRANCH  42  45
ENDBRANCH  38  39
ENDBRANCH   9  38
TORSDOF 10
ENDMDL
