MODEL 1
REMARK VINA RESULT: -6.809956500      0.000      0.000
REMARK  10 active torsions:
REMARK  status: ('A' for Active; 'I' for Inactive)
REMARK    1  A    between atoms: C2_2  and  C3_3 
REMARK    2  A    between atoms: C3_3  and  C4_4 
REMARK    3  A    between atoms: C4_4  and  C5_5 
REMARK    4  A    between atoms: C7_10  and  C8_11 
REMARK    5  A    between atoms: C8_11  and  C9_12 
REMARK    6  A    between atoms: C15_21  and  C16_22 
REMARK    7  A    between atoms: C20_29  and  N4_30 
REMARK       I    between atoms: N4_30  and  C21_32 
REMARK    8  A    between atoms: C24_36  and  C25_37 
REMARK    9  A    between atoms: C25_37  and  C26_38 
REMARK   10  A    between atoms: C31_43  and  N5_44 
ROOT
HETATM    1  C5  UNL     1       5.265  -6.147  16.767  1.00  0.00     0.089 C 
HETATM    2  N1  UNL     1       4.278  -5.115  16.424  1.00  0.00    -0.354 N 
ATOM      3  H1  UNL     1       3.303  -5.403  16.344  1.00  0.00     0.162 HD
HETATM    4  C6  UNL     1       4.580  -3.747  16.195  1.00  0.00     0.240 C 
HETATM    5  O1  UNL     1       3.930  -2.836  16.827  1.00  0.00    -0.271 OA
HETATM    6  C7  UNL     1       5.603  -3.221  15.272  1.00  0.00     0.177 C 
HETATM    7  N2  UNL     1       6.153  -1.974  15.797  1.00  0.00    -0.348 N 
ATOM      8  H2  UNL     1       5.503  -1.347  16.269  1.00  0.00     0.163 HD
HETATM    9  C12 UNL     1       7.488  -1.557  15.714  1.00  0.00     0.218 C 
HETATM   10  O2  UNL     1       7.693  -0.430  15.138  1.00  0.00    -0.274 OA
HETATM   11  C13 UNL     1       8.690  -2.253  16.211  1.00  0.00     0.108 C 
HETATM   12  C14 UNL     1       9.513  -2.925  15.176  1.00  0.00     0.062 C 
HETATM   13  C15 UNL     1       9.583  -4.406  15.232  1.00  0.00    -0.007 C 
HETATM   14  N3  UNL     1       9.489  -5.101  16.225  1.00  0.00    -0.332 N 
ATOM     15  H3  UNL     1       9.588  -6.037  15.832  1.00  0.00     0.168 HD
HETATM   16  C19 UNL     1       9.333  -5.370  17.527  1.00  0.00     0.244 C 
HETATM   17  O3  UNL     1      10.045  -4.887  18.453  1.00  0.00    -0.271 OA
HETATM   18  C20 UNL     1       8.250  -6.319  18.057  1.00  0.00     0.177 C 
HETATM   19  C23 UNL     1       7.057  -5.544  18.310  1.00  0.00     0.042 C 
HETATM   20  C24 UNL     1       5.682  -6.169  18.168  1.00  0.00     0.016 C 
ENDROOT
BRANCH  20  21
HETATM   21  C25 UNL     1       5.393  -7.225  19.129  1.00  0.00     0.064 C 
BRANCH  21  22
HETATM   22  C26 UNL     1       3.996  -7.560  19.434  1.00  0.00     0.011 A 
HETATM   23  C27 UNL     1       3.455  -8.752  18.919  1.00  0.00     0.032 A 
HETATM   24  C28 UNL     1       2.154  -9.128  19.109  1.00  0.00    -0.057 A 
HETATM   25  C29 UNL     1       1.619 -10.407  18.542  1.00  0.00     0.048 C 
HETATM   26  C30 UNL     1       1.309  -8.322  19.835  1.00  0.00     0.054 A 
HETATM   27  C31 UNL     1       1.834  -7.156  20.339  1.00  0.00     0.099 A 
HETATM   28  N6  UNL     1       3.133  -6.821  20.126  1.00  0.00    -0.346 N 
ATOM     29  H6  UNL     1       3.470  -5.944  20.522  1.00  0.00     0.167 HD
BRANCH  27  30
HETATM   30  N5  UNL     1       1.067  -6.383  21.021  1.00  0.00    -0.385 N 
ATOM     31  H52 UNL     1       0.744  -6.663  21.948  1.00  0.00     0.157 HD
ATOM     32  H51 UNL     1       0.791  -5.490  20.615  1.00  0.00     0.157 HD
ENDBRANCH  27  30
ENDBRANCH  21  22
ENDBRANCH  20  21
BRANCH   1  33
HETATM   33  C4  UNL     1       4.874  -7.393  16.066  1.00  0.00     0.025 C 
BRANCH  33  34
HETATM   34  C3  UNL     1       3.441  -7.178  15.532  1.00  0.00     0.002 C 
BRANCH  34  35
HETATM   35  C2  UNL     1       3.028  -8.315  14.648  1.00  0.00    -0.004 C 
HETATM   36  C1  UNL     1       3.579  -9.586  15.245  1.00  0.00     0.005 C 
ENDBRANCH  34  35
ENDBRANCH  33  34
ENDBRANCH   1  33
BRANCH  18  37
HETATM   37  N4  UNL     1       8.256  -7.402  17.151  1.00  0.00    -0.348 N 
HETATM   38  C21 UNL     1       8.366  -8.755  17.572  1.00  0.00     0.214 C 
HETATM   39  C22 UNL     1       8.373  -9.896  16.633  1.00  0.00     0.117 C 
HETATM   40  O4  UNL     1       8.462  -9.016  18.804  1.00  0.00    -0.274 OA
ATOM     41  H4  UNL     1       8.177  -7.206  16.153  1.00  0.00     0.163 HD
ENDBRANCH  18  37
BRANCH   6  42
HETATM   42  C8  UNL     1       5.234  -3.111  13.846  1.00  0.00     0.038 C 
BRANCH  42  43
HETATM   43  C9  UNL     1       4.972  -1.772  13.264  1.00  0.00    -0.020 C 
HETATM   44  C10 UNL     1       6.148  -1.384  12.319  1.00  0.00     0.009 C 
HETATM   45  C11 UNL     1       3.744  -1.657  12.396  1.00  0.00     0.009 C 
ENDBRANCH  42  43
ENDBRANCH   6  42
BRANCH  13  46
HETATM   46  C16 UNL     1       9.790  -5.055  13.874  1.00  0.00     0.023 C 
HETATM   47  C17 UNL     1       9.426  -6.504  13.876  1.00  0.00     0.016 C 
HETATM   48  C18 UNL     1      11.151  -4.879  13.312  1.00  0.00     0.016 C 
ENDBRANCH  13  46
TORSDOF 10
ENDMDL
MODEL 2
REMARK VINA RESULT: -6.587056459      0.829      1.300
REMARK  10 active torsions:
REMARK  status: ('A' for Active; 'I' for Inactive)
REMARK    1  A    between atoms: C2_2  and  C3_3 
REMARK    2  A    between atoms: C3_3  and  C4_4 
REMARK    3  A    between atoms: C4_4  and  C5_5 
REMARK    4  A    between atoms: C7_10  and  C8_11 
REMARK    5  A    between atoms: C8_11  and  C9_12 
REMARK    6  A    between atoms: C15_21  and  C16_22 
REMARK    7  A    between atoms: C20_29  and  N4_30 
REMARK       I    between atoms: N4_30  and  C21_32 
REMARK    8  A    between atoms: C24_36  and  C25_37 
REMARK    9  A    between atoms: C25_37  and  C26_38 
REMARK   10  A    between atoms: C31_43  and  N5_44 
ROOT
HETATM    1  C5  UNL     1       5.206  -6.251  16.754  1.00  0.00     0.089 C 
HETATM    2  N1  UNL     1       4.205  -5.232  16.415  1.00  0.00    -0.354 N 
ATOM      3  H1  UNL     1       3.235  -5.534  16.324  1.00  0.00     0.162 HD
HETATM    4  C6  UNL     1       4.486  -3.856  16.206  1.00  0.00     0.240 C 
HETATM    5  O1  UNL     1       3.816  -2.964  16.843  1.00  0.00    -0.271 OA
HETATM    6  C7  UNL     1       5.508  -3.302  15.298  1.00  0.00     0.177 C 
HETATM    7  N2  UNL     1       6.033  -2.053  15.843  1.00  0.00    -0.348 N 
ATOM      8  H2  UNL     1       5.368  -1.442  16.317  1.00  0.00     0.163 HD
HETATM    9  C12 UNL     1       7.361  -1.612  15.777  1.00  0.00     0.218 C 
HETATM   10  O2  UNL     1       7.552  -0.475  15.215  1.00  0.00    -0.274 OA
HETATM   11  C13 UNL     1       8.570  -2.295  16.275  1.00  0.00     0.108 C 
HETATM   12  C14 UNL     1       9.413  -2.940  15.240  1.00  0.00     0.062 C 
HETATM   13  C15 UNL     1       9.507  -4.420  15.278  1.00  0.00    -0.007 C 
HETATM   14  N3  UNL     1       9.416  -5.129  16.262  1.00  0.00    -0.332 N 
ATOM     15  H3  UNL     1       9.535  -6.058  15.857  1.00  0.00     0.168 HD
HETATM   16  C19 UNL     1       9.254  -5.416  17.558  1.00  0.00     0.244 C 
HETATM   17  O3  UNL     1       9.950  -4.933  18.497  1.00  0.00    -0.271 OA
HETATM   18  C20 UNL     1       8.183  -6.389  18.068  1.00  0.00     0.177 C 
HETATM   19  C23 UNL     1       6.975  -5.638  18.320  1.00  0.00     0.042 C 
HETATM   20  C24 UNL     1       5.612  -6.284  18.159  1.00  0.00     0.016 C 
ENDROOT
BRANCH  20  21
HETATM   21  C25 UNL     1       5.332  -7.355  19.104  1.00  0.00     0.064 C 
BRANCH  21  22
HETATM   22  C26 UNL     1       3.940  -7.746  19.362  1.00  0.00     0.011 A 
HETATM   23  C27 UNL     1       3.101  -6.855  20.057  1.00  0.00     0.032 A 
HETATM   24  C28 UNL     1       1.806  -7.147  20.384  1.00  0.00    -0.057 A 
HETATM   25  C29 UNL     1       0.949  -6.168  21.126  1.00  0.00     0.048 C 
HETATM   26  C30 UNL     1       1.270  -8.363  20.031  1.00  0.00     0.054 A 
HETATM   27  C31 UNL     1       2.086  -9.235  19.353  1.00  0.00     0.099 A 
HETATM   28  N6  UNL     1       3.368  -8.904  19.048  1.00  0.00    -0.346 N 
ATOM     29  H6  UNL     1       3.929  -9.591  18.544  1.00  0.00     0.167 HD
BRANCH  27  30
HETATM   30  N5  UNL     1       1.610 -10.379  19.011  1.00  0.00    -0.385 N 
ATOM     31  H52 UNL     1       0.617 -10.484  18.802  1.00  0.00     0.157 HD
ATOM     32  H51 UNL     1       2.247 -11.173  18.953  1.00  0.00     0.157 HD
ENDBRANCH  27  30
ENDBRANCH  21  22
ENDBRANCH  20  21
BRANCH   1  33
HETATM   33  C4  UNL     1       4.842  -7.495  16.035  1.00  0.00     0.025 C 
BRANCH  33  34
HETATM   34  C3  UNL     1       3.325  -7.422  15.750  1.00  0.00     0.002 C 
BRANCH  34  35
HETATM   35  C2  UNL     1       2.732  -8.796  15.679  1.00  0.00    -0.004 C 
HETATM   36  C1  UNL     1       3.869  -9.787  15.638  1.00  0.00     0.005 C 
ENDBRANCH  34  35
ENDBRANCH  33  34
ENDBRANCH   1  33
BRANCH  18  37
HETATM   37  N4  UNL     1       8.214  -7.462  17.149  1.00  0.00    -0.348 N 
HETATM   38  C21 UNL     1       8.361  -8.815  17.553  1.00  0.00     0.214 C 
HETATM   39  C22 UNL     1       8.395  -9.945  16.600  1.00  0.00     0.117 C 
HETATM   40  O4  UNL     1       8.467  -9.089  18.782  1.00  0.00    -0.274 OA
ATOM     41  H4  UNL     1       8.127  -7.255  16.154  1.00  0.00     0.163 HD
ENDBRANCH  18  37
BRANCH   6  42
HETATM   42  C8  UNL     1       5.148  -3.180  13.870  1.00  0.00     0.038 C 
BRANCH  42  43
HETATM   43  C9  UNL     1       4.978  -1.832  13.276  1.00  0.00    -0.020 C 
HETATM   44  C10 UNL     1       6.186  -1.527  12.340  1.00  0.00     0.009 C 
HETATM   45  C11 UNL     1       3.769  -1.647  12.394  1.00  0.00     0.009 C 
ENDBRANCH  42  43
ENDBRANCH   6  42
BRANCH  13  46
HETATM   46  C16 UNL     1       9.736  -5.049  13.914  1.00  0.00     0.023 C 
HETATM   47  C17 UNL     1       9.426  -6.510  13.903  1.00  0.00     0.016 C 
HETATM   48  C18 UNL     1      11.089  -4.818  13.352  1.00  0.00     0.016 C 
ENDBRANCH  13  46
TORSDOF 10
ENDMDL
MODEL 3
REMARK VINA RESULT: -6.571384065      2.065      8.149
REMARK  10 active torsions:
REMARK  status: ('A' for Active; 'I' for Inactive)
REMARK    1  A    between atoms: C2_2  and  C3_3 
REMARK    2  A    between atoms: C3_3  and  C4_4 
REMARK    3  A    between atoms: C4_4  and  C5_5 
REMARK    4  A    between atoms: C7_10  and  C8_11 
REMARK    5  A    between atoms: C8_11  and  C9_12 
REMARK    6  A    between atoms: C15_21  and  C16_22 
REMARK    7  A    between atoms: C20_29  and  N4_30 
REMARK       I    between atoms: N4_30  and  C21_32 
REMARK    8  A    between atoms: C24_36  and  C25_37 
REMARK    9  A    between atoms: C25_37  and  C26_38 
REMARK   10  A    between atoms: C31_43  and  N5_44 
ROOT
HETATM    1  C5  UNL     1       7.941  -4.539  15.747  1.00  0.00     0.089 C 
HETATM    2  N1  UNL     1       8.698  -5.457  16.607  1.00  0.00    -0.354 N 
ATOM      3  H1  UNL     1       9.686  -5.594  16.397  1.00  0.00     0.162 HD
HETATM    4  C6  UNL     1       8.156  -6.169  17.710  1.00  0.00     0.240 C 
HETATM    5  O1  UNL     1       8.734  -6.106  18.856  1.00  0.00    -0.271 OA
HETATM    6  C7  UNL     1       6.949  -7.016  17.695  1.00  0.00     0.177 C 
HETATM    7  N2  UNL     1       6.285  -6.959  18.995  1.00  0.00    -0.348 N 
ATOM      8  H2  UNL     1       6.886  -6.921  19.817  1.00  0.00     0.163 HD
HETATM    9  C12 UNL     1       4.903  -6.953  19.220  1.00  0.00     0.218 C 
HETATM   10  O2  UNL     1       4.447  -7.894  19.964  1.00  0.00    -0.274 OA
HETATM   11  C13 UNL     1       3.903  -5.996  18.710  1.00  0.00     0.108 C 
HETATM   12  C14 UNL     1       3.064  -6.484  17.589  1.00  0.00     0.062 C 
HETATM   13  C15 UNL     1       3.236  -5.809  16.279  1.00  0.00    -0.007 C 
HETATM   14  N3  UNL     1       3.571  -4.655  16.094  1.00  0.00    -0.332 N 
ATOM     15  H3  UNL     1       3.568  -4.600  15.075  1.00  0.00     0.168 HD
HETATM   16  C19 UNL     1       3.940  -3.414  16.431  1.00  0.00     0.244 C 
HETATM   17  O3  UNL     1       3.293  -2.654  17.207  1.00  0.00    -0.271 OA
HETATM   18  C20 UNL     1       5.220  -2.754  15.901  1.00  0.00     0.177 C 
HETATM   19  C23 UNL     1       6.300  -3.075  16.807  1.00  0.00     0.042 C 
HETATM   20  C24 UNL     1       7.725  -3.202  16.300  1.00  0.00     0.016 C 
ENDROOT
BRANCH  20  21
HETATM   21  C25 UNL     1       8.303  -1.965  15.795  1.00  0.00     0.064 C 
BRANCH  21  22
HETATM   22  C26 UNL     1       7.519  -1.122  14.883  1.00  0.00     0.011 A 
HETATM   23  C27 UNL     1       7.940  -0.992  13.547  1.00  0.00     0.032 A 
HETATM   24  C28 UNL     1       7.304  -0.195  12.635  1.00  0.00    -0.057 A 
HETATM   25  C29 UNL     1       7.787  -0.085  11.222  1.00  0.00     0.048 C 
HETATM   26  C30 UNL     1       6.197   0.527  13.015  1.00  0.00     0.054 A 
HETATM   27  C31 UNL     1       5.784   0.404  14.319  1.00  0.00     0.099 A 
HETATM   28  N6  UNL     1       6.446  -0.401  15.192  1.00  0.00    -0.346 N 
ATOM     29  H6  UNL     1       6.095  -0.454  16.148  1.00  0.00     0.167 HD
BRANCH  27  30
HETATM   30  N5  UNL     1       4.752   1.067  14.700  1.00  0.00    -0.385 N 
ATOM     31  H52 UNL     1       4.051   0.633  15.301  1.00  0.00     0.157 HD
ATOM     32  H51 UNL     1       4.653   2.033  14.389  1.00  0.00     0.157 HD
ENDBRANCH  27  30
ENDBRANCH  21  22
ENDBRANCH  20  21
BRANCH   1  33
HETATM   33  C4  UNL     1       8.424  -4.722  14.358  1.00  0.00     0.025 C 
BRANCH  33  34
HETATM   34  C3  UNL     1       9.801  -5.416  14.450  1.00  0.00     0.002 C 
BRANCH  34  35
HETATM   35  C2  UNL     1      10.832  -4.652  13.676  1.00  0.00    -0.004 C 
HETATM   36  C1  UNL     1      10.861  -3.243  14.214  1.00  0.00     0.005 C 
ENDBRANCH  34  35
ENDBRANCH  33  34
ENDBRANCH   1  33
BRANCH  18  37
HETATM   37  N4  UNL     1       5.263  -3.113  14.536  1.00  0.00    -0.348 N 
HETATM   38  C21 UNL     1       4.418  -2.521  13.560  1.00  0.00     0.214 C 
HETATM   39  C22 UNL     1       4.454  -2.888  12.128  1.00  0.00     0.117 C 
HETATM   40  O4  UNL     1       3.589  -1.634  13.911  1.00  0.00    -0.274 OA
ATOM     41  H4  UNL     1       5.929  -3.826  14.238  1.00  0.00     0.163 HD
ENDBRANCH  18  37
BRANCH   6  42
HETATM   42  C8  UNL     1       7.101  -8.402  17.206  1.00  0.00     0.038 C 
BRANCH  42  43
HETATM   43  C9  UNL     1       7.997  -9.334  17.932  1.00  0.00    -0.020 C 
HETATM   44  C10 UNL     1       7.136 -10.350  18.740  1.00  0.00     0.009 C 
HETATM   45  C11 UNL     1       8.885 -10.199  17.073  1.00  0.00     0.009 C 
ENDBRANCH  42  43
ENDBRANCH   6  42
BRANCH  13  46
HETATM   46  C16 UNL     1       2.952  -6.712  15.090  1.00  0.00     0.023 C 
HETATM   47  C17 UNL     1       1.721  -6.302  14.349  1.00  0.00     0.016 C 
HETATM   48  C18 UNL     1       2.883  -8.156  15.420  1.00  0.00     0.016 C 
ENDBRANCH  13  46
TORSDOF 10
ENDMDL
MODEL 4
REMARK VINA RESULT: -6.471791279      2.483      7.196
REMARK  10 active torsions:
REMARK  status: ('A' for Active; 'I' for Inactive)
REMARK    1  A    between atoms: C2_2  and  C3_3 
REMARK    2  A    between atoms: C3_3  and  C4_4 
REMARK    3  A    between atoms: C4_4  and  C5_5 
REMARK    4  A    between atoms: C7_10  and  C8_11 
REMARK    5  A    between atoms: C8_11  and  C9_12 
REMARK    6  A    between atoms: C15_21  and  C16_22 
REMARK    7  A    between atoms: C20_29  and  N4_30 
REMARK       I    between atoms: N4_30  and  C21_32 
REMARK    8  A    between atoms: C24_36  and  C25_37 
REMARK    9  A    between atoms: C25_37  and  C26_38 
REMARK   10  A    between atoms: C31_43  and  N5_44 
ROOT
HETATM    1  C5  UNL     1       5.080  -5.005  16.286  1.00  0.00     0.089 C 
HETATM    2  N1  UNL     1       6.448  -4.725  16.741  1.00  0.00    -0.354 N 
ATOM      3  H1  UNL     1       6.876  -3.850  16.438  1.00  0.00     0.162 HD
HETATM    4  C6  UNL     1       7.219  -5.581  17.571  1.00  0.00     0.240 C 
HETATM    5  O1  UNL     1       7.766  -5.113  18.636  1.00  0.00    -0.271 OA
HETATM    6  C7  UNL     1       7.478  -7.015  17.345  1.00  0.00     0.177 C 
HETATM    7  N2  UNL     1       7.606  -7.705  18.626  1.00  0.00    -0.348 N 
ATOM      8  H2  UNL     1       8.076  -7.201  19.376  1.00  0.00     0.163 HD
HETATM    9  C12 UNL     1       7.143  -8.994  18.922  1.00  0.00     0.218 C 
HETATM   10  O2  UNL     1       8.025  -9.830  19.333  1.00  0.00    -0.274 OA
HETATM   11  C13 UNL     1       5.765  -9.511  18.823  1.00  0.00     0.108 C 
HETATM   12  C14 UNL     1       5.491 -10.382  17.656  1.00  0.00     0.062 C 
HETATM   13  C15 UNL     1       4.541  -9.864  16.640  1.00  0.00    -0.007 C 
HETATM   14  N3  UNL     1       3.615  -9.102  16.833  1.00  0.00    -0.332 N 
ATOM     15  H3  UNL     1       3.228  -9.005  15.894  1.00  0.00     0.168 HD
HETATM   16  C19 UNL     1       2.800  -8.314  17.544  1.00  0.00     0.244 C 
HETATM   17  O3  UNL     1       2.153  -8.681  18.567  1.00  0.00    -0.271 OA
HETATM   18  C20 UNL     1       2.548  -6.842  17.191  1.00  0.00     0.177 C 
HETATM   19  C23 UNL     1       3.540  -6.040  17.871  1.00  0.00     0.042 C 
HETATM   20  C24 UNL     1       4.029  -4.737  17.267  1.00  0.00     0.016 C 
ENDROOT
BRANCH  20  21
HETATM   21  C25 UNL     1       3.018  -3.694  17.172  1.00  0.00     0.064 C 
BRANCH  21  22
HETATM   22  C26 UNL     1       3.280  -2.507  16.347  1.00  0.00     0.011 A 
HETATM   23  C27 UNL     1       2.494  -2.289  15.201  1.00  0.00     0.032 A 
HETATM   24  C28 UNL     1       2.690  -1.241  14.346  1.00  0.00    -0.057 A 
HETATM   25  C29 UNL     1       1.828  -1.048  13.136  1.00  0.00     0.048 C 
HETATM   26  C30 UNL     1       3.699  -0.339  14.591  1.00  0.00     0.054 A 
HETATM   27  C31 UNL     1       4.470  -0.549  15.709  1.00  0.00     0.099 A 
HETATM   28  N6  UNL     1       4.239  -1.605  16.532  1.00  0.00    -0.346 N 
ATOM     29  H6  UNL     1       4.842  -1.713  17.347  1.00  0.00     0.167 HD
BRANCH  27  30
HETATM   30  N5  UNL     1       5.419   0.278  15.963  1.00  0.00    -0.385 N 
ATOM     31  H52 UNL     1       6.130   0.481  15.259  1.00  0.00     0.157 HD
ATOM     32  H51 UNL     1       5.444   0.723  16.880  1.00  0.00     0.157 HD
ENDBRANCH  27  30
ENDBRANCH  21  22
ENDBRANCH  20  21
BRANCH   1  33
HETATM   33  C4  UNL     1       4.963  -4.522  14.890  1.00  0.00     0.025 C 
BRANCH  33  34
HETATM   34  C3  UNL     1       6.264  -3.751  14.570  1.00  0.00     0.002 C 
BRANCH  34  35
HETATM   35  C2  UNL     1       6.105  -2.937  13.323  1.00  0.00    -0.004 C 
HETATM   36  C1  UNL     1       7.082  -1.790  13.395  1.00  0.00     0.005 C 
ENDBRANCH  34  35
ENDBRANCH  33  34
ENDBRANCH   1  33
BRANCH  18  37
HETATM   37  N4  UNL     1       2.420  -6.833  15.785  1.00  0.00    -0.348 N 
HETATM   38  C21 UNL     1       1.478  -6.016  15.104  1.00  0.00     0.214 C 
HETATM   39  C22 UNL     1       1.336  -5.998  13.633  1.00  0.00     0.117 C 
HETATM   40  O4  UNL     1       0.717  -5.259  15.771  1.00  0.00    -0.274 OA
ATOM     41  H4  UNL     1       3.029  -7.439  15.235  1.00  0.00     0.163 HD
ENDBRANCH  18  37
BRANCH   6  42
HETATM   42  C8  UNL     1       8.568  -7.365  16.411  1.00  0.00     0.038 C 
BRANCH  42  43
HETATM   43  C9  UNL     1       9.402  -6.285  15.830  1.00  0.00    -0.020 C 
HETATM   44  C10 UNL     1      10.854  -6.403  16.383  1.00  0.00     0.009 C 
HETATM   45  C11 UNL     1       9.571  -6.316  14.332  1.00  0.00     0.009 C 
ENDBRANCH  42  43
ENDBRANCH   6  42
BRANCH  13  46
HETATM   46  C16 UNL     1       4.815 -10.378  15.237  1.00  0.00     0.023 C 
HETATM   47  C17 UNL     1       3.667 -10.140  14.311  1.00  0.00     0.016 C 
HETATM   48  C18 UNL     1       5.225 -11.802  15.174  1.00  0.00     0.016 C 
ENDBRANCH  13  46
TORSDOF 10
ENDMDL
MODEL 5
REMARK VINA RESULT: -6.326263968      1.194      1.431
REMARK  10 active torsions:
REMARK  status: ('A' for Active; 'I' for Inactive)
REMARK    1  A    between atoms: C2_2  and  C3_3 
REMARK    2  A    between atoms: C3_3  and  C4_4 
REMARK    3  A    between atoms: C4_4  and  C5_5 
REMARK    4  A    between atoms: C7_10  and  C8_11 
REMARK    5  A    between atoms: C8_11  and  C9_12 
REMARK    6  A    between atoms: C15_21  and  C16_22 
REMARK    7  A    between atoms: C20_29  and  N4_30 
REMARK       I    between atoms: N4_30  and  C21_32 
REMARK    8  A    between atoms: C24_36  and  C25_37 
REMARK    9  A    between atoms: C25_37  and  C26_38 
REMARK   10  A    between atoms: C31_43  and  N5_44 
ROOT
HETATM    1  C5  UNL     1       5.038  -6.620  16.976  1.00  0.00     0.089 C 
HETATM    2  N1  UNL     1       3.977  -5.650  16.678  1.00  0.00    -0.354 N 
ATOM      3  H1  UNL     1       3.023  -6.002  16.601  1.00  0.00     0.162 HD
HETATM    4  C6  UNL     1       4.180  -4.258  16.489  1.00  0.00     0.240 C 
HETATM    5  O1  UNL     1       3.478  -3.414  17.158  1.00  0.00    -0.271 OA
HETATM    6  C7  UNL     1       5.151  -3.633  15.571  1.00  0.00     0.177 C 
HETATM    7  N2  UNL     1       5.620  -2.367  16.129  1.00  0.00    -0.348 N 
ATOM      8  H2  UNL     1       4.935  -1.802  16.629  1.00  0.00     0.163 HD
HETATM    9  C12 UNL     1       6.921  -1.856  16.043  1.00  0.00     0.218 C 
HETATM   10  O2  UNL     1       7.039  -0.699  15.500  1.00  0.00    -0.274 OA
HETATM   11  C13 UNL     1       8.176  -2.481  16.503  1.00  0.00     0.108 C 
HETATM   12  C14 UNL     1       9.029  -3.061  15.438  1.00  0.00     0.062 C 
HETATM   13  C15 UNL     1       9.202  -4.535  15.446  1.00  0.00    -0.007 C 
HETATM   14  N3  UNL     1       9.171  -5.265  16.417  1.00  0.00    -0.332 N 
ATOM     15  H3  UNL     1       9.330  -6.179  15.993  1.00  0.00     0.168 HD
HETATM   16  C19 UNL     1       9.053  -5.584  17.711  1.00  0.00     0.244 C 
HETATM   17  O3  UNL     1       9.743  -5.081  18.644  1.00  0.00    -0.271 OA
HETATM   18  C20 UNL     1       8.047  -6.622  18.224  1.00  0.00     0.177 C 
HETATM   19  C23 UNL     1       6.806  -5.941  18.516  1.00  0.00     0.042 C 
HETATM   20  C24 UNL     1       5.476  -6.657  18.371  1.00  0.00     0.016 C 
ENDROOT
BRANCH  20  21
HETATM   21  C25 UNL     1       5.275  -7.758  19.301  1.00  0.00     0.064 C 
BRANCH  21  22
HETATM   22  C26 UNL     1       4.301  -8.809  18.976  1.00  0.00     0.011 A 
HETATM   23  C27 UNL     1       4.772 -10.086  18.622  1.00  0.00     0.032 A 
HETATM   24  C28 UNL     1       3.947 -11.115  18.259  1.00  0.00    -0.057 A 
HETATM   25  C29 UNL     1       4.493 -12.460  17.889  1.00  0.00     0.048 C 
HETATM   26  C30 UNL     1       2.587 -10.921  18.229  1.00  0.00     0.054 A 
HETATM   27  C31 UNL     1       2.123  -9.674  18.574  1.00  0.00     0.099 A 
HETATM   28  N6  UNL     1       2.979  -8.680  18.928  1.00  0.00    -0.346 N 
ATOM     29  H6  UNL     1       2.580  -7.775  19.174  1.00  0.00     0.167 HD
BRANCH  27  30
HETATM   30  N5  UNL     1       0.855  -9.465  18.554  1.00  0.00    -0.385 N 
ATOM     31  H52 UNL     1       0.485  -8.558  18.268  1.00  0.00     0.157 HD
ATOM     32  H51 UNL     1       0.233 -10.224  18.830  1.00  0.00     0.157 HD
ENDBRANCH  27  30
ENDBRANCH  21  22
ENDBRANCH  20  21
BRANCH   1  33
HETATM   33  C4  UNL     1       4.725  -7.869  16.241  1.00  0.00     0.025 C 
BRANCH  33  34
HETATM   34  C3  UNL     1       3.421  -7.612  15.455  1.00  0.00     0.002 C 
BRANCH  34  35
HETATM   35  C2  UNL     1       3.201  -8.681  14.429  1.00  0.00    -0.004 C 
HETATM   36  C1  UNL     1       3.920  -9.923  14.896  1.00  0.00     0.005 C 
ENDBRANCH  34  35
ENDBRANCH  33  34
ENDBRANCH   1  33
BRANCH  18  37
HETATM   37  N4  UNL     1       8.115  -7.674  17.284  1.00  0.00    -0.348 N 
HETATM   38  C21 UNL     1       8.319  -9.028  17.661  1.00  0.00     0.214 C 
HETATM   39  C22 UNL     1       8.392 -10.137  16.686  1.00  0.00     0.117 C 
HETATM   40  O4  UNL     1       8.446  -9.321  18.884  1.00  0.00    -0.274 OA
ATOM     41  H4  UNL     1       8.012  -7.453  16.294  1.00  0.00     0.163 HD
ENDBRANCH  18  37
BRANCH   6  42
HETATM   42  C8  UNL     1       4.754  -3.505  14.154  1.00  0.00     0.038 C 
BRANCH  42  43
HETATM   43  C9  UNL     1       4.245  -2.204  13.656  1.00  0.00    -0.020 C 
HETATM   44  C10 UNL     1       4.410  -2.145  12.108  1.00  0.00     0.009 C 
HETATM   45  C11 UNL     1       2.777  -1.939  13.884  1.00  0.00     0.009 C 
ENDBRANCH  42  43
ENDBRANCH   6  42
BRANCH  13  46
HETATM   46  C16 UNL     1       9.435  -5.125  14.065  1.00  0.00     0.023 C 
HETATM   47  C17 UNL     1       9.286  -6.612  14.052  1.00  0.00     0.016 C 
HETATM   48  C18 UNL     1      10.726  -4.743  13.445  1.00  0.00     0.016 C 
ENDBRANCH  13  46
TORSDOF 10
ENDMDL
