MODEL 1
REMARK VINA RESULT: -6.170147832      0.000      0.000
REMARK  1 active torsions:
REMARK  status: ('A' for Active; 'I' for Inactive)
REMARK    1  A    between atoms: N1_1  and  C1_4 
ROOT
HETATM    1  C1  UNL     1      -0.874   9.983  10.510  1.00  0.00     0.693 A 
HETATM    2  N2  UNL     1      -1.315   9.194   9.511  1.00  0.00    -0.129 N 
ATOM      3  H2  UNL     1      -1.750   8.304   9.755  1.00  0.00     0.205 HD
HETATM    4  N3  UNL     1      -1.214   9.510   8.233  1.00  0.00    -0.247 N 
ATOM      5  H3  UNL     1      -1.558   8.888   7.502  1.00  0.00     0.191 HD
HETATM    6  C2  UNL     1      -0.637  10.688   7.938  1.00  0.00     0.329 A 
HETATM    7  O1  UNL     1      -0.538  10.994   6.702  1.00  0.00    -0.261 OA
HETATM    8  C3  UNL     1      -0.184  11.503   8.936  1.00  0.00     0.329 A 
HETATM    9  O2  UNL     1       0.360  12.614   8.623  1.00  0.00    -0.261 OA
HETATM   10  N4  UNL     1      -0.294  11.167  10.237  1.00  0.00    -0.150 N 
ATOM     11  H4  UNL     1       0.046  11.779  10.978  1.00  0.00     0.188 HD
ENDROOT
BRANCH   1  12
HETATM   12  N1  UNL     1      -0.977   9.667  11.757  1.00  0.00    -0.233 N 
ATOM     13  H12 UNL     1      -1.898   9.365  12.075  1.00  0.00     0.174 HD
ATOM     14  H11 UNL     1      -0.194   9.709  12.409  1.00  0.00     0.174 HD
ENDBRANCH   1  12
TORSDOF 1
ENDMDL
MODEL 2
REMARK VINA RESULT: -6.085536752      0.772      2.146
REMARK  1 active torsions:
REMARK  status: ('A' for Active; 'I' for Inactive)
REMARK    1  A    between atoms: N1_1  and  C1_4 
ROOT
HETATM    1  C1  UNL     1      -1.478   9.892  10.064  1.00  0.00     0.693 A 
HETATM    2  N2  UNL     1      -0.769  10.813  10.746  1.00  0.00    -0.129 N 
ATOM      3  H2  UNL     1      -0.817  10.802  11.764  1.00  0.00     0.205 HD
HETATM    4  N3  UNL     1      -0.014  11.728  10.165  1.00  0.00    -0.247 N 
ATOM      5  H3  UNL     1       0.510  12.411  10.712  1.00  0.00     0.191 HD
HETATM    6  C2  UNL     1       0.033  11.719   8.821  1.00  0.00     0.329 A 
HETATM    7  O1  UNL     1       0.762  12.604   8.259  1.00  0.00    -0.261 OA
HETATM    8  C3  UNL     1      -0.678  10.794   8.112  1.00  0.00     0.329 A 
HETATM    9  O2  UNL     1      -0.613  10.812   6.838  1.00  0.00    -0.261 OA
HETATM   10  N4  UNL     1      -1.444   9.865   8.719  1.00  0.00    -0.150 N 
ATOM     11  H4  UNL     1      -1.973   9.176   8.185  1.00  0.00     0.188 HD
ENDROOT
BRANCH   1  12
HETATM   12  N1  UNL     1      -2.213   9.000  10.639  1.00  0.00    -0.233 N 
ATOM     13  H12 UNL     1      -2.469   9.179  11.610  1.00  0.00     0.174 HD
ATOM     14  H11 UNL     1      -2.533   8.154  10.169  1.00  0.00     0.174 HD
ENDBRANCH   1  12
TORSDOF 1
ENDMDL
MODEL 3
REMARK VINA RESULT: -5.670576985      1.309      1.958
REMARK  1 active torsions:
REMARK  status: ('A' for Active; 'I' for Inactive)
REMARK    1  A    between atoms: N1_1  and  C1_4 
ROOT
HETATM    1  C1  UNL     1      -0.874   9.871  10.619  1.00  0.00     0.693 A 
HETATM    2  N2  UNL     1       0.300  10.209  10.051  1.00  0.00    -0.129 N 
ATOM      3  H2  UNL     1       1.139  10.190  10.629  1.00  0.00     0.205 HD
HETATM    4  N3  UNL     1       0.421  10.565   8.785  1.00  0.00    -0.247 N 
ATOM      5  H3  UNL     1       1.326  10.816   8.386  1.00  0.00     0.191 HD
HETATM    6  C2  UNL     1      -0.702  10.582   8.045  1.00  0.00     0.329 A 
HETATM    7  O1  UNL     1      -0.585  10.926   6.820  1.00  0.00    -0.261 OA
HETATM    8  C3  UNL     1      -1.901  10.242   8.602  1.00  0.00     0.329 A 
HETATM    9  O2  UNL     1      -2.948  10.269   7.873  1.00  0.00    -0.261 OA
HETATM   10  N4  UNL     1      -2.009   9.881   9.896  1.00  0.00    -0.150 N 
ATOM     11  H4  UNL     1      -2.907   9.628  10.307  1.00  0.00     0.188 HD
ENDROOT
BRANCH   1  12
HETATM   12  N1  UNL     1      -0.984   9.524  11.858  1.00  0.00    -0.233 N 
ATOM     13  H12 UNL     1      -0.882   8.530  12.063  1.00  0.00     0.174 HD
ATOM     14  H11 UNL     1      -1.162  10.190  12.610  1.00  0.00     0.174 HD
ENDBRANCH   1  12
TORSDOF 1
ENDMDL
MODEL 4
REMARK VINA RESULT: -5.593659604      1.873      2.733
REMARK  1 active torsions:
REMARK  status: ('A' for Active; 'I' for Inactive)
REMARK    1  A    between atoms: N1_1  and  C1_4 
ROOT
HETATM    1  C1  UNL     1      -2.367  10.308   8.774  1.00  0.00     0.693 A 
HETATM    2  N2  UNL     1      -2.040  11.614   8.839  1.00  0.00    -0.129 N 
ATOM      3  H2  UNL     1      -2.793  12.296   8.932  1.00  0.00     0.205 HD
HETATM    4  N3  UNL     1      -0.797  12.057   8.790  1.00  0.00    -0.247 N 
ATOM      5  H3  UNL     1      -0.585  13.054   8.842  1.00  0.00     0.191 HD
HETATM    6  C2  UNL     1       0.176  11.137   8.669  1.00  0.00     0.329 A 
HETATM    7  O1  UNL     1       1.378  11.566   8.621  1.00  0.00    -0.261 OA
HETATM    8  C3  UNL     1      -0.134   9.810   8.601  1.00  0.00     0.329 A 
HETATM    9  O2  UNL     1       0.812   8.962   8.485  1.00  0.00    -0.261 OA
HETATM   10  N4  UNL     1      -1.408   9.372   8.653  1.00  0.00    -0.150 N 
ATOM     11  H4  UNL     1      -1.634   8.379   8.602  1.00  0.00     0.188 HD
ENDROOT
BRANCH   1  12
HETATM   12  N1  UNL     1      -3.585   9.882   8.823  1.00  0.00    -0.233 N 
ATOM     13  H12 UNL     1      -3.790   9.031   8.302  1.00  0.00     0.174 HD
ATOM     14  H11 UNL     1      -4.319  10.355   9.349  1.00  0.00     0.174 HD
ENDBRANCH   1  12
TORSDOF 1
ENDMDL
MODEL 5
REMARK VINA RESULT: -5.402211827      2.579      3.084
REMARK  1 active torsions:
REMARK  status: ('A' for Active; 'I' for Inactive)
REMARK    1  A    between atoms: N1_1  and  C1_4 
ROOT
HETATM    1  C1  UNL     1      -0.308  11.523   9.732  1.00  0.00     0.693 A 
HETATM    2  N2  UNL     1      -1.277  11.754   8.824  1.00  0.00    -0.129 N 
ATOM      3  H2  UNL     1      -1.195  12.578   8.230  1.00  0.00     0.205 HD
HETATM    4  N3  UNL     1      -2.327  10.969   8.663  1.00  0.00    -0.247 N 
ATOM      5  H3  UNL     1      -3.042  11.174   7.966  1.00  0.00     0.191 HD
HETATM    6  C2  UNL     1      -2.410   9.889   9.459  1.00  0.00     0.329 A 
HETATM    7  O1  UNL     1      -3.425   9.130   9.304  1.00  0.00    -0.261 OA
HETATM    8  C3  UNL     1      -1.439   9.637  10.385  1.00  0.00     0.329 A 
HETATM    9  O2  UNL     1      -1.548   8.604  11.126  1.00  0.00    -0.261 OA
HETATM   10  N4  UNL     1      -0.373  10.448  10.538  1.00  0.00    -0.150 N 
ATOM     11  H4  UNL     1       0.350  10.255  11.231  1.00  0.00     0.188 HD
ENDROOT
BRANCH   1  12
HETATM   12  N1  UNL     1       0.716  12.296   9.884  1.00  0.00    -0.233 N 
ATOM     13  H12 UNL     1       0.531  13.227  10.256  1.00  0.00     0.174 HD
ATOM     14  H11 UNL     1       1.667  12.011   9.651  1.00  0.00     0.174 HD
ENDBRANCH   1  12
TORSDOF 1
ENDMDL
