MODEL 1
REMARK VINA RESULT: -6.556114217      0.000      0.000
REMARK  0 active torsions:
REMARK  status: ('A' for Active; 'I' for Inactive)
ROOT
HETATM    1  N1  UNL     1      -1.841   8.459  12.050  1.00  0.00    -0.111 NA
HETATM    2  C1  UNL     1      -1.793   8.545  10.636  1.00  0.00     0.149 C 
HETATM    3  C2  UNL     1      -1.250   9.572  10.024  1.00  0.00     0.136 A 
HETATM    4  N2  UNL     1      -0.696  10.622  10.802  1.00  0.00    -0.282 N 
ATOM      5  H2  UNL     1      -0.728  10.565  11.820  1.00  0.00     0.188 HD
HETATM    6  N3  UNL     1      -0.104  11.741  10.187  1.00  0.00    -0.260 N 
ATOM      7  H3  UNL     1       0.289  12.486  10.761  1.00  0.00     0.190 HD
HETATM    8  C3  UNL     1      -0.050  11.838   8.770  1.00  0.00     0.328 A 
HETATM    9  O1  UNL     1       0.475  12.831   8.189  1.00  0.00    -0.261 OA
HETATM   10  C4  UNL     1      -0.601  10.792   7.945  1.00  0.00     0.316 A 
HETATM   11  O2  UNL     1      -0.597  10.798   6.695  1.00  0.00    -0.262 OA
HETATM   12  N4  UNL     1      -1.199   9.661   8.610  1.00  0.00    -0.303 N 
ATOM     13  H4  UNL     1      -1.596   8.907   8.050  1.00  0.00     0.171 HD
ENDROOT
TORSDOF 0
ENDMDL
MODEL 2
REMARK VINA RESULT: -6.225475864      0.784      2.089
REMARK  0 active torsions:
REMARK  status: ('A' for Active; 'I' for Inactive)
ROOT
HETATM    1  N1  UNL     1      -1.876   8.106  12.151  1.00  0.00    -0.111 NA
HETATM    2  C1  UNL     1      -1.205   9.325  11.879  1.00  0.00     0.149 C 
HETATM    3  C2  UNL     1      -1.023   9.756  10.652  1.00  0.00     0.136 A 
HETATM    4  N2  UNL     1      -1.512   8.978   9.571  1.00  0.00    -0.282 N 
ATOM      5  H2  UNL     1      -1.995   8.100   9.761  1.00  0.00     0.188 HD
HETATM    6  N3  UNL     1      -1.338   9.402   8.240  1.00  0.00    -0.260 N 
ATOM      7  H3  UNL     1      -1.695   8.830   7.475  1.00  0.00     0.190 HD
HETATM    8  C3  UNL     1      -0.667  10.622   7.957  1.00  0.00     0.328 A 
HETATM    9  O1  UNL     1      -0.495  11.028   6.771  1.00  0.00    -0.261 OA
HETATM   10  C4  UNL     1      -0.156  11.441   9.028  1.00  0.00     0.316 A 
HETATM   11  O2  UNL     1       0.445  12.525   8.867  1.00  0.00    -0.262 OA
HETATM   12  N4  UNL     1      -0.353  10.975  10.377  1.00  0.00    -0.303 N 
ATOM     13  H4  UNL     1      -0.002  11.535  11.154  1.00  0.00     0.171 HD
ENDROOT
TORSDOF 0
ENDMDL
MODEL 3
REMARK VINA RESULT: -5.863403780      2.674      3.941
REMARK  0 active torsions:
REMARK  status: ('A' for Active; 'I' for Inactive)
ROOT
HETATM    1  N1  UNL     1       0.193  12.702   8.491  1.00  0.00    -0.111 NA
HETATM    2  C1  UNL     1       0.031  11.325   8.195  1.00  0.00     0.149 C 
HETATM    3  C2  UNL     1      -0.341  10.460   9.110  1.00  0.00     0.136 A 
HETATM    4  N2  UNL     1      -0.586  10.918  10.431  1.00  0.00    -0.282 N 
ATOM      5  H2  UNL     1      -0.470  11.908  10.649  1.00  0.00     0.188 HD
HETATM    6  N3  UNL     1      -0.986  10.025  11.442  1.00  0.00    -0.260 N 
ATOM      7  H3  UNL     1      -1.157  10.372  12.386  1.00  0.00     0.190 HD
HETATM    8  C3  UNL     1      -1.152   8.643  11.156  1.00  0.00     0.328 A 
HETATM    9  O1  UNL     1      -1.509   7.817  12.045  1.00  0.00    -0.261 OA
HETATM   10  C4  UNL     1      -0.913   8.139   9.827  1.00  0.00     0.316 A 
HETATM   11  O2  UNL     1      -1.035   6.941   9.491  1.00  0.00    -0.262 OA
HETATM   12  N4  UNL     1      -0.505   9.083   8.817  1.00  0.00    -0.303 N 
ATOM     13  H4  UNL     1      -0.330   8.752   7.869  1.00  0.00     0.171 HD
ENDROOT
TORSDOF 0
ENDMDL
MODEL 4
REMARK VINA RESULT: -5.825449404      1.556      1.867
REMARK  0 active torsions:
REMARK  status: ('A' for Active; 'I' for Inactive)
ROOT
HETATM    1  N1  UNL     1      -0.360   8.403  12.801  1.00  0.00    -0.111 NA
HETATM    2  C1  UNL     1      -1.439   8.677  11.922  1.00  0.00     0.149 C 
HETATM    3  C2  UNL     1      -1.247   9.201  10.734  1.00  0.00     0.136 A 
HETATM    4  N2  UNL     1       0.078   9.501  10.320  1.00  0.00    -0.282 N 
ATOM      5  H2  UNL     1       0.857   9.306  10.949  1.00  0.00     0.188 HD
HETATM    6  N3  UNL     1       0.328  10.064   9.055  1.00  0.00    -0.260 N 
ATOM      7  H3  UNL     1       1.286  10.273   8.774  1.00  0.00     0.190 HD
HETATM    8  C3  UNL     1      -0.745  10.342   8.167  1.00  0.00     0.328 A 
HETATM    9  O1  UNL     1      -0.550  10.849   7.024  1.00  0.00    -0.261 OA
HETATM   10  C4  UNL     1      -2.104  10.052   8.550  1.00  0.00     0.316 A 
HETATM   11  O2  UNL     1      -3.104  10.265   7.831  1.00  0.00    -0.262 OA
HETATM   12  N4  UNL     1      -2.322   9.476   9.853  1.00  0.00    -0.303 N 
ATOM     13  H4  UNL     1      -3.275   9.260  10.148  1.00  0.00     0.171 HD
ENDROOT
TORSDOF 0
ENDMDL
MODEL 5
REMARK VINA RESULT: -5.557901055      2.610      3.900
REMARK  0 active torsions:
REMARK  status: ('A' for Active; 'I' for Inactive)
ROOT
HETATM    1  N1  UNL     1       1.341  11.996   8.020  1.00  0.00    -0.111 NA
HETATM    2  C1  UNL     1       0.006  11.534   7.892  1.00  0.00     0.149 C 
HETATM    3  C2  UNL     1      -0.553  10.775   8.806  1.00  0.00     0.136 A 
HETATM    4  N2  UNL     1       0.201  10.408   9.951  1.00  0.00    -0.282 N 
ATOM      5  H2  UNL     1       1.161  10.737  10.048  1.00  0.00     0.188 HD
HETATM    6  N3  UNL     1      -0.361   9.596  10.954  1.00  0.00    -0.260 N 
ATOM      7  H3  UNL     1       0.195   9.342  11.770  1.00  0.00     0.190 HD
HETATM    8  C3  UNL     1      -1.697   9.128  10.836  1.00  0.00     0.328 A 
HETATM    9  O1  UNL     1      -2.228   8.396  11.721  1.00  0.00    -0.261 OA
HETATM   10  C4  UNL     1      -2.495   9.479   9.689  1.00  0.00     0.316 A 
HETATM   11  O2  UNL     1      -3.676   9.111   9.506  1.00  0.00    -0.262 OA
HETATM   12  N4  UNL     1      -1.888  10.313   8.682  1.00  0.00    -0.303 N 
ATOM     13  H4  UNL     1      -2.431  10.576   7.860  1.00  0.00     0.171 HD
ENDROOT
TORSDOF 0
ENDMDL
