MODEL 1
REMARK VINA RESULT: -4.773187544      0.000      0.000
REMARK  3 active torsions:
REMARK  status: ('A' for Active; 'I' for Inactive)
REMARK    1  A    between atoms: N1_1  and  S1_4 
REMARK    2  A    between atoms: S1_4  and  N2_5 
REMARK    3  A    between atoms: S1_4  and  N3_9 
ROOT
HETATM    1  S1  UNL     1      -1.782   9.406   9.252  1.00  0.00     0.192 S 
HETATM    2  O1  UNL     1      -2.486   9.147  10.555  1.00  0.00    -0.206 OA
ENDROOT
BRANCH   1   3
HETATM    3  N1  UNL     1      -2.916   9.470   8.159  1.00  0.00    -0.329 N 
ATOM      4  H12 UNL     1      -2.985  10.200   7.450  1.00  0.00     0.168 HD
ATOM      5  H11 UNL     1      -3.557   8.684   8.269  1.00  0.00     0.168 HD
ENDBRANCH   1   3
BRANCH   1   6
HETATM    6  N2  UNL     1      -0.674   8.145   8.884  1.00  0.00    -0.329 N 
ATOM      7  H22 UNL     1      -0.289   7.976   7.955  1.00  0.00     0.168 HD
ATOM      8  H21 UNL     1      -0.466   7.603   9.723  1.00  0.00     0.168 HD
ENDBRANCH   1   6
BRANCH   1   9
HETATM    9  N3  UNL     1      -1.042  10.949   9.271  1.00  0.00    -0.261 N 
HETATM   10  C1  UNL     1      -0.478  11.526   8.292  1.00  0.00     0.210 C 
HETATM   11  N4  UNL     1       0.078  12.812   8.512  1.00  0.00    -0.066 NA
HETATM   12  N5  UNL     1      -0.365  10.970   6.989  1.00  0.00    -0.066 NA
ATOM     13  H3  UNL     1      -1.058  11.455  10.156  1.00  0.00     0.181 HD
ENDBRANCH   1   9
TORSDOF 3
ENDMDL
MODEL 2
REMARK VINA RESULT: -4.661263281      2.582      3.795
REMARK  3 active torsions:
REMARK  status: ('A' for Active; 'I' for Inactive)
REMARK    1  A    between atoms: N1_1  and  S1_4 
REMARK    2  A    between atoms: S1_4  and  N2_5 
REMARK    3  A    between atoms: S1_4  and  N3_9 
ROOT
HETATM    1  S1  UNL     1      -0.507  10.794   8.504  1.00  0.00     0.192 S 
HETATM    2  O1  UNL     1      -0.340  11.134   7.048  1.00  0.00    -0.206 OA
ENDROOT
BRANCH   1   3
HETATM    3  N1  UNL     1      -1.901  11.396   8.926  1.00  0.00    -0.329 N 
ATOM      4  H12 UNL     1      -2.302  11.309   9.860  1.00  0.00     0.168 HD
ATOM      5  H11 UNL     1      -2.331  11.876   8.136  1.00  0.00     0.168 HD
ENDBRANCH   1   3
BRANCH   1   6
HETATM    6  N2  UNL     1       0.749  11.484   9.450  1.00  0.00    -0.329 N 
ATOM      7  H22 UNL     1       0.656  12.353   9.977  1.00  0.00     0.168 HD
ATOM      8  H21 UNL     1       1.586  10.902   9.405  1.00  0.00     0.168 HD
ENDBRANCH   1   6
BRANCH   1   9
HETATM    9  N3  UNL     1      -0.633   9.099   8.709  1.00  0.00    -0.261 N 
HETATM   10  C1  UNL     1      -0.765   8.481   9.809  1.00  0.00     0.210 C 
HETATM   11  N4  UNL     1      -0.852   7.067   9.768  1.00  0.00    -0.066 NA
HETATM   12  N5  UNL     1      -0.833   9.112  11.081  1.00  0.00    -0.066 NA
ATOM     13  H3  UNL     1      -0.597   8.530   7.864  1.00  0.00     0.181 HD
ENDBRANCH   1   9
TORSDOF 3
ENDMDL
MODEL 3
REMARK VINA RESULT: -4.621780363      2.419      3.577
REMARK  3 active torsions:
REMARK  status: ('A' for Active; 'I' for Inactive)
REMARK    1  A    between atoms: N1_1  and  S1_4 
REMARK    2  A    between atoms: S1_4  and  N2_5 
REMARK    3  A    between atoms: S1_4  and  N3_9 
ROOT
HETATM    1  S1  UNL     1      -0.579  11.324   8.538  1.00  0.00     0.192 S 
HETATM    2  O1  UNL     1      -0.520  10.880   7.103  1.00  0.00    -0.206 OA
ENDROOT
BRANCH   1   3
HETATM    3  N1  UNL     1      -2.100  11.250   8.946  1.00  0.00    -0.329 N 
ATOM      4  H12 UNL     1      -2.747  12.035   8.882  1.00  0.00     0.168 HD
ATOM      5  H11 UNL     1      -2.330  10.313   9.277  1.00  0.00     0.168 HD
ENDBRANCH   1   3
BRANCH   1   6
HETATM    6  N2  UNL     1       0.005  12.930   8.715  1.00  0.00    -0.329 N 
ATOM      7  H22 UNL     1       0.686  13.216   9.418  1.00  0.00     0.168 HD
ATOM      8  H21 UNL     1      -0.427  13.541   8.021  1.00  0.00     0.168 HD
ENDBRANCH   1   6
BRANCH   1   9
HETATM    9  N3  UNL     1       0.244  10.208   9.542  1.00  0.00    -0.261 N 
HETATM   10  C1  UNL     1      -0.158   9.052   9.870  1.00  0.00     0.210 C 
HETATM   11  N4  UNL     1       0.674   8.276  10.716  1.00  0.00    -0.066 NA
HETATM   12  N5  UNL     1      -1.388   8.479   9.446  1.00  0.00    -0.066 NA
ATOM     13  H3  UNL     1       1.147  10.504   9.913  1.00  0.00     0.181 HD
ENDBRANCH   1   9
TORSDOF 3
ENDMDL
MODEL 4
REMARK VINA RESULT: -4.620731505      2.606      3.803
REMARK  3 active torsions:
REMARK  status: ('A' for Active; 'I' for Inactive)
REMARK    1  A    between atoms: N1_1  and  S1_4 
REMARK    2  A    between atoms: S1_4  and  N2_5 
REMARK    3  A    between atoms: S1_4  and  N3_9 
ROOT
HETATM    1  S1  UNL     1      -0.311  11.111   9.489  1.00  0.00     0.192 S 
HETATM    2  O1  UNL     1       0.255  10.304   8.353  1.00  0.00    -0.206 OA
ENDROOT
BRANCH   1   3
HETATM    3  N1  UNL     1      -1.716  11.624   8.991  1.00  0.00    -0.329 N 
ATOM      4  H12 UNL     1      -2.029  11.579   8.021  1.00  0.00     0.168 HD
ATOM      5  H11 UNL     1      -2.251  12.000   9.773  1.00  0.00     0.168 HD
ENDBRANCH   1   3
BRANCH   1   6
HETATM    6  N2  UNL     1       0.706  12.443   9.871  1.00  0.00    -0.329 N 
ATOM      7  H22 UNL     1       0.385  13.290  10.340  1.00  0.00     0.168 HD
ATOM      8  H21 UNL     1       1.660  12.257   9.562  1.00  0.00     0.168 HD
ENDBRANCH   1   6
BRANCH   1   9
HETATM    9  N3  UNL     1      -0.617  10.106  10.840  1.00  0.00    -0.261 N 
HETATM   10  C1  UNL     1      -1.559   9.265  10.955  1.00  0.00     0.210 C 
HETATM   11  N4  UNL     1      -1.642   8.523  12.161  1.00  0.00    -0.066 NA
HETATM   12  N5  UNL     1      -2.537   9.014   9.955  1.00  0.00    -0.066 NA
ATOM     13  H3  UNL     1       0.022  10.191  11.631  1.00  0.00     0.181 HD
ENDBRANCH   1   9
TORSDOF 3
ENDMDL
MODEL 5
REMARK VINA RESULT: -4.618086128      2.573      3.534
REMARK  3 active torsions:
REMARK  status: ('A' for Active; 'I' for Inactive)
REMARK    1  A    between atoms: N1_1  and  S1_4 
REMARK    2  A    between atoms: S1_4  and  N2_5 
REMARK    3  A    between atoms: S1_4  and  N3_9 
ROOT
HETATM    1  S1  UNL     1       0.265  11.074   9.022  1.00  0.00     0.192 S 
HETATM    2  O1  UNL     1       1.164  11.692   7.987  1.00  0.00    -0.206 OA
ENDROOT
BRANCH   1   3
HETATM    3  N1  UNL     1       0.221  12.100  10.217  1.00  0.00    -0.329 N 
ATOM      4  H12 UNL     1       0.785  12.017  11.063  1.00  0.00     0.168 HD
ATOM      5  H11 UNL     1      -0.447  12.845  10.017  1.00  0.00     0.168 HD
ENDBRANCH   1   3
BRANCH   1   6
HETATM    6  N2  UNL     1       0.883   9.564   9.558  1.00  0.00    -0.329 N 
ATOM      7  H22 UNL     1       1.253   9.398  10.494  1.00  0.00     0.168 HD
ATOM      8  H21 UNL     1       0.824   8.873   8.810  1.00  0.00     0.168 HD
ENDBRANCH   1   6
BRANCH   1   9
HETATM    9  N3  UNL     1      -1.336  10.958   8.427  1.00  0.00    -0.261 N 
HETATM   10  C1  UNL     1      -2.285  10.295   8.944  1.00  0.00     0.210 C 
HETATM   11  N4  UNL     1      -3.546  10.326   8.296  1.00  0.00    -0.066 NA
HETATM   12  N5  UNL     1      -2.171   9.521  10.131  1.00  0.00    -0.066 NA
ATOM     13  H3  UNL     1      -1.547  11.473   7.573  1.00  0.00     0.181 HD
ENDBRANCH   1   9
TORSDOF 3
ENDMDL
