MODEL 1
REMARK VINA RESULT: -6.442313776      0.000      0.000
REMARK  2 active torsions:
REMARK  status: ('A' for Active; 'I' for Inactive)
REMARK       I    between atoms: C1_4  and  N3_6 
REMARK    1  A    between atoms: N3_6  and  C2_8 
REMARK    2  A    between atoms: C2_8  and  N4_9 
ROOT
HETATM    1  C2  UNL     1      -0.689  10.183  10.133  1.00  0.00     0.311 A 
HETATM    2  C3  UNL     1      -0.166   9.021   9.379  1.00  0.00     0.135 A 
HETATM    3  N5  UNL     1      -1.062   9.212   8.488  1.00  0.00    -0.332 N 
ATOM      4  H5  UNL     1      -1.269   8.713   7.623  1.00  0.00     0.168 HD
HETATM    5  C4  UNL     1      -1.670  10.329   9.081  1.00  0.00     0.284 A 
HETATM    6  O1  UNL     1      -2.637  11.052   8.747  1.00  0.00    -0.268 OA
ENDROOT
BRANCH   1   7
HETATM    7  N3  UNL     1       0.200  11.297  10.227  1.00  0.00    -0.320 N 
HETATM    8  C1  UNL     1       0.495  12.031   9.050  1.00  0.00     0.184 C 
HETATM    9  N1  UNL     1      -0.265  12.989   8.626  1.00  0.00    -0.374 N 
HETATM   10  N2  UNL     1       1.641  11.760   8.269  1.00  0.00    -0.064 NA
ATOM     11  H12 UNL     1      -0.053  13.518   7.780  1.00  0.00     0.158 HD
ATOM     12  H11 UNL     1      -1.093  13.185   9.190  1.00  0.00     0.158 HD
ATOM     13  H3  UNL     1       0.614  11.559  11.121  1.00  0.00     0.165 HD
ENDBRANCH   1   7
BRANCH   1  14
HETATM   14  N4  UNL     1      -1.195   9.784  11.399  1.00  0.00    -0.038 N 
ATOM     15  H43 UNL     1      -0.746  10.302  12.154  1.00  0.00     0.278 HD
ATOM     16  H42 UNL     1      -2.155  10.105  11.528  1.00  0.00     0.278 HD
ATOM     17  H41 UNL     1      -1.121   8.778  11.548  1.00  0.00     0.278 HD
ENDBRANCH   1  14
TORSDOF 2
ENDMDL
MODEL 2
REMARK VINA RESULT: -6.250006273      1.927      3.444
REMARK  2 active torsions:
REMARK  status: ('A' for Active; 'I' for Inactive)
REMARK       I    between atoms: C1_4  and  N3_6 
REMARK    1  A    between atoms: N3_6  and  C2_8 
REMARK    2  A    between atoms: C2_8  and  N4_9 
ROOT
HETATM    1  C2  UNL     1      -0.365  10.698   9.617  1.00  0.00     0.311 A 
HETATM    2  C3  UNL     1      -1.387  11.225   8.684  1.00  0.00     0.135 A 
HETATM    3  N5  UNL     1      -0.650  12.248   8.476  1.00  0.00    -0.332 N 
ATOM      4  H5  UNL     1      -0.786  13.067   7.882  1.00  0.00     0.168 HD
HETATM    5  C4  UNL     1       0.405  11.886   9.326  1.00  0.00     0.284 A 
HETATM    6  O1  UNL     1       1.491  12.436   9.622  1.00  0.00    -0.268 OA
ENDROOT
BRANCH   1   7
HETATM    7  N3  UNL     1       0.281   9.495   9.195  1.00  0.00    -0.320 N 
HETATM    8  C1  UNL     1      -0.140   8.265   9.759  1.00  0.00     0.184 C 
HETATM    9  N1  UNL     1      -1.144   7.597   9.287  1.00  0.00    -0.374 N 
HETATM   10  N2  UNL     1       0.515   7.691  10.872  1.00  0.00    -0.064 NA
ATOM     11  H12 UNL     1      -1.447   6.711   9.693  1.00  0.00     0.158 HD
ATOM     12  H11 UNL     1      -1.617   8.011   8.484  1.00  0.00     0.158 HD
ATOM     13  H3  UNL     1       1.030   9.522   8.503  1.00  0.00     0.165 HD
ENDBRANCH   1   7
BRANCH   1  14
HETATM   14  N4  UNL     1      -0.881  10.603  10.937  1.00  0.00    -0.038 N 
ATOM     15  H43 UNL     1      -0.835  11.503  11.415  1.00  0.00     0.278 HD
ATOM     16  H42 UNL     1      -1.893  10.474  10.927  1.00  0.00     0.278 HD
ATOM     17  H41 UNL     1      -0.423   9.873  11.483  1.00  0.00     0.278 HD
ENDBRANCH   1  14
TORSDOF 2
ENDMDL
MODEL 3
REMARK VINA RESULT: -5.988736908      1.824      2.361
REMARK  2 active torsions:
REMARK  status: ('A' for Active; 'I' for Inactive)
REMARK       I    between atoms: C1_4  and  N3_6 
REMARK    1  A    between atoms: N3_6  and  C2_8 
REMARK    2  A    between atoms: C2_8  and  N4_9 
ROOT
HETATM    1  C2  UNL     1      -0.468   9.654   9.826  1.00  0.00     0.311 A 
HETATM    2  C3  UNL     1      -1.924   9.737  10.084  1.00  0.00     0.135 A 
HETATM    3  N5  UNL     1      -1.790   8.894  11.035  1.00  0.00    -0.332 N 
ATOM      4  H5  UNL     1      -2.472   8.488  11.676  1.00  0.00     0.168 HD
HETATM    5  C4  UNL     1      -0.405   8.707  10.917  1.00  0.00     0.284 A 
HETATM    6  O1  UNL     1       0.418   7.999  11.542  1.00  0.00    -0.268 OA
ENDROOT
BRANCH   1   7
HETATM    7  N3  UNL     1       0.264  10.853  10.084  1.00  0.00    -0.320 N 
HETATM    8  C1  UNL     1       0.450  11.777   9.025  1.00  0.00     0.184 C 
HETATM    9  N1  UNL     1      -0.434  12.675   8.729  1.00  0.00    -0.374 N 
HETATM   10  N2  UNL     1       1.617  11.773   8.228  1.00  0.00    -0.064 NA
ATOM     11  H12 UNL     1      -0.301  13.340   7.967  1.00  0.00     0.158 HD
ATOM     12  H11 UNL     1      -1.277  12.677   9.305  1.00  0.00     0.158 HD
ATOM     13  H3  UNL     1       0.645  11.041  11.012  1.00  0.00     0.165 HD
ENDBRANCH   1   7
BRANCH   1  14
HETATM   14  N4  UNL     1      -0.208   9.127   8.533  1.00  0.00    -0.038 N 
ATOM     15  H43 UNL     1      -1.015   8.616   8.176  1.00  0.00     0.278 HD
ATOM     16  H42 UNL     1      -0.162   9.870   7.836  1.00  0.00     0.278 HD
ATOM     17  H41 UNL     1       0.632   8.549   8.510  1.00  0.00     0.278 HD
ENDBRANCH   1  14
TORSDOF 2
ENDMDL
MODEL 4
REMARK VINA RESULT: -5.924700127      2.200      2.795
REMARK  2 active torsions:
REMARK  status: ('A' for Active; 'I' for Inactive)
REMARK       I    between atoms: C1_4  and  N3_6 
REMARK    1  A    between atoms: N3_6  and  C2_8 
REMARK    2  A    between atoms: C2_8  and  N4_9 
ROOT
HETATM    1  C2  UNL     1      -0.473   9.225   9.828  1.00  0.00     0.311 A 
HETATM    2  C3  UNL     1      -1.153   9.743  11.036  1.00  0.00     0.135 A 
HETATM    3  N5  UNL     1      -0.421   8.985  11.759  1.00  0.00    -0.332 N 
ATOM      4  H5  UNL     1      -0.382   8.849  12.769  1.00  0.00     0.168 HD
HETATM    5  C4  UNL     1       0.314   8.399  10.716  1.00  0.00     0.284 A 
HETATM    6  O1  UNL     1       1.228   7.544  10.693  1.00  0.00    -0.268 OA
ENDROOT
BRANCH   1   7
HETATM    7  N3  UNL     1       0.311  10.182   9.114  1.00  0.00    -0.320 N 
HETATM    8  C1  UNL     1      -0.352  11.119   8.283  1.00  0.00     0.184 C 
HETATM    9  N1  UNL     1      -0.837  12.228   8.743  1.00  0.00    -0.374 N 
HETATM   10  N2  UNL     1      -0.524  10.899   6.898  1.00  0.00    -0.064 NA
ATOM     11  H12 UNL     1      -1.314  12.903   8.146  1.00  0.00     0.158 HD
ATOM     12  H11 UNL     1      -0.713  12.387   9.743  1.00  0.00     0.158 HD
ATOM     13  H3  UNL     1       1.327  10.190   9.200  1.00  0.00     0.165 HD
ENDBRANCH   1   7
BRANCH   1  14
HETATM   14  N4  UNL     1      -1.385   8.533   8.987  1.00  0.00    -0.038 N 
ATOM     15  H43 UNL     1      -2.325   8.537   9.382  1.00  0.00     0.278 HD
ATOM     16  H42 UNL     1      -1.564   9.058   8.130  1.00  0.00     0.278 HD
ATOM     17  H41 UNL     1      -1.078   7.583   8.778  1.00  0.00     0.278 HD
ENDBRANCH   1  14
TORSDOF 2
ENDMDL
MODEL 5
REMARK VINA RESULT: -5.890394305      1.804      2.357
REMARK  2 active torsions:
REMARK  status: ('A' for Active; 'I' for Inactive)
REMARK       I    between atoms: C1_4  and  N3_6 
REMARK    1  A    between atoms: N3_6  and  C2_8 
REMARK    2  A    between atoms: C2_8  and  N4_9 
ROOT
HETATM    1  C2  UNL     1      -0.811   9.530   9.257  1.00  0.00     0.311 A 
HETATM    2  C3  UNL     1      -1.973   9.960  10.067  1.00  0.00     0.135 A 
HETATM    3  N5  UNL     1      -2.130   8.752  10.458  1.00  0.00    -0.332 N 
ATOM      4  H5  UNL     1      -2.815   8.331  11.086  1.00  0.00     0.168 HD
HETATM    5  C4  UNL     1      -1.058   8.192   9.747  1.00  0.00     0.284 A 
HETATM    6  O1  UNL     1      -0.611   7.026   9.656  1.00  0.00    -0.268 OA
ENDROOT
BRANCH   1   7
HETATM    7  N3  UNL     1       0.450  10.054   9.676  1.00  0.00    -0.320 N 
HETATM    8  C1  UNL     1       0.760  11.403   9.370  1.00  0.00     0.184 C 
HETATM    9  N1  UNL     1       0.381  12.386  10.122  1.00  0.00    -0.374 N 
HETATM   10  N2  UNL     1       1.506  11.756   8.223  1.00  0.00    -0.064 NA
ATOM     11  H12 UNL     1       0.604  13.357   9.903  1.00  0.00     0.158 HD
ATOM     12  H11 UNL     1      -0.158  12.132  10.951  1.00  0.00     0.158 HD
ATOM     13  H3  UNL     1       1.113   9.470  10.185  1.00  0.00     0.165 HD
ENDBRANCH   1   7
BRANCH   1  14
HETATM   14  N4  UNL     1      -1.051   9.735   7.872  1.00  0.00    -0.038 N 
ATOM     15  H43 UNL     1      -1.365  10.689   7.691  1.00  0.00     0.278 HD
ATOM     16  H42 UNL     1      -0.177   9.748   7.346  1.00  0.00     0.278 HD
ATOM     17  H41 UNL     1      -1.704   9.054   7.485  1.00  0.00     0.278 HD
ENDBRANCH   1  14
TORSDOF 2
ENDMDL
