MODEL 1
REMARK VINA RESULT: -7.078534343      0.000      0.000
REMARK  3 active torsions:
REMARK  status: ('A' for Active; 'I' for Inactive)
REMARK    1  A    between atoms: C1_2  and  O2_3 
REMARK    2  A    between atoms: C1_2  and  C7_11 
REMARK    3  A    between atoms: O2_3  and  C2_4 
ROOT
HETATM    1  O1  UNL     1      -4.777  -0.455  15.311  1.00  0.00    -0.264 OA
HETATM    2  C1  UNL     1      -4.652   0.818  15.265  1.00  0.00     0.268 C 
ENDROOT
BRANCH   2   3
HETATM    3  O2  UNL     1      -3.886   1.285  14.202  1.00  0.00    -0.314 OA
BRANCH   3   4
HETATM    4  C2  UNL     1      -4.417   2.071  13.179  1.00  0.00     0.149 C 
HETATM    5  C3  UNL     1      -3.557   3.296  13.024  1.00  0.00     0.036 C 
HETATM    6  C4  UNL     1      -4.138   4.136  11.888  1.00  0.00     0.022 C 
HETATM    7  C5  UNL     1      -3.999   3.272  10.633  1.00  0.00     0.114 C 
HETATM    8  N1  UNL     1      -4.874   2.157  10.786  1.00  0.00    -0.419 N 
HETATM    9  C6  UNL     1      -4.606   1.310  11.895  1.00  0.00     0.146 C 
ATOM     10  H1  UNL     1      -5.643   1.979  10.140  1.00  0.00     0.153 HD
ENDBRANCH   3   4
ENDBRANCH   2   3
BRANCH   2  11
HETATM   11  C7  UNL     1      -5.281   1.658  16.269  1.00  0.00     0.052 C 
HETATM   12  C8  UNL     1      -5.395   0.893  17.578  1.00  0.00     0.025 C 
HETATM   13  C9  UNL     1      -6.580   1.642  18.208  1.00  0.00    -0.013 C 
HETATM   14  C10 UNL     1      -6.117   3.042  18.478  1.00  0.00     0.009 C 
HETATM   15  C14 UNL     1      -7.561   1.576  17.044  1.00  0.00     0.010 C 
HETATM   16  C11 UNL     1      -5.621   3.742  17.253  1.00  0.00    -0.013 C 
HETATM   17  C12 UNL     1      -6.683   3.641  16.159  1.00  0.00     0.010 C 
HETATM   18  C15 UNL     1      -4.504   2.916  16.597  1.00  0.00     0.025 C 
HETATM   19  C13 UNL     1      -6.666   2.123  15.924  1.00  0.00     0.004 C 
ENDBRANCH   2  11
TORSDOF 3
ENDMDL
MODEL 2
REMARK VINA RESULT: -7.074263656      1.424      2.111
REMARK  3 active torsions:
REMARK  status: ('A' for Active; 'I' for Inactive)
REMARK    1  A    between atoms: C1_2  and  O2_3 
REMARK    2  A    between atoms: C1_2  and  C7_11 
REMARK    3  A    between atoms: O2_3  and  C2_4 
ROOT
HETATM    1  O1  UNL     1      -3.585   0.597  16.323  1.00  0.00    -0.264 OA
HETATM    2  C1  UNL     1      -4.466   1.153  15.580  1.00  0.00     0.268 C 
ENDROOT
BRANCH   2   3
HETATM    3  O2  UNL     1      -4.788   0.438  14.431  1.00  0.00    -0.314 OA
BRANCH   3   4
HETATM    4  C2  UNL     1      -4.100   0.597  13.228  1.00  0.00     0.149 C 
HETATM    5  C3  UNL     1      -4.008  -0.744  12.551  1.00  0.00     0.036 C 
HETATM    6  C4  UNL     1      -3.272  -0.550  11.226  1.00  0.00     0.022 C 
HETATM    7  C5  UNL     1      -4.171   0.365  10.392  1.00  0.00     0.114 C 
HETATM    8  N1  UNL     1      -4.183   1.641  11.026  1.00  0.00    -0.419 N 
HETATM    9  C6  UNL     1      -4.694   1.667  12.352  1.00  0.00     0.146 C 
ATOM     10  H1  UNL     1      -3.846   2.482  10.558  1.00  0.00     0.153 HD
ENDBRANCH   3   4
ENDBRANCH   2   3
BRANCH   2  11
HETATM   11  C7  UNL     1      -5.047   2.429  15.956  1.00  0.00     0.052 C 
HETATM   12  C8  UNL     1      -5.273   2.467  17.459  1.00  0.00     0.025 C 
HETATM   13  C9  UNL     1      -6.403   3.506  17.521  1.00  0.00    -0.013 C 
HETATM   14  C10 UNL     1      -5.824   4.810  17.062  1.00  0.00     0.009 C 
HETATM   15  C14 UNL     1      -7.349   2.904  16.488  1.00  0.00     0.010 C 
HETATM   16  C11 UNL     1      -5.227   4.738  15.693  1.00  0.00    -0.013 C 
HETATM   17  C12 UNL     1      -6.258   4.147  14.732  1.00  0.00     0.010 C 
HETATM   18  C15 UNL     1      -4.169   3.624  15.644  1.00  0.00     0.025 C 
HETATM   19  C13 UNL     1      -6.372   2.731  15.317  1.00  0.00     0.004 C 
ENDBRANCH   2  11
TORSDOF 3
ENDMDL
MODEL 3
REMARK VINA RESULT: -6.722920614      2.146      5.523
REMARK  3 active torsions:
REMARK  status: ('A' for Active; 'I' for Inactive)
REMARK    1  A    between atoms: C1_2  and  O2_3 
REMARK    2  A    between atoms: C1_2  and  C7_11 
REMARK    3  A    between atoms: O2_3  and  C2_4 
ROOT
HETATM    1  O1  UNL     1      -4.673   0.056  14.813  1.00  0.00    -0.264 OA
HETATM    2  C1  UNL     1      -4.294   1.015  14.055  1.00  0.00     0.268 C 
ENDROOT
BRANCH   2   3
HETATM    3  O2  UNL     1      -4.120   2.232  14.706  1.00  0.00    -0.314 OA
BRANCH   3   4
HETATM    4  C2  UNL     1      -5.182   3.092  14.988  1.00  0.00     0.149 C 
HETATM    5  C3  UNL     1      -5.237   3.309  16.476  1.00  0.00     0.036 C 
HETATM    6  C4  UNL     1      -6.389   4.268  16.768  1.00  0.00     0.022 C 
HETATM    7  C5  UNL     1      -6.002   5.585  16.091  1.00  0.00     0.114 C 
HETATM    8  N1  UNL     1      -6.022   5.361  14.684  1.00  0.00    -0.419 N 
HETATM    9  C6  UNL     1      -5.119   4.375  14.203  1.00  0.00     0.146 C 
ATOM     10  H1  UNL     1      -6.645   5.876  14.062  1.00  0.00     0.153 HD
ENDBRANCH   3   4
ENDBRANCH   2   3
BRANCH   2  11
HETATM   11  C7  UNL     1      -4.079   0.793  12.636  1.00  0.00     0.052 C 
HETATM   12  C8  UNL     1      -4.162  -0.695  12.333  1.00  0.00     0.025 C 
HETATM   13  C9  UNL     1      -3.310  -0.742  11.055  1.00  0.00    -0.013 C 
HETATM   14  C10 UNL     1      -4.051   0.032  10.007  1.00  0.00     0.009 C 
HETATM   15  C14 UNL     1      -2.077   0.002  11.552  1.00  0.00     0.010 C 
HETATM   16  C11 UNL     1      -4.342   1.440  10.414  1.00  0.00    -0.013 C 
HETATM   17  C12 UNL     1      -3.044   2.104  10.870  1.00  0.00     0.010 C 
HETATM   18  C15 UNL     1      -5.112   1.450  11.744  1.00  0.00     0.025 C 
HETATM   19  C13 UNL     1      -2.750   1.260  12.119  1.00  0.00     0.004 C 
ENDBRANCH   2  11
TORSDOF 3
ENDMDL
MODEL 4
REMARK VINA RESULT: -6.567943256      2.155      3.184
REMARK  3 active torsions:
REMARK  status: ('A' for Active; 'I' for Inactive)
REMARK    1  A    between atoms: C1_2  and  O2_3 
REMARK    2  A    between atoms: C1_2  and  C7_11 
REMARK    3  A    between atoms: O2_3  and  C2_4 
ROOT
HETATM    1  O1  UNL     1      -5.605   1.534  15.794  1.00  0.00    -0.264 OA
HETATM    2  C1  UNL     1      -4.750   2.109  15.035  1.00  0.00     0.268 C 
ENDROOT
BRANCH   2   3
HETATM    3  O2  UNL     1      -3.956   1.238  14.295  1.00  0.00    -0.314 OA
BRANCH   3   4
HETATM    4  C2  UNL     1      -4.303   0.810  13.013  1.00  0.00     0.149 C 
HETATM    5  C3  UNL     1      -3.532   1.627  12.013  1.00  0.00     0.036 C 
HETATM    6  C4  UNL     1      -3.905   1.132  10.616  1.00  0.00     0.022 C 
HETATM    7  C5  UNL     1      -3.416  -0.316  10.555  1.00  0.00     0.114 C 
HETATM    8  N1  UNL     1      -4.210  -1.072  11.465  1.00  0.00    -0.419 N 
HETATM    9  C6  UNL     1      -4.133  -0.674  12.828  1.00  0.00     0.146 C 
ATOM     10  H1  UNL     1      -4.795  -1.848  11.159  1.00  0.00     0.153 HD
ENDBRANCH   3   4
ENDBRANCH   2   3
BRANCH   2  11
HETATM   11  C7  UNL     1      -4.660   3.558  14.991  1.00  0.00     0.052 C 
HETATM   12  C8  UNL     1      -5.147   4.141  16.308  1.00  0.00     0.025 C 
HETATM   13  C9  UNL     1      -5.570   5.538  15.827  1.00  0.00    -0.013 C 
HETATM   14  C10 UNL     1      -4.323   6.245  15.389  1.00  0.00     0.009 C 
HETATM   15  C14 UNL     1      -6.447   5.138  14.646  1.00  0.00     0.010 C 
HETATM   16  C11 UNL     1      -3.574   5.509  14.326  1.00  0.00    -0.013 C 
HETATM   17  C12 UNL     1      -4.531   5.177  13.182  1.00  0.00     0.010 C 
HETATM   18  C15 UNL     1      -3.252   4.085  14.806  1.00  0.00     0.025 C 
HETATM   19  C13 UNL     1      -5.474   4.207  13.910  1.00  0.00     0.004 C 
ENDBRANCH   2  11
TORSDOF 3
ENDMDL
MODEL 5
REMARK VINA RESULT: -6.532037188      1.646      2.154
REMARK  3 active torsions:
REMARK  status: ('A' for Active; 'I' for Inactive)
REMARK    1  A    between atoms: C1_2  and  O2_3 
REMARK    2  A    between atoms: C1_2  and  C7_11 
REMARK    3  A    between atoms: O2_3  and  C2_4 
ROOT
HETATM    1  O1  UNL     1      -5.654   3.351  13.830  1.00  0.00    -0.264 OA
HETATM    2  C1  UNL     1      -5.114   2.553  14.672  1.00  0.00     0.268 C 
ENDROOT
BRANCH   2   3
HETATM    3  O2  UNL     1      -4.117   1.741  14.141  1.00  0.00    -0.314 OA
BRANCH   3   4
HETATM    4  C2  UNL     1      -4.289   1.012  12.964  1.00  0.00     0.149 C 
HETATM    5  C3  UNL     1      -3.326   1.537  11.934  1.00  0.00     0.036 C 
HETATM    6  C4  UNL     1      -3.510   0.717  10.659  1.00  0.00     0.022 C 
HETATM    7  C5  UNL     1      -3.104  -0.710  11.032  1.00  0.00     0.114 C 
HETATM    8  N1  UNL     1      -4.072  -1.198  11.958  1.00  0.00    -0.419 N 
HETATM    9  C6  UNL     1      -4.181  -0.474  13.176  1.00  0.00     0.146 C 
ATOM     10  H1  UNL     1      -4.648  -2.016  11.759  1.00  0.00     0.153 HD
ENDBRANCH   3   4
ENDBRANCH   2   3
BRANCH   2  11
HETATM   11  C7  UNL     1      -5.547   2.541  16.058  1.00  0.00     0.052 C 
HETATM   12  C8  UNL     1      -4.868   1.399  16.797  1.00  0.00     0.025 C 
HETATM   13  C9  UNL     1      -5.890   1.180  17.923  1.00  0.00    -0.013 C 
HETATM   14  C10 UNL     1      -5.875   2.415  18.773  1.00  0.00     0.009 C 
HETATM   15  C14 UNL     1      -7.159   1.075  17.088  1.00  0.00     0.010 C 
HETATM   16  C11 UNL     1      -6.174   3.661  18.003  1.00  0.00    -0.013 C 
HETATM   17  C12 UNL     1      -7.473   3.463  17.223  1.00  0.00     0.010 C 
HETATM   18  C15 UNL     1      -5.192   3.796  16.829  1.00  0.00     0.025 C 
HETATM   19  C13 UNL     1      -7.024   2.357  16.255  1.00  0.00     0.004 C 
ENDBRANCH   2  11
TORSDOF 3
ENDMDL
