MODEL 1
REMARK VINA RESULT: -7.717902846      0.000      0.000
REMARK  4 active torsions:
REMARK  status: ('A' for Active; 'I' for Inactive)
REMARK    1  A    between atoms: O1_1  and  C1_3 
REMARK    2  A    between atoms: C1_3  and  C2_4 
REMARK    3  A    between atoms: C3_5  and  N1_6 
REMARK    4  A    between atoms: N1_6  and  C4_8 
ROOT
HETATM    1  C2  UNL     1      23.145   7.439  16.991  1.00  0.00     0.038 C 
HETATM    2  C3  UNL     1      24.266   6.478  16.705  1.00  0.00     0.084 C 
HETATM    3  C14 UNL     1      24.772   6.935  15.333  1.00  0.00     0.032 C 
HETATM    4  C15 UNL     1      24.218   8.321  15.112  1.00  0.00     0.019 C 
HETATM    5  C16 UNL     1      22.966   8.320  14.268  1.00  0.00     0.237 C 
HETATM    6  N2  UNL     1      22.050   9.267  14.836  1.00  0.00    -0.074 N 
ATOM      7  H21 UNL     1      21.103   8.899  14.922  1.00  0.00     0.277 HD
ATOM      8  H22 UNL     1      21.838  10.039  14.205  1.00  0.00     0.277 HD
HETATM    9  C17 UNL     1      22.594   9.709  16.097  1.00  0.00     0.237 C 
HETATM   10  C18 UNL     1      23.697   8.768  16.460  1.00  0.00     0.025 C 
ENDROOT
BRANCH   2  11
HETATM   11  N1  UNL     1      23.824   5.146  16.580  1.00  0.00    -0.408 N 
ATOM     12  H1  UNL     1      23.031   4.918  15.981  1.00  0.00     0.154 HD
BRANCH  11  13
HETATM   13  C4  UNL     1      24.499   4.128  17.299  1.00  0.00     0.027 C 
HETATM   14  C5  UNL     1      25.963   4.007  17.051  1.00  0.00     0.035 C 
HETATM   15  C6  UNL     1      26.595   3.017  17.997  1.00  0.00    -0.012 C 
HETATM   16  C7  UNL     1      26.019   1.634  17.828  1.00  0.00     0.009 C 
HETATM   17  C11 UNL     1      26.396   3.479  19.421  1.00  0.00     0.009 C 
HETATM   18  C8  UNL     1      24.524   1.746  18.003  1.00  0.00    -0.012 C 
HETATM   19  C9  UNL     1      24.289   2.105  19.469  1.00  0.00     0.009 C 
HETATM   20  C13 UNL     1      23.893   2.745  17.073  1.00  0.00     0.035 C 
HETATM   21  C10 UNL     1      24.909   3.453  19.688  1.00  0.00    -0.012 C 
HETATM   22  C12 UNL     1      24.254   4.437  18.784  1.00  0.00     0.035 C 
ENDBRANCH  11  13
ENDBRANCH   2  11
BRANCH   1  23
HETATM   23  C1  UNL     1      22.830   7.646  18.429  1.00  0.00     0.171 C 
BRANCH  23  24
HETATM   24  O1  UNL     1      21.465   7.709  18.698  1.00  0.00    -0.400 OA
ATOM     25  H1  UNL     1      21.114   6.909  19.071  1.00  0.00     0.209 HD
ENDBRANCH  23  24
ENDBRANCH   1  23
TORSDOF 4
ENDMDL
MODEL 2
REMARK VINA RESULT: -7.629073671      0.142      1.618
REMARK  4 active torsions:
REMARK  status: ('A' for Active; 'I' for Inactive)
REMARK    1  A    between atoms: O1_1  and  C1_3 
REMARK    2  A    between atoms: C1_3  and  C2_4 
REMARK    3  A    between atoms: C3_5  and  N1_6 
REMARK    4  A    between atoms: N1_6  and  C4_8 
ROOT
HETATM    1  C2  UNL     1      23.233   7.399  16.958  1.00  0.00     0.038 C 
HETATM    2  C3  UNL     1      24.328   6.426  16.615  1.00  0.00     0.084 C 
HETATM    3  C14 UNL     1      24.776   6.887  15.223  1.00  0.00     0.032 C 
HETATM    4  C15 UNL     1      24.228   8.280  15.036  1.00  0.00     0.019 C 
HETATM    5  C16 UNL     1      22.939   8.298  14.251  1.00  0.00     0.237 C 
HETATM    6  N2  UNL     1      22.060   9.252  14.865  1.00  0.00    -0.074 N 
ATOM      7  H21 UNL     1      21.114   8.893  14.992  1.00  0.00     0.277 HD
ATOM      8  H22 UNL     1      21.828  10.030  14.248  1.00  0.00     0.277 HD
HETATM    9  C17 UNL     1      22.667   9.680  16.102  1.00  0.00     0.237 C 
HETATM   10  C18 UNL     1      23.775   8.725  16.408  1.00  0.00     0.025 C 
ENDROOT
BRANCH   2  11
HETATM   11  N1  UNL     1      23.866   5.101  16.503  1.00  0.00    -0.408 N 
ATOM     12  H1  UNL     1      23.154   4.857  15.815  1.00  0.00     0.154 HD
BRANCH  11  13
HETATM   13  C4  UNL     1      24.405   4.110  17.361  1.00  0.00     0.027 C 
HETATM   14  C5  UNL     1      23.851   2.735  17.209  1.00  0.00     0.035 C 
HETATM   15  C6  UNL     1      24.622   1.743  18.042  1.00  0.00    -0.012 C 
HETATM   16  C7  UNL     1      24.550   2.071  19.513  1.00  0.00     0.009 C 
HETATM   17  C11 UNL     1      26.065   1.720  17.597  1.00  0.00     0.009 C 
HETATM   18  C8  UNL     1      25.039   3.488  19.681  1.00  0.00    -0.012 C 
HETATM   19  C9  UNL     1      26.529   3.472  19.343  1.00  0.00     0.009 C 
HETATM   20  C13 UNL     1      24.284   4.478  18.838  1.00  0.00     0.035 C 
HETATM   21  C10 UNL     1      26.640   3.085  17.898  1.00  0.00    -0.012 C 
HETATM   22  C12 UNL     1      25.915   4.089  17.073  1.00  0.00     0.035 C 
ENDBRANCH  11  13
ENDBRANCH   2  11
BRANCH   1  23
HETATM   23  C1  UNL     1      22.986   7.601  18.410  1.00  0.00     0.171 C 
BRANCH  23  24
HETATM   24  O1  UNL     1      21.640   7.529  18.762  1.00  0.00    -0.400 OA
ATOM     25  H1  UNL     1      21.370   6.667  19.055  1.00  0.00     0.209 HD
ENDBRANCH  23  24
ENDBRANCH   1  23
TORSDOF 4
ENDMDL
MODEL 3
REMARK VINA RESULT: -7.409034101      0.253      1.643
REMARK  4 active torsions:
REMARK  status: ('A' for Active; 'I' for Inactive)
REMARK    1  A    between atoms: O1_1  and  C1_3 
REMARK    2  A    between atoms: C1_3  and  C2_4 
REMARK    3  A    between atoms: C3_5  and  N1_6 
REMARK    4  A    between atoms: N1_6  and  C4_8 
ROOT
HETATM    1  C2  UNL     1      23.164   7.487  16.918  1.00  0.00     0.038 C 
HETATM    2  C3  UNL     1      24.306   6.558  16.611  1.00  0.00     0.084 C 
HETATM    3  C14 UNL     1      24.768   7.025  15.226  1.00  0.00     0.032 C 
HETATM    4  C15 UNL     1      24.168   8.393  15.013  1.00  0.00     0.019 C 
HETATM    5  C16 UNL     1      22.899   8.352  14.197  1.00  0.00     0.237 C 
HETATM    6  N2  UNL     1      21.967   9.274  14.781  1.00  0.00    -0.074 N 
ATOM      7  H21 UNL     1      21.034   8.877  14.889  1.00  0.00     0.277 HD
ATOM      8  H22 UNL     1      21.719  10.036  14.152  1.00  0.00     0.277 HD
HETATM    9  C17 UNL     1      22.526   9.736  16.028  1.00  0.00     0.237 C 
HETATM   10  C18 UNL     1      23.664   8.830  16.370  1.00  0.00     0.025 C 
ENDROOT
BRANCH   2  11
HETATM   11  N1  UNL     1      23.902   5.214  16.500  1.00  0.00    -0.408 N 
ATOM     12  H1  UNL     1      23.255   4.927  15.766  1.00  0.00     0.154 HD
BRANCH  11  13
HETATM   13  C4  UNL     1      24.407   4.266  17.424  1.00  0.00     0.027 C 
HETATM   14  C5  UNL     1      24.106   4.522  18.861  1.00  0.00     0.035 C 
HETATM   15  C6  UNL     1      24.538   3.363  19.722  1.00  0.00    -0.012 C 
HETATM   16  C7  UNL     1      26.025   3.123  19.635  1.00  0.00     0.009 C 
HETATM   17  C11 UNL     1      23.798   2.116  19.301  1.00  0.00     0.009 C 
HETATM   18  C8  UNL     1      26.363   2.933  18.177  1.00  0.00    -0.012 C 
HETATM   19  C9  UNL     1      25.717   1.616  17.753  1.00  0.00     0.009 C 
HETATM   20  C13 UNL     1      25.919   4.080  17.312  1.00  0.00     0.035 C 
HETATM   21  C10 UNL     1      24.234   1.799  17.890  1.00  0.00    -0.012 C 
HETATM   22  C12 UNL     1      23.803   2.916  17.006  1.00  0.00     0.035 C 
ENDBRANCH  11  13
ENDBRANCH   2  11
BRANCH   1  23
HETATM   23  C1  UNL     1      22.874   7.691  18.362  1.00  0.00     0.171 C 
BRANCH  23  24
HETATM   24  O1  UNL     1      21.514   7.677  18.665  1.00  0.00    -0.400 OA
ATOM     25  H1  UNL     1      21.318   7.983  19.543  1.00  0.00     0.209 HD
ENDBRANCH  23  24
ENDBRANCH   1  23
TORSDOF 4
ENDMDL
MODEL 4
REMARK VINA RESULT: -6.988888923      2.716      3.704
REMARK  4 active torsions:
REMARK  status: ('A' for Active; 'I' for Inactive)
REMARK    1  A    between atoms: O1_1  and  C1_3 
REMARK    2  A    between atoms: C1_3  and  C2_4 
REMARK    3  A    between atoms: C3_5  and  N1_6 
REMARK    4  A    between atoms: N1_6  and  C4_8 
ROOT
HETATM    1  C2  UNL     1      21.945   6.845  20.964  1.00  0.00     0.038 C 
HETATM    2  C3  UNL     1      22.945   6.419  19.924  1.00  0.00     0.084 C 
HETATM    3  C14 UNL     1      22.827   7.517  18.861  1.00  0.00     0.032 C 
HETATM    4  C15 UNL     1      22.107   8.670  19.515  1.00  0.00     0.019 C 
HETATM    5  C16 UNL     1      20.630   8.687  19.203  1.00  0.00     0.237 C 
HETATM    6  N2  UNL     1      19.929   9.039  20.405  1.00  0.00    -0.074 N 
ATOM      7  H21 UNL     1      19.130   8.432  20.588  1.00  0.00     0.277 HD
ATOM      8  H22 UNL     1      19.417   9.916  20.322  1.00  0.00     0.277 HD
HETATM    9  C17 UNL     1      20.883   9.048  21.487  1.00  0.00     0.237 C 
HETATM   10  C18 UNL     1      22.120   8.369  20.996  1.00  0.00     0.025 C 
ENDROOT
BRANCH   2  11
HETATM   11  N1  UNL     1      22.613   5.193  19.317  1.00  0.00    -0.408 N 
ATOM     12  H1  UNL     1      21.646   4.984  19.066  1.00  0.00     0.154 HD
BRANCH  11  13
HETATM   13  C4  UNL     1      23.641   4.253  19.059  1.00  0.00     0.027 C 
HETATM   14  C5  UNL     1      24.712   4.150  20.090  1.00  0.00     0.035 C 
HETATM   15  C6  UNL     1      25.644   3.002  19.795  1.00  0.00    -0.012 C 
HETATM   16  C7  UNL     1      26.343   3.175  18.470  1.00  0.00     0.009 C 
HETATM   17  C11 UNL     1      24.867   1.707  19.793  1.00  0.00     0.009 C 
HETATM   18  C8  UNL     1      25.275   3.355  17.419  1.00  0.00    -0.012 C 
HETATM   19  C9  UNL     1      24.544   2.018  17.317  1.00  0.00     0.009 C 
HETATM   20  C13 UNL     1      24.334   4.488  17.719  1.00  0.00     0.035 C 
HETATM   21  C10 UNL     1      23.887   1.783  18.645  1.00  0.00    -0.012 C 
HETATM   22  C12 UNL     1      22.936   2.895  18.915  1.00  0.00     0.035 C 
ENDBRANCH  11  13
ENDBRANCH   2  11
BRANCH   1  23
HETATM   23  C1  UNL     1      22.204   6.351  22.342  1.00  0.00     0.171 C 
BRANCH  23  24
HETATM   24  O1  UNL     1      22.313   4.965  22.426  1.00  0.00    -0.400 OA
ATOM     25  H1  UNL     1      21.854   4.505  21.734  1.00  0.00     0.209 HD
ENDBRANCH  23  24
ENDBRANCH   1  23
TORSDOF 4
ENDMDL
MODEL 5
REMARK VINA RESULT: -6.753649788      2.676      3.850
REMARK  4 active torsions:
REMARK  status: ('A' for Active; 'I' for Inactive)
REMARK    1  A    between atoms: O1_1  and  C1_3 
REMARK    2  A    between atoms: C1_3  and  C2_4 
REMARK    3  A    between atoms: C3_5  and  N1_6 
REMARK    4  A    between atoms: N1_6  and  C4_8 
ROOT
HETATM    1  C2  UNL     1      21.934   6.752  20.832  1.00  0.00     0.038 C 
HETATM    2  C3  UNL     1      22.934   6.401  19.765  1.00  0.00     0.084 C 
HETATM    3  C14 UNL     1      22.855   7.598  18.811  1.00  0.00     0.032 C 
HETATM    4  C15 UNL     1      22.157   8.702  19.566  1.00  0.00     0.019 C 
HETATM    5  C16 UNL     1      20.684   8.787  19.246  1.00  0.00     0.237 C 
HETATM    6  N2  UNL     1      19.979   9.040  20.470  1.00  0.00    -0.074 N 
ATOM      7  H21 UNL     1      19.164   8.440  20.588  1.00  0.00     0.277 HD
ATOM      8  H22 UNL     1      19.490   9.934  20.467  1.00  0.00     0.277 HD
HETATM    9  C17 UNL     1      20.922   8.921  21.556  1.00  0.00     0.237 C 
HETATM   10  C18 UNL     1      22.147   8.260  21.012  1.00  0.00     0.025 C 
ENDROOT
BRANCH   2  11
HETATM   11  N1  UNL     1      22.578   5.248  19.040  1.00  0.00    -0.408 N 
ATOM     12  H1  UNL     1      21.686   5.201  18.547  1.00  0.00     0.154 HD
BRANCH  11  13
HETATM   13  C4  UNL     1      23.476   4.153  19.007  1.00  0.00     0.027 C 
HETATM   14  C5  UNL     1      22.862   2.795  19.061  1.00  0.00     0.035 C 
HETATM   15  C6  UNL     1      23.896   1.721  18.840  1.00  0.00    -0.012 C 
HETATM   16  C7  UNL     1      24.967   1.747  19.902  1.00  0.00     0.009 C 
HETATM   17  C11 UNL     1      24.527   1.898  17.479  1.00  0.00     0.009 C 
HETATM   18  C8  UNL     1      25.553   3.137  19.914  1.00  0.00    -0.012 C 
HETATM   19  C9  UNL     1      26.296   3.302  18.590  1.00  0.00     0.009 C 
HETATM   20  C13 UNL     1      24.522   4.212  20.117  1.00  0.00     0.035 C 
HETATM   21  C10 UNL     1      25.264   3.217  17.504  1.00  0.00    -0.012 C 
HETATM   22  C12 UNL     1      24.268   4.305  17.699  1.00  0.00     0.035 C 
ENDBRANCH  11  13
ENDBRANCH   2  11
BRANCH   1  23
HETATM   23  C1  UNL     1      22.166   6.121  22.159  1.00  0.00     0.171 C 
BRANCH  23  24
HETATM   24  O1  UNL     1      21.791   4.781  22.213  1.00  0.00    -0.400 OA
ATOM     25  H1  UNL     1      22.239   4.288  22.890  1.00  0.00     0.209 HD
ENDBRANCH  23  24
ENDBRANCH   1  23
TORSDOF 4
ENDMDL
