MODEL 1
REMARK VINA RESULT: -7.992624267      0.000      0.000
REMARK  6 active torsions:
REMARK  status: ('A' for Active; 'I' for Inactive)
REMARK    1  A    between atoms: C5_5  and  N1_6 
REMARK    2  A    between atoms: N1_6  and  C6_8 
REMARK    3  A    between atoms: C6_8  and  O1_10 
REMARK    4  A    between atoms: O1_10  and  C7_11 
REMARK    5  A    between atoms: C7_11  and  C13_20 
REMARK    6  A    between atoms: C9_16  and  C11_18 
ROOT
HETATM    1  O1  UNL     1      24.325   5.116  19.514  1.00  0.00    -0.314 OA
ENDROOT
BRANCH   1   2
HETATM    2  C6  UNL     1      23.176   5.763  19.976  1.00  0.00     0.211 C 
HETATM    3  S1  UNL     1      22.681   5.650  21.522  1.00  0.00    -0.033 SA
BRANCH   2   4
HETATM    4  N1  UNL     1      22.382   6.561  19.087  1.00  0.00    -0.357 N 
ATOM      5  H1  UNL     1      21.429   6.278  18.857  1.00  0.00     0.162 HD
BRANCH   4   6
HETATM    6  C5  UNL     1      22.941   7.775  18.514  1.00  0.00     0.084 C 
HETATM    7  C4  UNL     1      21.931   8.871  18.366  1.00  0.00     0.025 C 
HETATM    8  C3  UNL     1      21.544   9.109  16.919  1.00  0.00     0.006 C 
HETATM    9  C2  UNL     1      22.737   9.422  16.071  1.00  0.00    -0.019 C 
HETATM   10  C1  UNL     1      22.426   9.072  14.621  1.00  0.00     0.010 C 
HETATM   11  C16 UNL     1      23.983   8.699  16.501  1.00  0.00     0.006 C 
HETATM   12  C15 UNL     1      23.592   7.411  17.207  1.00  0.00     0.025 C 
ENDBRANCH   4   6
ENDBRANCH   2   4
ENDBRANCH   1   2
BRANCH   1  13
HETATM   13  C7  UNL     1      24.288   3.833  19.009  1.00  0.00     0.099 C 
HETATM   14  C8  UNL     1      24.557   3.904  17.496  1.00  0.00     0.271 C 
HETATM   15  N2  UNL     1      25.050   2.616  17.149  1.00  0.00    -0.068 N 
HETATM   16  C9  UNL     1      25.284   1.879  18.404  1.00  0.00     0.193 C 
ATOM     17  H22 UNL     1      24.439   2.118  16.503  1.00  0.00     0.277 HD
ATOM     18  H21 UNL     1      25.875   2.654  16.551  1.00  0.00     0.277 HD
HETATM   19  C10 UNL     1      25.572   3.042  19.333  1.00  0.00     0.074 C 
BRANCH  16  20
HETATM   20  C11 UNL     1      23.954   1.227  18.745  1.00  0.00     0.017 C 
HETATM   21  C12 UNL     1      23.762  -0.068  18.005  1.00  0.00     0.014 C 
HETATM   22  C13 UNL     1      24.793  -0.638  18.976  1.00  0.00     0.023 C 
HETATM   23  C14 UNL     1      24.110   0.312  19.972  1.00  0.00     0.014 C 
ENDBRANCH  16  20
ENDBRANCH   1  13
TORSDOF 6
ENDMDL
MODEL 2
REMARK VINA RESULT: -7.873928033      1.013      1.411
REMARK  6 active torsions:
REMARK  status: ('A' for Active; 'I' for Inactive)
REMARK    1  A    between atoms: C5_5  and  N1_6 
REMARK    2  A    between atoms: N1_6  and  C6_8 
REMARK    3  A    between atoms: C6_8  and  O1_10 
REMARK    4  A    between atoms: O1_10  and  C7_11 
REMARK    5  A    between atoms: C7_11  and  C13_20 
REMARK    6  A    between atoms: C9_16  and  C11_18 
ROOT
HETATM    1  O1  UNL     1      24.393   4.911  20.149  1.00  0.00    -0.314 OA
ENDROOT
BRANCH   1   2
HETATM    2  C6  UNL     1      23.244   5.686  20.327  1.00  0.00     0.211 C 
HETATM    3  S1  UNL     1      22.570   5.911  21.791  1.00  0.00    -0.033 SA
BRANCH   2   4
HETATM    4  N1  UNL     1      22.612   6.319  19.206  1.00  0.00    -0.357 N 
ATOM      5  H1  UNL     1      21.759   5.925  18.809  1.00  0.00     0.162 HD
BRANCH   4   6
HETATM    6  C5  UNL     1      23.191   7.526  18.638  1.00  0.00     0.084 C 
HETATM    7  C4  UNL     1      22.223   8.666  18.574  1.00  0.00     0.025 C 
HETATM    8  C3  UNL     1      21.772   8.962  17.156  1.00  0.00     0.006 C 
HETATM    9  C2  UNL     1      22.933   9.251  16.255  1.00  0.00    -0.019 C 
HETATM   10  C1  UNL     1      22.533   8.956  14.815  1.00  0.00     0.010 C 
HETATM   11  C16 UNL     1      24.167   8.465  16.599  1.00  0.00     0.006 C 
HETATM   12  C15 UNL     1      23.758   7.173  17.289  1.00  0.00     0.025 C 
ENDBRANCH   4   6
ENDBRANCH   2   4
ENDBRANCH   1   2
BRANCH   1  13
HETATM   13  C7  UNL     1      24.342   3.644  19.607  1.00  0.00     0.099 C 
HETATM   14  C8  UNL     1      22.903   3.120  19.743  1.00  0.00     0.271 C 
HETATM   15  N2  UNL     1      22.774   2.131  18.730  1.00  0.00    -0.068 N 
HETATM   16  C9  UNL     1      23.978   2.205  17.883  1.00  0.00     0.193 C 
ATOM     17  H22 UNL     1      22.608   1.197  19.105  1.00  0.00     0.277 HD
ATOM     18  H21 UNL     1      21.908   2.216  18.197  1.00  0.00     0.277 HD
HETATM   19  C10 UNL     1      24.327   3.669  18.065  1.00  0.00     0.074 C 
BRANCH  16  20
HETATM   20  C11 UNL     1      25.005   1.312  18.559  1.00  0.00     0.017 C 
HETATM   21  C12 UNL     1      24.562  -0.125  18.589  1.00  0.00     0.014 C 
HETATM   22  C13 UNL     1      24.887  -0.132  17.097  1.00  0.00     0.023 C 
HETATM   23  C14 UNL     1      26.027   0.803  17.529  1.00  0.00     0.014 C 
ENDBRANCH  16  20
ENDBRANCH   1  13
TORSDOF 6
ENDMDL
MODEL 3
REMARK VINA RESULT: -7.615615116      0.964      1.640
REMARK  6 active torsions:
REMARK  status: ('A' for Active; 'I' for Inactive)
REMARK    1  A    between atoms: C5_5  and  N1_6 
REMARK    2  A    between atoms: N1_6  and  C6_8 
REMARK    3  A    between atoms: C6_8  and  O1_10 
REMARK    4  A    between atoms: O1_10  and  C7_11 
REMARK    5  A    between atoms: C7_11  and  C13_20 
REMARK    6  A    between atoms: C9_16  and  C11_18 
ROOT
HETATM    1  O1  UNL     1      24.051   5.550  18.857  1.00  0.00    -0.314 OA
ENDROOT
BRANCH   1   2
HETATM    2  C6  UNL     1      23.127   6.124  19.735  1.00  0.00     0.211 C 
HETATM    3  S1  UNL     1      22.541   5.320  21.022  1.00  0.00    -0.033 SA
BRANCH   2   4
HETATM    4  N1  UNL     1      22.658   7.463  19.525  1.00  0.00    -0.357 N 
ATOM      5  H1  UNL     1      22.966   8.216  20.139  1.00  0.00     0.162 HD
BRANCH   4   6
HETATM    6  C5  UNL     1      21.741   7.742  18.431  1.00  0.00     0.084 C 
HETATM    7  C4  UNL     1      22.437   7.945  17.121  1.00  0.00     0.025 C 
HETATM    8  C3  UNL     1      22.424   9.396  16.678  1.00  0.00     0.006 C 
HETATM    9  C2  UNL     1      21.030   9.933  16.583  1.00  0.00    -0.019 C 
HETATM   10  C1  UNL     1      21.069  11.450  16.727  1.00  0.00     0.010 C 
HETATM   11  C16 UNL     1      20.096   9.360  17.611  1.00  0.00     0.006 C 
HETATM   12  C15 UNL     1      20.900   8.927  18.827  1.00  0.00     0.025 C 
ENDBRANCH   4   6
ENDBRANCH   2   4
ENDBRANCH   1   2
BRANCH   1  13
HETATM   13  C7  UNL     1      24.096   4.190  18.631  1.00  0.00     0.099 C 
HETATM   14  C8  UNL     1      24.677   3.956  17.227  1.00  0.00     0.271 C 
HETATM   15  N2  UNL     1      25.207   2.636  17.263  1.00  0.00    -0.068 N 
HETATM   16  C9  UNL     1      25.158   2.178  18.663  1.00  0.00     0.193 C 
ATOM     17  H22 UNL     1      24.735   2.001  16.620  1.00  0.00     0.277 HD
ATOM     18  H21 UNL     1      26.140   2.571  16.856  1.00  0.00     0.277 HD
HETATM   19  C10 UNL     1      25.268   3.515  19.372  1.00  0.00     0.074 C 
BRANCH  16  20
HETATM   20  C11 UNL     1      23.774   1.578  18.846  1.00  0.00     0.017 C 
HETATM   21  C12 UNL     1      23.678   0.205  18.240  1.00  0.00     0.014 C 
HETATM   22  C13 UNL     1      24.515  -0.250  19.433  1.00  0.00     0.023 C 
HETATM   23  C14 UNL     1      23.697   0.815  20.179  1.00  0.00     0.014 C 
ENDBRANCH  16  20
ENDBRANCH   1  13
TORSDOF 6
ENDMDL
MODEL 4
REMARK VINA RESULT: -7.574127741      1.683      2.078
REMARK  6 active torsions:
REMARK  status: ('A' for Active; 'I' for Inactive)
REMARK    1  A    between atoms: C5_5  and  N1_6 
REMARK    2  A    between atoms: N1_6  and  C6_8 
REMARK    3  A    between atoms: C6_8  and  O1_10 
REMARK    4  A    between atoms: O1_10  and  C7_11 
REMARK    5  A    between atoms: C7_11  and  C13_20 
REMARK    6  A    between atoms: C9_16  and  C11_18 
ROOT
HETATM    1  O1  UNL     1      23.530   4.736  19.525  1.00  0.00    -0.314 OA
ENDROOT
BRANCH   1   2
HETATM    2  C6  UNL     1      22.921   5.885  20.034  1.00  0.00     0.211 C 
HETATM    3  S1  UNL     1      23.025   6.295  21.605  1.00  0.00    -0.033 SA
BRANCH   2   4
HETATM    4  N1  UNL     1      22.174   6.756  19.174  1.00  0.00    -0.357 N 
ATOM      5  H1  UNL     1      21.183   6.582  19.005  1.00  0.00     0.162 HD
BRANCH   4   6
HETATM    6  C5  UNL     1      22.834   7.887  18.543  1.00  0.00     0.084 C 
HETATM    7  C4  UNL     1      21.907   9.034  18.280  1.00  0.00     0.025 C 
HETATM    8  C3  UNL     1      21.590   9.193  16.805  1.00  0.00     0.006 C 
HETATM    9  C2  UNL     1      22.832   9.367  15.987  1.00  0.00    -0.019 C 
HETATM   10  C1  UNL     1      22.550   8.935  14.553  1.00  0.00     0.010 C 
HETATM   11  C16 UNL     1      24.009   8.596  16.516  1.00  0.00     0.006 C 
HETATM   12  C15 UNL     1      23.506   7.389  17.292  1.00  0.00     0.025 C 
ENDBRANCH   4   6
ENDBRANCH   2   4
ENDBRANCH   1   2
BRANCH   1  13
HETATM   13  C7  UNL     1      23.156   3.471  19.928  1.00  0.00     0.099 C 
HETATM   14  C8  UNL     1      23.109   2.565  18.687  1.00  0.00     0.271 C 
HETATM   15  N2  UNL     1      23.276   1.245  19.188  1.00  0.00    -0.068 N 
HETATM   16  C9  UNL     1      23.631   1.354  20.614  1.00  0.00     0.193 C 
ATOM     17  H22 UNL     1      22.463   0.652  19.025  1.00  0.00     0.277 HD
ATOM     18  H21 UNL     1      23.950   0.697  18.652  1.00  0.00     0.277 HD
HETATM   19  C10 UNL     1      24.315   2.708  20.603  1.00  0.00     0.074 C 
BRANCH  16  20
HETATM   20  C11 UNL     1      22.307   1.420  21.358  1.00  0.00     0.017 C 
HETATM   21  C12 UNL     1      21.750   0.048  21.625  1.00  0.00     0.014 C 
HETATM   22  C13 UNL     1      22.844  -0.060  22.684  1.00  0.00     0.023 C 
HETATM   23  C14 UNL     1      22.551   1.436  22.876  1.00  0.00     0.014 C 
ENDBRANCH  16  20
ENDBRANCH   1  13
TORSDOF 6
ENDMDL
MODEL 5
REMARK VINA RESULT: -7.570791331      1.913      2.641
REMARK  6 active torsions:
REMARK  status: ('A' for Active; 'I' for Inactive)
REMARK    1  A    between atoms: C5_5  and  N1_6 
REMARK    2  A    between atoms: N1_6  and  C6_8 
REMARK    3  A    between atoms: C6_8  and  O1_10 
REMARK    4  A    between atoms: O1_10  and  C7_11 
REMARK    5  A    between atoms: C7_11  and  C13_20 
REMARK    6  A    between atoms: C9_16  and  C11_18 
ROOT
HETATM    1  O1  UNL     1      22.161   6.079  21.145  1.00  0.00    -0.314 OA
ENDROOT
BRANCH   1   2
HETATM    2  C6  UNL     1      21.771   7.272  20.532  1.00  0.00     0.211 C 
HETATM    3  S1  UNL     1      21.416   8.609  21.389  1.00  0.00    -0.033 SA
BRANCH   2   4
HETATM    4  N1  UNL     1      21.670   7.359  19.104  1.00  0.00    -0.357 N 
ATOM      5  H1  UNL     1      21.007   6.770  18.601  1.00  0.00     0.162 HD
BRANCH   4   6
HETATM    6  C5  UNL     1      22.518   8.290  18.377  1.00  0.00     0.084 C 
HETATM    7  C4  UNL     1      21.753   9.426  17.771  1.00  0.00     0.025 C 
HETATM    8  C3  UNL     1      21.647   9.311  16.262  1.00  0.00     0.006 C 
HETATM    9  C2  UNL     1      22.995   9.227  15.617  1.00  0.00    -0.019 C 
HETATM   10  C1  UNL     1      22.859   8.541  14.263  1.00  0.00     0.010 C 
HETATM   11  C16 UNL     1      24.010   8.492  16.447  1.00  0.00     0.006 C 
HETATM   12  C15 UNL     1      23.292   7.504  17.353  1.00  0.00     0.025 C 
ENDBRANCH   4   6
ENDBRANCH   2   4
ENDBRANCH   1   2
BRANCH   1  13
HETATM   13  C7  UNL     1      23.053   5.211  20.552  1.00  0.00     0.099 C 
HETATM   14  C8  UNL     1      23.609   4.275  21.638  1.00  0.00     0.271 C 
HETATM   15  N2  UNL     1      24.043   3.116  20.939  1.00  0.00    -0.068 N 
HETATM   16  C9  UNL     1      23.576   3.238  19.546  1.00  0.00     0.193 C 
ATOM     17  H22 UNL     1      25.049   2.963  21.009  1.00  0.00     0.277 HD
ATOM     18  H21 UNL     1      23.745   2.247  21.383  1.00  0.00     0.277 HD
HETATM   19  C10 UNL     1      22.341   4.090  19.766  1.00  0.00     0.074 C 
BRANCH  16  20
HETATM   20  C11 UNL     1      24.658   4.023  18.823  1.00  0.00     0.017 C 
HETATM   21  C12 UNL     1      25.941   3.245  18.725  1.00  0.00     0.014 C 
HETATM   22  C13 UNL     1      25.218   2.415  17.667  1.00  0.00     0.023 C 
HETATM   23  C14 UNL     1      24.579   3.765  17.309  1.00  0.00     0.014 C 
ENDBRANCH  16  20
ENDBRANCH   1  13
TORSDOF 6
ENDMDL
