MODEL 1
REMARK VINA RESULT: -6.330541073      0.000      0.000
REMARK  6 active torsions:
REMARK  status: ('A' for Active; 'I' for Inactive)
REMARK    1  A    between atoms: C2_2  and  C3_3 
REMARK    2  A    between atoms: C3_3  and  C4_4 
REMARK    3  A    between atoms: C4_4  and  C5_5 
REMARK    4  A    between atoms: C5_5  and  C6_6 
REMARK    5  A    between atoms: C10_10  and  O1_11 
REMARK    6  A    between atoms: C15_17  and  O2_18 
ROOT
HETATM    1  C6  UNL     1      23.353   5.242  20.265  1.00  0.00     0.097 C 
HETATM    2  C7  UNL     1      22.992   5.448  21.671  1.00  0.00     0.020 C 
HETATM    3  C8  UNL     1      22.331   4.324  22.380  1.00  0.00     0.004 C 
HETATM    4  C9  UNL     1      23.168   3.095  22.091  1.00  0.00     0.041 C 
HETATM    5  C10 UNL     1      22.875   2.773  20.643  1.00  0.00     0.098 C 
HETATM    6  C11 UNL     1      23.625   1.500  20.211  1.00  0.00     0.057 C 
HETATM    7  C12 UNL     1      23.119   1.200  18.807  1.00  0.00     0.012 C 
HETATM    8  C13 UNL     1      23.489   2.329  17.870  1.00  0.00     0.046 C 
HETATM    9  C14 UNL     1      24.177   3.422  18.706  1.00  0.00     0.292 C 
HETATM   10  C15 UNL     1      23.139   3.867  19.683  1.00  0.00     0.139 C 
HETATM   11  N1  UNL     1      25.349   2.817  19.246  1.00  0.00     0.017 N 
HETATM   12  C16 UNL     1      26.042   2.144  18.131  1.00  0.00     0.357 C 
HETATM   13  O3  UNL     1      26.278   3.675  19.734  1.00  0.00    -0.064 OA
HETATM   14  C17 UNL     1      25.087   1.782  20.218  1.00  0.00     0.319 C 
ENDROOT
BRANCH   1  15
HETATM   15  C5  UNL     1      23.021   6.317  19.382  1.00  0.00    -0.148 C 
BRANCH  15  16
HETATM   16  C4  UNL     1      22.730   7.257  18.612  1.00  0.00     0.051 C 
BRANCH  16  17
HETATM   17  C3  UNL     1      23.215   7.738  17.344  1.00  0.00     0.003 C 
BRANCH  17  18
HETATM   18  C2  UNL     1      22.847   8.808  16.723  1.00  0.00    -0.030 C 
HETATM   19  C1  UNL     1      22.561   8.992  15.292  1.00  0.00     0.036 C 
ENDBRANCH  17  18
ENDBRANCH  16  17
ENDBRANCH  15  16
ENDBRANCH   1  15
BRANCH  10  20
HETATM   20  O2  UNL     1      21.961   3.993  18.894  1.00  0.00    -0.383 OA
ATOM     21  H2  UNL     1      21.601   3.115  18.861  1.00  0.00     0.210 HD
ENDBRANCH  10  20
BRANCH   5  22
HETATM   22  O1  UNL     1      21.518   2.362  20.626  1.00  0.00    -0.386 OA
ATOM     23  H1  UNL     1      21.297   2.284  19.705  1.00  0.00     0.210 HD
ENDBRANCH   5  22
TORSDOF 6
ENDMDL
MODEL 2
REMARK VINA RESULT: -6.237623667      1.148      1.718
REMARK  6 active torsions:
REMARK  status: ('A' for Active; 'I' for Inactive)
REMARK    1  A    between atoms: C2_2  and  C3_3 
REMARK    2  A    between atoms: C3_3  and  C4_4 
REMARK    3  A    between atoms: C4_4  and  C5_5 
REMARK    4  A    between atoms: C5_5  and  C6_6 
REMARK    5  A    between atoms: C10_10  and  O1_11 
REMARK    6  A    between atoms: C15_17  and  O2_18 
ROOT
HETATM    1  C6  UNL     1      23.262   5.047  20.448  1.00  0.00     0.097 C 
HETATM    2  C7  UNL     1      22.892   5.120  21.865  1.00  0.00     0.020 C 
HETATM    3  C8  UNL     1      22.272   3.917  22.475  1.00  0.00     0.004 C 
HETATM    4  C9  UNL     1      23.154   2.748  22.087  1.00  0.00     0.041 C 
HETATM    5  C10 UNL     1      22.875   2.538  20.616  1.00  0.00     0.098 C 
HETATM    6  C11 UNL     1      23.672   1.335  20.082  1.00  0.00     0.057 C 
HETATM    7  C12 UNL     1      23.180   1.135  18.655  1.00  0.00     0.012 C 
HETATM    8  C13 UNL     1      23.508   2.352  17.818  1.00  0.00     0.046 C 
HETATM    9  C14 UNL     1      24.154   3.396  18.745  1.00  0.00     0.292 C 
HETATM   10  C15 UNL     1      23.099   3.718  19.752  1.00  0.00     0.139 C 
HETATM   11  N1  UNL     1      25.347   2.791  19.239  1.00  0.00     0.017 N 
HETATM   12  C16 UNL     1      26.067   2.240  18.073  1.00  0.00     0.357 C 
HETATM   13  O3  UNL     1      26.243   3.639  19.801  1.00  0.00    -0.064 OA
HETATM   14  C17 UNL     1      25.122   1.669  20.119  1.00  0.00     0.319 C 
ENDROOT
BRANCH   1  15
HETATM   15  C5  UNL     1      22.891   6.179  19.657  1.00  0.00    -0.148 C 
BRANCH  15  16
HETATM   16  C4  UNL     1      22.567   7.169  18.967  1.00  0.00     0.051 C 
BRANCH  16  17
HETATM   17  C3  UNL     1      22.020   8.475  19.233  1.00  0.00     0.003 C 
BRANCH  17  18
HETATM   18  C2  UNL     1      21.057   8.768  20.040  1.00  0.00    -0.030 C 
HETATM   19  C1  UNL     1      21.001   8.619  21.502  1.00  0.00     0.036 C 
ENDBRANCH  17  18
ENDBRANCH  16  17
ENDBRANCH  15  16
ENDBRANCH   1  15
BRANCH  10  20
HETATM   20  O2  UNL     1      21.919   3.867  18.971  1.00  0.00    -0.383 OA
ATOM     21  H2  UNL     1      22.234   4.090  18.103  1.00  0.00     0.210 HD
ENDBRANCH  10  20
BRANCH   5  22
HETATM   22  O1  UNL     1      21.534   2.081  20.559  1.00  0.00    -0.386 OA
ATOM     23  H1  UNL     1      21.004   2.867  20.624  1.00  0.00     0.210 HD
ENDBRANCH   5  22
TORSDOF 6
ENDMDL
MODEL 3
REMARK VINA RESULT: -6.138557138      2.742      5.252
REMARK  6 active torsions:
REMARK  status: ('A' for Active; 'I' for Inactive)
REMARK    1  A    between atoms: C2_2  and  C3_3 
REMARK    2  A    between atoms: C3_3  and  C4_4 
REMARK    3  A    between atoms: C4_4  and  C5_5 
REMARK    4  A    between atoms: C5_5  and  C6_6 
REMARK    5  A    between atoms: C10_10  and  O1_11 
REMARK    6  A    between atoms: C15_17  and  O2_18 
ROOT
HETATM    1  C6  UNL     1      24.894   2.112  19.678  1.00  0.00     0.097 C 
HETATM    2  C7  UNL     1      25.220   3.507  19.364  1.00  0.00     0.020 C 
HETATM    3  C8  UNL     1      24.142   4.515  19.523  1.00  0.00     0.004 C 
HETATM    4  C9  UNL     1      23.541   4.275  20.892  1.00  0.00     0.041 C 
HETATM    5  C10 UNL     1      22.755   2.992  20.738  1.00  0.00     0.098 C 
HETATM    6  C11 UNL     1      22.036   2.639  22.052  1.00  0.00     0.057 C 
HETATM    7  C12 UNL     1      21.163   1.438  21.715  1.00  0.00     0.012 C 
HETATM    8  C13 UNL     1      22.029   0.268  21.300  1.00  0.00     0.046 C 
HETATM    9  C14 UNL     1      23.490   0.750  21.289  1.00  0.00     0.292 C 
HETATM   10  C15 UNL     1      23.530   1.828  20.256  1.00  0.00     0.139 C 
HETATM   11  N1  UNL     1      23.781   1.137  22.629  1.00  0.00     0.017 N 
HETATM   12  C16 UNL     1      23.336   0.035  23.505  1.00  0.00     0.357 C 
HETATM   13  O3  UNL     1      25.097   1.275  22.926  1.00  0.00    -0.064 OA
HETATM   14  C17 UNL     1      23.058   2.302  23.080  1.00  0.00     0.319 C 
ENDROOT
BRANCH   1  15
HETATM   15  C5  UNL     1      25.348   1.147  18.727  1.00  0.00    -0.148 C 
BRANCH  15  16
HETATM   16  C4  UNL     1      25.744   0.302  17.895  1.00  0.00     0.051 C 
BRANCH  16  17
HETATM   17  C3  UNL     1      25.190  -0.329  16.725  1.00  0.00     0.003 C 
BRANCH  17  18
HETATM   18  C2  UNL     1      25.839  -0.906  15.769  1.00  0.00    -0.030 C 
HETATM   19  C1  UNL     1      27.287  -0.912  15.510  1.00  0.00     0.036 C 
ENDBRANCH  17  18
ENDBRANCH  16  17
ENDBRANCH  15  16
ENDBRANCH   1  15
BRANCH  10  20
HETATM   20  O2  UNL     1      22.790   1.283  19.169  1.00  0.00    -0.383 OA
ATOM     21  H2  UNL     1      23.437   0.825  18.645  1.00  0.00     0.210 HD
ENDBRANCH  10  20
BRANCH   5  22
HETATM   22  O1  UNL     1      21.685   3.320  19.868  1.00  0.00    -0.386 OA
ATOM     23  H1  UNL     1      21.099   3.854  20.391  1.00  0.00     0.210 HD
ENDBRANCH   5  22
TORSDOF 6
ENDMDL
MODEL 4
REMARK VINA RESULT: -6.115501261      2.413      3.387
REMARK  6 active torsions:
REMARK  status: ('A' for Active; 'I' for Inactive)
REMARK    1  A    between atoms: C2_2  and  C3_3 
REMARK    2  A    between atoms: C3_3  and  C4_4 
REMARK    3  A    between atoms: C4_4  and  C5_5 
REMARK    4  A    between atoms: C5_5  and  C6_6 
REMARK    5  A    between atoms: C10_10  and  O1_11 
REMARK    6  A    between atoms: C15_17  and  O2_18 
ROOT
HETATM    1  C6  UNL     1      23.216   3.787  21.258  1.00  0.00     0.097 C 
HETATM    2  C7  UNL     1      22.772   5.018  21.920  1.00  0.00     0.020 C 
HETATM    3  C8  UNL     1      21.457   4.990  22.609  1.00  0.00     0.004 C 
HETATM    4  C9  UNL     1      21.462   3.746  23.473  1.00  0.00     0.041 C 
HETATM    5  C10 UNL     1      21.331   2.605  22.490  1.00  0.00     0.098 C 
HETATM    6  C11 UNL     1      21.270   1.258  23.232  1.00  0.00     0.057 C 
HETATM    7  C12 UNL     1      20.974   0.224  22.154  1.00  0.00     0.012 C 
HETATM    8  C13 UNL     1      22.106   0.182  21.151  1.00  0.00     0.046 C 
HETATM    9  C14 UNL     1      23.119   1.271  21.545  1.00  0.00     0.292 C 
HETATM   10  C15 UNL     1      22.364   2.555  21.432  1.00  0.00     0.139 C 
HETATM   11  N1  UNL     1      23.587   0.915  22.843  1.00  0.00     0.017 N 
HETATM   12  C16 UNL     1      23.965  -0.511  22.791  1.00  0.00     0.357 C 
HETATM   13  O3  UNL     1      24.722   1.536  23.247  1.00  0.00    -0.064 OA
HETATM   14  C17 UNL     1      22.587   1.011  23.880  1.00  0.00     0.319 C 
ENDROOT
BRANCH   1  15
HETATM   15  C5  UNL     1      23.751   3.956  19.943  1.00  0.00    -0.148 C 
BRANCH  15  16
HETATM   16  C4  UNL     1      24.220   4.103  18.794  1.00  0.00     0.051 C 
BRANCH  16  17
HETATM   17  C3  UNL     1      24.255   5.166  17.823  1.00  0.00     0.003 C 
BRANCH  17  18
HETATM   18  C2  UNL     1      24.733   5.113  16.626  1.00  0.00    -0.030 C 
HETATM   19  C1  UNL     1      24.656   6.121  15.557  1.00  0.00     0.036 C 
ENDBRANCH  17  18
ENDBRANCH  16  17
ENDBRANCH  15  16
ENDBRANCH   1  15
BRANCH  10  20
HETATM   20  O2  UNL     1      21.663   2.429  20.200  1.00  0.00    -0.383 OA
ATOM     21  H2  UNL     1      22.070   3.069  19.628  1.00  0.00     0.210 HD
ENDBRANCH  10  20
BRANCH   5  22
HETATM   22  O1  UNL     1      20.023   2.731  21.955  1.00  0.00    -0.386 OA
ATOM     23  H1  UNL     1      19.501   2.095  22.430  1.00  0.00     0.210 HD
ENDBRANCH   5  22
TORSDOF 6
ENDMDL
MODEL 5
REMARK VINA RESULT: -6.091305879      2.557      4.564
REMARK  6 active torsions:
REMARK  status: ('A' for Active; 'I' for Inactive)
REMARK    1  A    between atoms: C2_2  and  C3_3 
REMARK    2  A    between atoms: C3_3  and  C4_4 
REMARK    3  A    between atoms: C4_4  and  C5_5 
REMARK    4  A    between atoms: C5_5  and  C6_6 
REMARK    5  A    between atoms: C10_10  and  O1_11 
REMARK    6  A    between atoms: C15_17  and  O2_18 
ROOT
HETATM    1  C6  UNL     1      23.302   1.971  19.668  1.00  0.00     0.097 C 
HETATM    2  C7  UNL     1      23.531   1.000  18.593  1.00  0.00     0.020 C 
HETATM    3  C8  UNL     1      24.098  -0.319  18.970  1.00  0.00     0.004 C 
HETATM    4  C9  UNL     1      23.267  -0.815  20.135  1.00  0.00     0.041 C 
HETATM    5  C10 UNL     1      23.689   0.056  21.297  1.00  0.00     0.098 C 
HETATM    6  C11 UNL     1      22.957  -0.368  22.583  1.00  0.00     0.057 C 
HETATM    7  C12 UNL     1      23.588   0.466  23.690  1.00  0.00     0.012 C 
HETATM    8  C13 UNL     1      23.334   1.936  23.441  1.00  0.00     0.046 C 
HETATM    9  C14 UNL     1      22.592   2.061  22.099  1.00  0.00     0.292 C 
HETATM   10  C15 UNL     1      23.541   1.512  21.085  1.00  0.00     0.139 C 
HETATM   11  N1  UNL     1      21.362   1.362  22.269  1.00  0.00     0.017 N 
HETATM   12  C16 UNL     1      20.764   1.839  23.532  1.00  0.00     0.357 C 
HETATM   13  O3  UNL     1      20.408   1.621  21.341  1.00  0.00    -0.064 OA
HETATM   14  C17 UNL     1      21.508  -0.065  22.428  1.00  0.00     0.319 C 
ENDROOT
BRANCH   1  15
HETATM   15  C5  UNL     1      23.739   3.304  19.395  1.00  0.00    -0.148 C 
BRANCH  15  16
HETATM   16  C4  UNL     1      24.121   4.470  19.157  1.00  0.00     0.051 C 
BRANCH  16  17
HETATM   17  C3  UNL     1      24.161   5.325  17.999  1.00  0.00     0.003 C 
BRANCH  17  18
HETATM   18  C2  UNL     1      24.692   5.061  16.853  1.00  0.00    -0.030 C 
HETATM   19  C1  UNL     1      24.810   5.926  15.669  1.00  0.00     0.036 C 
ENDBRANCH  17  18
ENDBRANCH  16  17
ENDBRANCH  15  16
ENDBRANCH   1  15
BRANCH  10  20
HETATM   20  O2  UNL     1      24.791   2.093  21.441  1.00  0.00    -0.383 OA
ATOM     21  H2  UNL     1      24.560   2.882  21.916  1.00  0.00     0.210 HD
ENDBRANCH  10  20
BRANCH   5  22
HETATM   22  O1  UNL     1      25.033  -0.313  21.560  1.00  0.00    -0.386 OA
ATOM     23  H1  UNL     1      25.442   0.476  21.897  1.00  0.00     0.210 HD
ENDBRANCH   5  22
TORSDOF 6
ENDMDL
