MODEL 1
REMARK VINA RESULT: -9.699922514      0.000      0.000
REMARK  2 active torsions:
REMARK  status: ('A' for Active; 'I' for Inactive)
REMARK    1  A    between atoms: C1_4  and  C2_6 
REMARK    2  A    between atoms: C7_11  and  N3_12 
ROOT
HETATM    1  C2  UNL     1      24.948   3.920  18.432  1.00  0.00     0.018 C 
HETATM    2  C3  UNL     1      25.389   3.775  19.893  1.00  0.00     0.017 C 
HETATM    3  C4  UNL     1      24.218   3.202  20.631  1.00  0.00     0.006 C 
HETATM    4  C5  UNL     1      23.067   3.235  19.628  1.00  0.00    -0.012 C 
HETATM    5  C6  UNL     1      22.483   4.603  19.648  1.00  0.00     0.029 C 
HETATM    6  C7  UNL     1      23.048   5.576  18.692  1.00  0.00     0.081 C 
HETATM    7  C17 UNL     1      24.471   5.327  18.275  1.00  0.00     0.042 C 
HETATM    8  C18 UNL     1      23.824   2.945  18.325  1.00  0.00     0.021 C 
ENDROOT
BRANCH   6   9
HETATM    9  N3  UNL     1      22.991   6.897  19.206  1.00  0.00    -0.403 N 
HETATM   10  C8  UNL     1      22.591   7.060  20.536  1.00  0.00     0.117 C 
HETATM   11  C9  UNL     1      21.926   8.435  20.685  1.00  0.00     0.020 C 
HETATM   12  C10 UNL     1      20.822   8.599  19.662  1.00  0.00     0.008 C 
HETATM   13  C11 UNL     1      21.308   8.399  18.257  1.00  0.00     0.008 C 
HETATM   14  C12 UNL     1      21.271   9.723  17.521  1.00  0.00     0.007 C 
HETATM   15  C16 UNL     1      22.755   7.956  18.314  1.00  0.00     0.083 C 
HETATM   16  C13 UNL     1      21.937   9.671  16.180  1.00  0.00     0.001 C 
HETATM   17  C14 UNL     1      23.313   9.064  16.233  1.00  0.00     0.002 C 
HETATM   18  C15 UNL     1      23.263   7.704  16.934  1.00  0.00     0.025 C 
ENDBRANCH   6   9
BRANCH   1  19
HETATM   19  C1  UNL     1      26.098   3.642  17.582  1.00  0.00     0.095 C 
HETATM   20  N1  UNL     1      26.230   4.216  16.439  1.00  0.00    -0.390 N 
ATOM     21  H12 UNL     1      27.036   4.022  15.844  1.00  0.00     0.157 HD
ATOM     22  H11 UNL     1      25.511   4.875  16.141  1.00  0.00     0.157 HD
HETATM   23  N2  UNL     1      27.094   2.732  17.993  1.00  0.00    -0.087 NA
ENDBRANCH   1  19
TORSDOF 2
ENDMDL
MODEL 2
REMARK VINA RESULT: -8.859102837      1.939      4.143
REMARK  2 active torsions:
REMARK  status: ('A' for Active; 'I' for Inactive)
REMARK    1  A    between atoms: C1_4  and  C2_6 
REMARK    2  A    between atoms: C7_11  and  N3_12 
ROOT
HETATM    1  C2  UNL     1      24.639   6.073  16.667  1.00  0.00     0.018 C 
HETATM    2  C3  UNL     1      23.890   6.292  15.347  1.00  0.00     0.017 C 
HETATM    3  C4  UNL     1      24.072   7.738  14.997  1.00  0.00     0.006 C 
HETATM    4  C5  UNL     1      24.732   8.361  16.226  1.00  0.00    -0.012 C 
HETATM    5  C6  UNL     1      23.661   8.675  17.209  1.00  0.00     0.029 C 
HETATM    6  C7  UNL     1      23.338   7.621  18.193  1.00  0.00     0.081 C 
HETATM    7  C17 UNL     1      23.624   6.212  17.754  1.00  0.00     0.042 C 
HETATM    8  C18 UNL     1      25.619   7.196  16.685  1.00  0.00     0.021 C 
ENDROOT
BRANCH   6   9
HETATM    9  N3  UNL     1      21.971   7.670  18.571  1.00  0.00    -0.403 N 
HETATM   10  C8  UNL     1      21.125   8.514  17.844  1.00  0.00     0.117 C 
HETATM   11  C9  UNL     1      19.982   8.971  18.760  1.00  0.00     0.020 C 
HETATM   12  C10 UNL     1      20.537   9.569  20.037  1.00  0.00     0.008 C 
HETATM   13  C11 UNL     1      21.447   8.623  20.763  1.00  0.00     0.008 C 
HETATM   14  C12 UNL     1      20.783   8.179  22.051  1.00  0.00     0.007 C 
HETATM   15  C16 UNL     1      21.633   7.389  19.905  1.00  0.00     0.083 C 
HETATM   16  C13 UNL     1      21.518   7.071  22.742  1.00  0.00     0.001 C 
HETATM   17  C14 UNL     1      21.847   5.925  21.824  1.00  0.00     0.002 C 
HETATM   18  C15 UNL     1      22.568   6.441  20.576  1.00  0.00     0.025 C 
ENDBRANCH   6   9
BRANCH   1  19
HETATM   19  C1  UNL     1      25.220   4.736  16.640  1.00  0.00     0.095 C 
HETATM   20  N1  UNL     1      26.425   4.547  16.235  1.00  0.00    -0.390 N 
ATOM     21  H12 UNL     1      26.832   3.612  16.216  1.00  0.00     0.157 HD
ATOM     22  H11 UNL     1      26.968   5.357  15.934  1.00  0.00     0.157 HD
HETATM   23  N2  UNL     1      24.470   3.616  17.057  1.00  0.00    -0.087 NA
ENDBRANCH   1  19
TORSDOF 2
ENDMDL
MODEL 3
REMARK VINA RESULT: -7.905688142      1.933      4.039
REMARK  2 active torsions:
REMARK  status: ('A' for Active; 'I' for Inactive)
REMARK    1  A    between atoms: C1_4  and  C2_6 
REMARK    2  A    between atoms: C7_11  and  N3_12 
ROOT
HETATM    1  C2  UNL     1      22.551   5.461  20.835  1.00  0.00     0.018 C 
HETATM    2  C3  UNL     1      22.110   4.085  20.320  1.00  0.00     0.017 C 
HETATM    3  C4  UNL     1      23.366   3.350  19.958  1.00  0.00     0.006 C 
HETATM    4  C5  UNL     1      24.476   4.393  20.067  1.00  0.00    -0.012 C 
HETATM    5  C6  UNL     1      24.499   5.171  18.799  1.00  0.00     0.029 C 
HETATM    6  C7  UNL     1      23.665   6.390  18.758  1.00  0.00     0.081 C 
HETATM    7  C17 UNL     1      22.470   6.391  19.670  1.00  0.00     0.042 C 
HETATM    8  C18 UNL     1      23.963   5.224  21.250  1.00  0.00     0.021 C 
ENDROOT
BRANCH   6   9
HETATM    9  N3  UNL     1      23.189   6.645  17.447  1.00  0.00    -0.403 N 
HETATM   10  C8  UNL     1      23.933   6.140  16.375  1.00  0.00     0.117 C 
HETATM   11  C9  UNL     1      23.720   7.050  15.158  1.00  0.00     0.020 C 
HETATM   12  C10 UNL     1      24.017   8.491  15.518  1.00  0.00     0.008 C 
HETATM   13  C11 UNL     1      23.200   8.969  16.681  1.00  0.00     0.008 C 
HETATM   14  C12 UNL     1      22.196   9.998  16.199  1.00  0.00     0.007 C 
HETATM   15  C16 UNL     1      22.413   7.795  17.225  1.00  0.00     0.083 C 
HETATM   16  C13 UNL     1      21.193  10.379  17.244  1.00  0.00     0.001 C 
HETATM   17  C14 UNL     1      20.547   9.186  17.897  1.00  0.00     0.002 C 
HETATM   18  C15 UNL     1      21.619   8.223  18.412  1.00  0.00     0.025 C 
ENDBRANCH   6   9
BRANCH   1  19
HETATM   19  C1  UNL     1      21.643   5.855  21.904  1.00  0.00     0.095 C 
HETATM   20  N1  UNL     1      21.428   7.095  22.167  1.00  0.00    -0.390 N 
ATOM     21  H12 UNL     1      20.793   7.371  22.915  1.00  0.00     0.157 HD
ATOM     22  H11 UNL     1      21.907   7.799  21.605  1.00  0.00     0.157 HD
HETATM   23  N2  UNL     1      20.980   4.881  22.681  1.00  0.00    -0.087 NA
ENDBRANCH   1  19
TORSDOF 2
ENDMDL
MODEL 4
REMARK VINA RESULT: -7.781045674      0.953      1.345
REMARK  2 active torsions:
REMARK  status: ('A' for Active; 'I' for Inactive)
REMARK    1  A    between atoms: C1_4  and  C2_6 
REMARK    2  A    between atoms: C7_11  and  N3_12 
ROOT
HETATM    1  C2  UNL     1      24.755   3.790  18.524  1.00  0.00     0.018 C 
HETATM    2  C3  UNL     1      25.385   3.369  19.857  1.00  0.00     0.017 C 
HETATM    3  C4  UNL     1      24.319   2.636  20.613  1.00  0.00     0.006 C 
HETATM    4  C5  UNL     1      23.045   2.841  19.796  1.00  0.00    -0.012 C 
HETATM    5  C6  UNL     1      22.476   4.165  20.164  1.00  0.00     0.029 C 
HETATM    6  C7  UNL     1      22.915   5.321  19.354  1.00  0.00     0.081 C 
HETATM    7  C17 UNL     1      24.268   5.189  18.713  1.00  0.00     0.042 C 
HETATM    8  C18 UNL     1      23.622   2.832  18.374  1.00  0.00     0.021 C 
ENDROOT
BRANCH   6   9
HETATM    9  N3  UNL     1      22.932   6.513  20.123  1.00  0.00    -0.403 N 
HETATM   10  C8  UNL     1      23.036   6.388  21.513  1.00  0.00     0.117 C 
HETATM   11  C9  UNL     1      22.351   7.596  22.167  1.00  0.00     0.020 C 
HETATM   12  C10 UNL     1      20.939   7.749  21.643  1.00  0.00     0.008 C 
HETATM   13  C11 UNL     1      20.891   7.863  20.148  1.00  0.00     0.008 C 
HETATM   14  C12 UNL     1      20.469   9.267  19.767  1.00  0.00     0.007 C 
HETATM   15  C16 UNL     1      22.292   7.653  19.611  1.00  0.00     0.083 C 
HETATM   16  C13 UNL     1      20.598   9.544  18.300  1.00  0.00     0.001 C 
HETATM   17  C14 UNL     1      21.947   9.164  17.749  1.00  0.00     0.002 C 
HETATM   18  C15 UNL     1      22.278   7.717  18.121  1.00  0.00     0.025 C 
ENDBRANCH   6   9
BRANCH   1  19
HETATM   19  C1  UNL     1      25.781   3.711  17.493  1.00  0.00     0.095 C 
HETATM   20  N1  UNL     1      25.556   4.136  16.301  1.00  0.00    -0.390 N 
ATOM     21  H12 UNL     1      26.274   4.080  15.579  1.00  0.00     0.157 HD
ATOM     22  H11 UNL     1      24.640   4.533  16.093  1.00  0.00     0.157 HD
HETATM   23  N2  UNL     1      27.049   3.161  17.780  1.00  0.00    -0.087 NA
ENDBRANCH   1  19
TORSDOF 2
ENDMDL
MODEL 5
REMARK VINA RESULT: -7.667690974      3.340      4.532
REMARK  2 active torsions:
REMARK  status: ('A' for Active; 'I' for Inactive)
REMARK    1  A    between atoms: C1_4  and  C2_6 
REMARK    2  A    between atoms: C7_11  and  N3_12 
ROOT
HETATM    1  C2  UNL     1      25.515   2.483  18.317  1.00  0.00     0.018 C 
HETATM    2  C3  UNL     1      25.385   0.987  18.632  1.00  0.00     0.017 C 
HETATM    3  C4  UNL     1      23.984   0.601  18.265  1.00  0.00     0.006 C 
HETATM    4  C5  UNL     1      23.281   1.921  17.955  1.00  0.00    -0.012 C 
HETATM    5  C6  UNL     1      22.839   2.516  19.244  1.00  0.00     0.029 C 
HETATM    6  C7  UNL     1      23.787   3.435  19.906  1.00  0.00     0.081 C 
HETATM    7  C17 UNL     1      25.240   3.207  19.594  1.00  0.00     0.042 C 
HETATM    8  C18 UNL     1      24.433   2.707  17.316  1.00  0.00     0.021 C 
ENDROOT
BRANCH   6   9
HETATM    9  N3  UNL     1      23.652   3.387  21.318  1.00  0.00    -0.403 N 
HETATM   10  C8  UNL     1      23.754   2.138  21.938  1.00  0.00     0.117 C 
HETATM   11  C9  UNL     1      22.921   2.160  23.227  1.00  0.00     0.020 C 
HETATM   12  C10 UNL     1      21.507   2.614  22.933  1.00  0.00     0.008 C 
HETATM   13  C11 UNL     1      21.464   3.952  22.256  1.00  0.00     0.008 C 
HETATM   14  C12 UNL     1      20.880   4.976  23.208  1.00  0.00     0.007 C 
HETATM   15  C16 UNL     1      22.885   4.377  21.954  1.00  0.00     0.083 C 
HETATM   16  C13 UNL     1      20.993   6.382  22.702  1.00  0.00     0.001 C 
HETATM   17  C14 UNL     1      22.383   6.729  22.242  1.00  0.00     0.002 C 
HETATM   18  C15 UNL     1      22.882   5.686  21.240  1.00  0.00     0.025 C 
ENDBRANCH   6   9
BRANCH   1  19
HETATM   19  C1  UNL     1      26.870   2.728  17.839  1.00  0.00     0.095 C 
HETATM   20  N1  UNL     1      27.285   2.216  16.736  1.00  0.00    -0.390 N 
ATOM     21  H12 UNL     1      28.233   2.387  16.401  1.00  0.00     0.157 HD
ATOM     22  H11 UNL     1      26.641   1.634  16.199  1.00  0.00     0.157 HD
HETATM   23  N2  UNL     1      27.760   3.533  18.581  1.00  0.00    -0.087 NA
ENDBRANCH   1  19
TORSDOF 2
ENDMDL
