MODEL 1
REMARK VINA RESULT: -7.319249090      0.000      0.000
REMARK  18 active torsions:
REMARK  status: ('A' for Active; 'I' for Inactive)
REMARK    1  A    between atoms: C2_2  and  C3_3 
REMARK    2  A    between atoms: C3_3  and  C4_4 
REMARK    3  A    between atoms: C4_4  and  C5_5 
REMARK    4  A    between atoms: C5_5  and  C6_6 
REMARK    5  A    between atoms: C6_6  and  C11_14 
REMARK    6  A    between atoms: N1_7  and  C7_9 
REMARK    7  A    between atoms: C7_9  and  C8_10 
REMARK    8  A    between atoms: C7_9  and  C10_12 
REMARK    9  A    between atoms: C11_14  and  C12_15 
REMARK   10  A    between atoms: C11_14  and  N2_18 
REMARK   11  A    between atoms: C12_15  and  C13_16 
REMARK       I    between atoms: N2_18  and  C15_19 
REMARK   12  A    between atoms: C15_19  and  O2_21 
REMARK   13  A    between atoms: O2_21  and  C16_22 
REMARK   14  A    between atoms: C18_25  and  O3_26 
REMARK   15  A    between atoms: C22_31  and  O4_32 
REMARK   16  A    between atoms: C25_36  and  C27_38 
REMARK       I    between atoms: C27_38  and  N4_40 
REMARK   17  A    between atoms: N4_40  and  C28_42 
REMARK   18  A    between atoms: C28_42  and  C29_43 
ROOT
HETATM    1  C16 UNL     1      34.853  23.879  18.213  1.00  0.00     0.411 C 
HETATM    2  C17 UNL     1      33.555  22.910  18.090  1.00  0.00     0.130 C 
HETATM    3  N3  UNL     1      33.634  21.594  18.487  1.00  0.00    -0.334 N 
HETATM    4  C18 UNL     1      33.309  20.558  17.551  1.00  0.00     0.117 C 
HETATM    5  C19 UNL     1      33.728  19.254  18.010  1.00  0.00     0.086 C 
HETATM    6  C20 UNL     1      33.937  19.449  19.494  1.00  0.00     0.036 C 
HETATM    7  C21 UNL     1      33.929  20.928  19.717  1.00  0.00     0.122 C 
HETATM    8  C22 UNL     1      35.125  21.397  20.479  1.00  0.00     0.175 C 
HETATM    9  C23 UNL     1      35.868  22.364  19.624  1.00  0.00     0.262 A 
HETATM   10  C24 UNL     1      37.176  22.888  20.189  1.00  0.00     0.090 A 
HETATM   11  C25 UNL     1      36.489  24.264  20.000  1.00  0.00     0.241 A 
HETATM   12  C26 UNL     1      37.227  25.174  19.117  1.00  0.00     0.060 C 
HETATM   13  N5  UNL     1      35.292  23.687  19.536  1.00  0.00     0.149 N 
ENDROOT
BRANCH   1  14
HETATM   14  O2  UNL     1      34.132  25.045  17.981  1.00  0.00    -0.250 OA
BRANCH  14  15
HETATM   15  C15 UNL     1      34.704  26.212  17.356  1.00  0.00     0.442 C 
HETATM   16  N2  UNL     1      34.279  27.333  18.243  1.00  0.00    -0.348 NA
HETATM   17  O1  UNL     1      35.277  26.227  16.413  1.00  0.00    -0.221 OA
BRANCH  16  18
HETATM   18  C11 UNL     1      33.911  28.322  19.014  1.00  0.00     0.116 C 
BRANCH  18  19
HETATM   19  C6  UNL     1      34.299  29.790  18.854  1.00  0.00     0.043 C 
HETATM   20  N1  UNL     1      35.577  29.973  18.447  1.00  0.00    -0.382 N 
ATOM     21  H1  UNL     1      36.150  30.484  19.120  1.00  0.00     0.160 HD
BRANCH  19  22
HETATM   22  C5  UNL     1      33.046  30.438  18.325  1.00  0.00     0.060 C 
BRANCH  22  23
HETATM   23  C4  UNL     1      32.358  31.442  19.177  1.00  0.00     0.010 C 
BRANCH  23  24
HETATM   24  C3  UNL     1      31.059  31.975  18.744  1.00  0.00     0.026 C 
BRANCH  24  25
HETATM   25  C2  UNL     1      29.971  30.968  19.005  1.00  0.00    -0.037 C 
HETATM   26  C1  UNL     1      29.682  30.472  20.222  1.00  0.00     0.007 C 
ENDBRANCH  24  25
ENDBRANCH  23  24
ENDBRANCH  22  23
ENDBRANCH  19  22
BRANCH  20  27
HETATM   27  C7  UNL     1      36.259  29.612  17.309  1.00  0.00     0.114 C 
BRANCH  27  28
HETATM   28  C8  UNL     1      37.516  28.883  17.712  1.00  0.00    -0.012 C 
HETATM   29  C9  UNL     1      37.840  28.907  19.006  1.00  0.00     0.009 C 
ENDBRANCH  27  28
BRANCH  27  30
HETATM   30  C10 UNL     1      36.713  30.582  16.294  1.00  0.00     0.115 C 
HETATM   31  S1  UNL     1      37.110  29.840  14.646  1.00  0.00    -0.095 SA
ENDBRANCH  27  30
ENDBRANCH  20  27
ENDBRANCH  18  19
BRANCH  18  32
HETATM   32  C12 UNL     1      32.495  28.167  19.575  1.00  0.00     0.101 C 
BRANCH  32  33
HETATM   33  C13 UNL     1      32.648  27.838  21.065  1.00  0.00    -0.030 C 
HETATM   34  C14 UNL     1      32.623  28.829  21.933  1.00  0.00     0.007 C 
ENDBRANCH  32  33
ENDBRANCH  18  32
ENDBRANCH  16  18
ENDBRANCH  14  15
ENDBRANCH   1  14
BRANCH  11  35
HETATM   35  C27 UNL     1      36.300  24.853  21.348  1.00  0.00     0.257 C 
HETATM   36  O5  UNL     1      36.637  24.141  22.346  1.00  0.00    -0.271 OA
HETATM   37  N4  UNL     1      35.773  26.171  21.591  1.00  0.00    -0.355 N 
ATOM     38  H4  UNL     1      35.513  26.767  20.805  1.00  0.00     0.162 HD
BRANCH  37  39
HETATM   39  C28 UNL     1      35.614  26.644  22.922  1.00  0.00     0.149 C 
BRANCH  39  40
HETATM   40  C29 UNL     1      36.139  27.990  23.153  1.00  0.00    -0.018 C 
HETATM   41  C30 UNL     1      37.345  28.425  22.741  1.00  0.00     0.008 C 
ENDBRANCH  39  40
ENDBRANCH  37  39
ENDBRANCH  11  35
BRANCH   4  42
HETATM   42  O3  UNL     1      32.682  20.772  16.408  1.00  0.00    -0.349 OA
ATOM     43  H3  UNL     1      32.016  20.194  16.055  1.00  0.00     0.219 HD
ENDBRANCH   4  42
BRANCH   8  44
HETATM   44  O4  UNL     1      34.799  21.952  21.695  1.00  0.00    -0.391 OA
ATOM     45  H4  UNL     1      34.938  22.892  21.721  1.00  0.00     0.210 HD
ENDBRANCH   8  44
TORSDOF 18
ENDMDL
MODEL 2
REMARK VINA RESULT: -7.205607892      2.466      7.331
REMARK  18 active torsions:
REMARK  status: ('A' for Active; 'I' for Inactive)
REMARK    1  A    between atoms: C2_2  and  C3_3 
REMARK    2  A    between atoms: C3_3  and  C4_4 
REMARK    3  A    between atoms: C4_4  and  C5_5 
REMARK    4  A    between atoms: C5_5  and  C6_6 
REMARK    5  A    between atoms: C6_6  and  C11_14 
REMARK    6  A    between atoms: N1_7  and  C7_9 
REMARK    7  A    between atoms: C7_9  and  C8_10 
REMARK    8  A    between atoms: C7_9  and  C10_12 
REMARK    9  A    between atoms: C11_14  and  C12_15 
REMARK   10  A    between atoms: C11_14  and  N2_18 
REMARK   11  A    between atoms: C12_15  and  C13_16 
REMARK       I    between atoms: N2_18  and  C15_19 
REMARK   12  A    between atoms: C15_19  and  O2_21 
REMARK   13  A    between atoms: O2_21  and  C16_22 
REMARK   14  A    between atoms: C18_25  and  O3_26 
REMARK   15  A    between atoms: C22_31  and  O4_32 
REMARK   16  A    between atoms: C25_36  and  C27_38 
REMARK       I    between atoms: C27_38  and  N4_40 
REMARK   17  A    between atoms: N4_40  and  C28_42 
REMARK   18  A    between atoms: C28_42  and  C29_43 
ROOT
HETATM    1  C16 UNL     1      33.554  26.917  20.987  1.00  0.00     0.411 C 
HETATM    2  C17 UNL     1      32.711  27.458  19.709  1.00  0.00     0.130 C 
HETATM    3  N3  UNL     1      32.261  28.759  19.678  1.00  0.00    -0.334 N 
HETATM    4  C18 UNL     1      30.862  29.013  19.502  1.00  0.00     0.117 C 
HETATM    5  C19 UNL     1      30.513  30.385  19.794  1.00  0.00     0.086 C 
HETATM    6  C20 UNL     1      31.837  31.110  19.731  1.00  0.00     0.036 C 
HETATM    7  C21 UNL     1      32.887  30.043  19.722  1.00  0.00     0.122 C 
HETATM    8  C22 UNL     1      33.930  30.260  20.769  1.00  0.00     0.175 C 
HETATM    9  C23 UNL     1      33.919  29.084  21.684  1.00  0.00     0.262 A 
HETATM   10  C24 UNL     1      34.852  29.158  22.878  1.00  0.00     0.090 A 
HETATM   11  C25 UNL     1      35.422  27.849  22.275  1.00  0.00     0.241 A 
HETATM   12  C26 UNL     1      35.354  26.702  23.189  1.00  0.00     0.060 C 
HETATM   13  N5  UNL     1      34.552  27.891  21.169  1.00  0.00     0.149 N 
ENDROOT
BRANCH   1  14
HETATM   14  O2  UNL     1      33.961  25.748  20.353  1.00  0.00    -0.250 OA
BRANCH  14  15
HETATM   15  C15 UNL     1      33.395  24.455  20.649  1.00  0.00     0.442 C 
HETATM   16  N2  UNL     1      33.920  23.581  19.561  1.00  0.00    -0.348 NA
HETATM   17  O1  UNL     1      32.700  24.225  21.476  1.00  0.00    -0.221 OA
BRANCH  16  18
HETATM   18  C11 UNL     1      34.374  22.806  18.612  1.00  0.00     0.116 C 
BRANCH  18  19
HETATM   19  C6  UNL     1      35.727  22.922  17.916  1.00  0.00     0.043 C 
HETATM   20  N1  UNL     1      35.812  22.209  16.768  1.00  0.00    -0.382 N 
ATOM     21  H1  UNL     1      36.525  21.480  16.792  1.00  0.00     0.160 HD
BRANCH  19  22
HETATM   22  C5  UNL     1      36.138  24.351  18.163  1.00  0.00     0.060 C 
BRANCH  22  23
HETATM   23  C4  UNL     1      37.339  24.605  19.000  1.00  0.00     0.010 C 
BRANCH  23  24
HETATM   24  C3  UNL     1      37.178  24.747  20.453  1.00  0.00     0.026 C 
BRANCH  24  25
HETATM   25  C2  UNL     1      37.252  23.398  21.118  1.00  0.00    -0.037 C 
HETATM   26  C1  UNL     1      36.540  23.056  22.207  1.00  0.00     0.007 C 
ENDBRANCH  24  25
ENDBRANCH  23  24
ENDBRANCH  22  23
ENDBRANCH  19  22
BRANCH  20  27
HETATM   27  C7  UNL     1      35.130  22.271  15.576  1.00  0.00     0.114 C 
BRANCH  27  28
HETATM   28  C8  UNL     1      35.271  20.945  14.872  1.00  0.00    -0.012 C 
HETATM   29  C9  UNL     1      35.679  19.909  15.608  1.00  0.00     0.009 C 
ENDBRANCH  27  28
BRANCH  27  30
HETATM   30  C10 UNL     1      35.419  23.269  14.527  1.00  0.00     0.115 C 
HETATM   31  S1  UNL     1      34.461  24.845  14.682  1.00  0.00    -0.095 SA
ENDBRANCH  27  30
ENDBRANCH  20  27
ENDBRANCH  18  19
BRANCH  18  32
HETATM   32  C12 UNL     1      33.928  21.348  18.746  1.00  0.00     0.101 C 
BRANCH  32  33
HETATM   33  C13 UNL     1      34.551  20.816  20.043  1.00  0.00    -0.030 C 
HETATM   34  C14 UNL     1      34.178  19.630  20.480  1.00  0.00     0.007 C 
ENDBRANCH  32  33
ENDBRANCH  18  32
ENDBRANCH  16  18
ENDBRANCH  14  15
ENDBRANCH   1  14
BRANCH  11  35
HETATM   35  C27 UNL     1      36.817  28.126  21.857  1.00  0.00     0.257 C 
HETATM   36  O5  UNL     1      37.701  28.162  22.770  1.00  0.00    -0.271 OA
HETATM   37  N4  UNL     1      37.228  28.343  20.494  1.00  0.00    -0.355 N 
ATOM     38  H4  UNL     1      36.539  28.299  19.743  1.00  0.00     0.162 HD
BRANCH  37  39
HETATM   39  C28 UNL     1      38.590  28.616  20.192  1.00  0.00     0.149 C 
BRANCH  39  40
HETATM   40  C29 UNL     1      39.029  28.133  18.882  1.00  0.00    -0.018 C 
HETATM   41  C30 UNL     1      38.220  27.951  17.821  1.00  0.00     0.008 C 
ENDBRANCH  39  40
ENDBRANCH  37  39
ENDBRANCH  11  35
BRANCH   4  42
HETATM   42  O3  UNL     1      29.994  28.100  19.103  1.00  0.00    -0.349 OA
ATOM     43  H3  UNL     1      29.595  28.091  18.241  1.00  0.00     0.219 HD
ENDBRANCH   4  42
BRANCH   8  44
HETATM   44  O4  UNL     1      35.182  30.470  20.240  1.00  0.00    -0.391 OA
ATOM     45  H4  UNL     1      35.867  30.460  20.898  1.00  0.00     0.210 HD
ENDBRANCH   8  44
TORSDOF 18
ENDMDL
MODEL 3
REMARK VINA RESULT: -7.195434631      2.582      7.185
REMARK  18 active torsions:
REMARK  status: ('A' for Active; 'I' for Inactive)
REMARK    1  A    between atoms: C2_2  and  C3_3 
REMARK    2  A    between atoms: C3_3  and  C4_4 
REMARK    3  A    between atoms: C4_4  and  C5_5 
REMARK    4  A    between atoms: C5_5  and  C6_6 
REMARK    5  A    between atoms: C6_6  and  C11_14 
REMARK    6  A    between atoms: N1_7  and  C7_9 
REMARK    7  A    between atoms: C7_9  and  C8_10 
REMARK    8  A    between atoms: C7_9  and  C10_12 
REMARK    9  A    between atoms: C11_14  and  C12_15 
REMARK   10  A    between atoms: C11_14  and  N2_18 
REMARK   11  A    between atoms: C12_15  and  C13_16 
REMARK       I    between atoms: N2_18  and  C15_19 
REMARK   12  A    between atoms: C15_19  and  O2_21 
REMARK   13  A    between atoms: O2_21  and  C16_22 
REMARK   14  A    between atoms: C18_25  and  O3_26 
REMARK   15  A    between atoms: C22_31  and  O4_32 
REMARK   16  A    between atoms: C25_36  and  C27_38 
REMARK       I    between atoms: C27_38  and  N4_40 
REMARK   17  A    between atoms: N4_40  and  C28_42 
REMARK   18  A    between atoms: C28_42  and  C29_43 
ROOT
HETATM    1  C16 UNL     1      33.623  27.033  20.998  1.00  0.00     0.411 C 
HETATM    2  C17 UNL     1      32.719  27.547  19.750  1.00  0.00     0.130 C 
HETATM    3  N3  UNL     1      32.320  28.863  19.681  1.00  0.00    -0.334 N 
HETATM    4  C18 UNL     1      30.924  29.168  19.583  1.00  0.00     0.117 C 
HETATM    5  C19 UNL     1      30.649  30.566  19.826  1.00  0.00     0.086 C 
HETATM    6  C20 UNL     1      31.994  31.229  19.641  1.00  0.00     0.036 C 
HETATM    7  C21 UNL     1      32.998  30.120  19.619  1.00  0.00     0.122 C 
HETATM    8  C22 UNL     1      34.116  30.342  20.585  1.00  0.00     0.175 C 
HETATM    9  C23 UNL     1      34.119  29.214  21.558  1.00  0.00     0.262 A 
HETATM   10  C24 UNL     1      35.130  29.305  22.685  1.00  0.00     0.090 A 
HETATM   11  C25 UNL     1      35.607  27.946  22.114  1.00  0.00     0.241 A 
HETATM   12  C26 UNL     1      35.555  26.848  23.087  1.00  0.00     0.060 C 
HETATM   13  N5  UNL     1      34.669  27.971  21.065  1.00  0.00     0.149 N 
ENDROOT
BRANCH   1  14
HETATM   14  O2  UNL     1      33.941  25.818  20.399  1.00  0.00    -0.250 OA
BRANCH  14  15
HETATM   15  C15 UNL     1      33.270  24.583  20.724  1.00  0.00     0.442 C 
HETATM   16  N2  UNL     1      33.548  23.710  19.547  1.00  0.00    -0.348 NA
HETATM   17  O1  UNL     1      32.664  24.392  21.626  1.00  0.00    -0.221 OA
BRANCH  16  18
HETATM   18  C11 UNL     1      33.786  22.937  18.521  1.00  0.00     0.116 C 
BRANCH  18  19
HETATM   19  C6  UNL     1      34.737  23.230  17.364  1.00  0.00     0.043 C 
HETATM   20  N1  UNL     1      34.110  23.444  16.184  1.00  0.00    -0.382 N 
ATOM     21  H1  UNL     1      34.352  22.762  15.464  1.00  0.00     0.160 HD
BRANCH  19  22
HETATM   22  C5  UNL     1      35.837  24.041  18.000  1.00  0.00     0.060 C 
BRANCH  22  23
HETATM   23  C4  UNL     1      37.151  23.387  18.233  1.00  0.00     0.010 C 
BRANCH  23  24
HETATM   24  C3  UNL     1      37.482  22.913  19.583  1.00  0.00     0.026 C 
BRANCH  24  25
HETATM   25  C2  UNL     1      36.959  23.877  20.615  1.00  0.00    -0.037 C 
HETATM   26  C1  UNL     1      36.684  23.539  21.888  1.00  0.00     0.007 C 
ENDBRANCH  24  25
ENDBRANCH  23  24
ENDBRANCH  22  23
ENDBRANCH  19  22
BRANCH  20  27
HETATM   27  C7  UNL     1      33.212  24.394  15.759  1.00  0.00     0.114 C 
BRANCH  27  28
HETATM   28  C8  UNL     1      33.770  25.070  14.532  1.00  0.00    -0.012 C 
HETATM   29  C9  UNL     1      34.622  26.077  14.732  1.00  0.00     0.009 C 
ENDBRANCH  27  28
BRANCH  27  30
HETATM   30  C10 UNL     1      32.751  25.510  16.609  1.00  0.00     0.115 C 
HETATM   31  S1  UNL     1      31.019  25.332  17.237  1.00  0.00    -0.095 SA
ENDBRANCH  27  30
ENDBRANCH  20  27
ENDBRANCH  18  19
BRANCH  18  32
HETATM   32  C12 UNL     1      33.745  21.444  18.857  1.00  0.00     0.101 C 
BRANCH  32  33
HETATM   33  C13 UNL     1      34.178  21.312  20.323  1.00  0.00    -0.030 C 
HETATM   34  C14 UNL     1      34.417  20.108  20.801  1.00  0.00     0.007 C 
ENDBRANCH  32  33
ENDBRANCH  18  32
ENDBRANCH  16  18
ENDBRANCH  14  15
ENDBRANCH   1  14
BRANCH  11  35
HETATM   35  C27 UNL     1      36.982  28.142  21.594  1.00  0.00     0.257 C 
HETATM   36  O5  UNL     1      37.941  27.990  22.415  1.00  0.00    -0.271 OA
HETATM   37  N4  UNL     1      37.293  28.481  20.229  1.00  0.00    -0.355 N 
ATOM     38  H4  UNL     1      36.540  28.590  19.549  1.00  0.00     0.162 HD
BRANCH  37  39
HETATM   39  C28 UNL     1      38.644  28.664  19.827  1.00  0.00     0.149 C 
BRANCH  39  40
HETATM   40  C29 UNL     1      39.047  27.858  18.674  1.00  0.00    -0.018 C 
HETATM   41  C30 UNL     1      39.027  26.512  18.633  1.00  0.00     0.008 C 
ENDBRANCH  39  40
ENDBRANCH  37  39
ENDBRANCH  11  35
BRANCH   4  42
HETATM   42  O3  UNL     1      29.996  28.274  19.287  1.00  0.00    -0.349 OA
ATOM     43  H3  UNL     1      29.078  28.371  19.515  1.00  0.00     0.219 HD
ENDBRANCH   4  42
BRANCH   8  44
HETATM   44  O4  UNL     1      35.338  30.473  19.967  1.00  0.00    -0.391 OA
ATOM     45  H4  UNL     1      36.057  30.157  20.501  1.00  0.00     0.210 HD
ENDBRANCH   8  44
TORSDOF 18
ENDMDL
MODEL 4
REMARK VINA RESULT: -7.057905438      1.111      2.827
REMARK  18 active torsions:
REMARK  status: ('A' for Active; 'I' for Inactive)
REMARK    1  A    between atoms: C2_2  and  C3_3 
REMARK    2  A    between atoms: C3_3  and  C4_4 
REMARK    3  A    between atoms: C4_4  and  C5_5 
REMARK    4  A    between atoms: C5_5  and  C6_6 
REMARK    5  A    between atoms: C6_6  and  C11_14 
REMARK    6  A    between atoms: N1_7  and  C7_9 
REMARK    7  A    between atoms: C7_9  and  C8_10 
REMARK    8  A    between atoms: C7_9  and  C10_12 
REMARK    9  A    between atoms: C11_14  and  C12_15 
REMARK   10  A    between atoms: C11_14  and  N2_18 
REMARK   11  A    between atoms: C12_15  and  C13_16 
REMARK       I    between atoms: N2_18  and  C15_19 
REMARK   12  A    between atoms: C15_19  and  O2_21 
REMARK   13  A    between atoms: O2_21  and  C16_22 
REMARK   14  A    between atoms: C18_25  and  O3_26 
REMARK   15  A    between atoms: C22_31  and  O4_32 
REMARK   16  A    between atoms: C25_36  and  C27_38 
REMARK       I    between atoms: C27_38  and  N4_40 
REMARK   17  A    between atoms: N4_40  and  C28_42 
REMARK   18  A    between atoms: C28_42  and  C29_43 
ROOT
HETATM    1  C16 UNL     1      35.111  23.902  18.178  1.00  0.00     0.411 C 
HETATM    2  C17 UNL     1      33.767  23.005  18.004  1.00  0.00     0.130 C 
HETATM    3  N3  UNL     1      33.749  21.696  18.428  1.00  0.00    -0.334 N 
HETATM    4  C18 UNL     1      33.412  20.661  17.495  1.00  0.00     0.117 C 
HETATM    5  C19 UNL     1      33.731  19.345  17.998  1.00  0.00     0.086 C 
HETATM    6  C20 UNL     1      33.875  19.558  19.487  1.00  0.00     0.036 C 
HETATM    7  C21 UNL     1      33.941  21.040  19.683  1.00  0.00     0.122 C 
HETATM    8  C22 UNL     1      35.122  21.455  20.498  1.00  0.00     0.175 C 
HETATM    9  C23 UNL     1      35.963  22.361  19.666  1.00  0.00     0.262 A 
HETATM   10  C24 UNL     1      37.268  22.820  20.289  1.00  0.00     0.090 A 
HETATM   11  C25 UNL     1      36.672  24.229  20.041  1.00  0.00     0.241 A 
HETATM   12  C26 UNL     1      37.507  25.078  19.181  1.00  0.00     0.060 C 
HETATM   13  N5  UNL     1      35.469  23.712  19.525  1.00  0.00     0.149 N 
ENDROOT
BRANCH   1  14
HETATM   14  O2  UNL     1      34.470  25.101  17.887  1.00  0.00    -0.250 OA
BRANCH  14  15
HETATM   15  C15 UNL     1      34.883  25.973  16.815  1.00  0.00     0.442 C 
HETATM   16  N2  UNL     1      35.059  27.296  17.481  1.00  0.00    -0.348 NA
HETATM   17  O1  UNL     1      34.986  25.691  15.753  1.00  0.00    -0.221 OA
BRANCH  16  18
HETATM   18  C11 UNL     1      35.215  28.459  18.056  1.00  0.00     0.116 C 
BRANCH  18  19
HETATM   19  C6  UNL     1      34.457  28.979  19.274  1.00  0.00     0.043 C 
HETATM   20  N1  UNL     1      34.020  30.253  19.140  1.00  0.00    -0.382 N 
ATOM     21  H1  UNL     1      34.420  30.896  19.824  1.00  0.00     0.160 HD
BRANCH  19  22
HETATM   22  C5  UNL     1      33.696  27.775  19.765  1.00  0.00     0.060 C 
BRANCH  22  23
HETATM   23  C4  UNL     1      32.434  27.997  20.518  1.00  0.00     0.010 C 
BRANCH  23  24
HETATM   24  C3  UNL     1      31.155  27.941  19.798  1.00  0.00     0.026 C 
BRANCH  24  25
HETATM   25  C2  UNL     1      31.179  26.833  18.780  1.00  0.00    -0.037 C 
HETATM   26  C1  UNL     1      30.708  25.593  19.005  1.00  0.00     0.007 C 
ENDBRANCH  24  25
ENDBRANCH  23  24
ENDBRANCH  22  23
ENDBRANCH  19  22
BRANCH  20  27
HETATM   27  C7  UNL     1      33.144  30.856  18.268  1.00  0.00     0.114 C 
BRANCH  27  28
HETATM   28  C8  UNL     1      32.056  31.528  19.067  1.00  0.00    -0.012 C 
HETATM   29  C9  UNL     1      31.019  32.018  18.384  1.00  0.00     0.009 C 
ENDBRANCH  27  28
BRANCH  27  30
HETATM   30  C10 UNL     1      32.418  30.122  17.213  1.00  0.00     0.115 C 
HETATM   31  S1  UNL     1      33.086  30.373  15.505  1.00  0.00    -0.095 SA
ENDBRANCH  27  30
ENDBRANCH  20  27
ENDBRANCH  18  19
BRANCH  18  32
HETATM   32  C12 UNL     1      36.659  28.967  18.027  1.00  0.00     0.101 C 
BRANCH  32  33
HETATM   33  C13 UNL     1      37.197  28.840  19.458  1.00  0.00    -0.030 C 
HETATM   34  C14 UNL     1      38.489  28.645  19.628  1.00  0.00     0.007 C 
ENDBRANCH  32  33
ENDBRANCH  18  32
ENDBRANCH  16  18
ENDBRANCH  14  15
ENDBRANCH   1  14
BRANCH  11  35
HETATM   35  C27 UNL     1      36.449  24.856  21.366  1.00  0.00     0.257 C 
HETATM   36  O5  UNL     1      36.715  24.154  22.393  1.00  0.00    -0.271 OA
HETATM   37  N4  UNL     1      35.966  26.198  21.558  1.00  0.00    -0.355 N 
ATOM     38  H4  UNL     1      35.764  26.786  20.748  1.00  0.00     0.162 HD
BRANCH  37  39
HETATM   39  C28 UNL     1      35.769  26.708  22.870  1.00  0.00     0.149 C 
BRANCH  39  40
HETATM   40  C29 UNL     1      36.249  28.076  23.067  1.00  0.00    -0.018 C 
HETATM   41  C30 UNL     1      35.538  29.187  22.794  1.00  0.00     0.008 C 
ENDBRANCH  39  40
ENDBRANCH  37  39
ENDBRANCH  11  35
BRANCH   4  42
HETATM   42  O3  UNL     1      32.858  20.887  16.317  1.00  0.00    -0.349 OA
ATOM     43  H3  UNL     1      32.627  20.200  15.702  1.00  0.00     0.219 HD
ENDBRANCH   4  42
BRANCH   8  44
HETATM   44  O4  UNL     1      34.767  22.053  21.686  1.00  0.00    -0.391 OA
ATOM     45  H4  UNL     1      35.007  21.536  22.445  1.00  0.00     0.210 HD
ENDBRANCH   8  44
TORSDOF 18
ENDMDL
MODEL 5
REMARK VINA RESULT: -7.020891274      1.674      3.033
REMARK  18 active torsions:
REMARK  status: ('A' for Active; 'I' for Inactive)
REMARK    1  A    between atoms: C2_2  and  C3_3 
REMARK    2  A    between atoms: C3_3  and  C4_4 
REMARK    3  A    between atoms: C4_4  and  C5_5 
REMARK    4  A    between atoms: C5_5  and  C6_6 
REMARK    5  A    between atoms: C6_6  and  C11_14 
REMARK    6  A    between atoms: N1_7  and  C7_9 
REMARK    7  A    between atoms: C7_9  and  C8_10 
REMARK    8  A    between atoms: C7_9  and  C10_12 
REMARK    9  A    between atoms: C11_14  and  C12_15 
REMARK   10  A    between atoms: C11_14  and  N2_18 
REMARK   11  A    between atoms: C12_15  and  C13_16 
REMARK       I    between atoms: N2_18  and  C15_19 
REMARK   12  A    between atoms: C15_19  and  O2_21 
REMARK   13  A    between atoms: O2_21  and  C16_22 
REMARK   14  A    between atoms: C18_25  and  O3_26 
REMARK   15  A    between atoms: C22_31  and  O4_32 
REMARK   16  A    between atoms: C25_36  and  C27_38 
REMARK       I    between atoms: C27_38  and  N4_40 
REMARK   17  A    between atoms: N4_40  and  C28_42 
REMARK   18  A    between atoms: C28_42  and  C29_43 
ROOT
HETATM    1  C16 UNL     1      35.131  24.015  18.110  1.00  0.00     0.411 C 
HETATM    2  C17 UNL     1      33.788  23.105  18.014  1.00  0.00     0.130 C 
HETATM    3  N3  UNL     1      33.791  21.816  18.496  1.00  0.00    -0.334 N 
HETATM    4  C18 UNL     1      33.435  20.739  17.620  1.00  0.00     0.117 C 
HETATM    5  C19 UNL     1      33.777  19.448  18.171  1.00  0.00     0.086 C 
HETATM    6  C20 UNL     1      33.961  19.728  19.645  1.00  0.00     0.036 C 
HETATM    7  C21 UNL     1      34.023  21.218  19.773  1.00  0.00     0.122 C 
HETATM    8  C22 UNL     1      35.223  21.675  20.535  1.00  0.00     0.175 C 
HETATM    9  C23 UNL     1      36.035  22.547  19.640  1.00  0.00     0.262 A 
HETATM   10  C24 UNL     1      37.354  23.041  20.205  1.00  0.00     0.090 A 
HETATM   11  C25 UNL     1      36.742  24.434  19.911  1.00  0.00     0.241 A 
HETATM   12  C26 UNL     1      37.546  25.248  18.992  1.00  0.00     0.060 C 
HETATM   13  N5  UNL     1      35.528  23.888  19.453  1.00  0.00     0.149 N 
ENDROOT
BRANCH   1  14
HETATM   14  O2  UNL     1      34.475  25.198  17.785  1.00  0.00    -0.250 OA
BRANCH  14  15
HETATM   15  C15 UNL     1      34.914  26.075  16.727  1.00  0.00     0.442 C 
HETATM   16  N2  UNL     1      34.713  27.440  17.293  1.00  0.00    -0.348 NA
HETATM   17  O1  UNL     1      35.265  25.762  15.729  1.00  0.00    -0.221 OA
BRANCH  16  18
HETATM   18  C11 UNL     1      34.540  28.641  17.780  1.00  0.00     0.116 C 
BRANCH  18  19
HETATM   19  C6  UNL     1      33.219  29.398  17.881  1.00  0.00     0.043 C 
HETATM   20  N1  UNL     1      32.128  28.602  17.791  1.00  0.00    -0.382 N 
ATOM     21  H1  UNL     1      31.534  28.813  16.988  1.00  0.00     0.160 HD
BRANCH  19  22
HETATM   22  C5  UNL     1      33.503  30.486  18.883  1.00  0.00     0.060 C 
BRANCH  22  23
HETATM   23  C4  UNL     1      32.356  31.116  19.586  1.00  0.00     0.010 C 
BRANCH  23  24
HETATM   24  C3  UNL     1      31.358  31.856  18.802  1.00  0.00     0.026 C 
BRANCH  24  25
HETATM   25  C2  UNL     1      29.989  31.268  19.016  1.00  0.00    -0.037 C 
HETATM   26  C1  UNL     1      29.629  30.580  20.115  1.00  0.00     0.007 C 
ENDBRANCH  24  25
ENDBRANCH  23  24
ENDBRANCH  22  23
ENDBRANCH  19  22
BRANCH  20  27
HETATM   27  C7  UNL     1      31.657  27.566  18.563  1.00  0.00     0.114 C 
BRANCH  27  28
HETATM   28  C8  UNL     1      30.190  27.377  18.272  1.00  0.00    -0.012 C 
HETATM   29  C9  UNL     1      29.711  26.134  18.363  1.00  0.00     0.009 C 
ENDBRANCH  27  28
BRANCH  27  30
HETATM   30  C10 UNL     1      31.739  27.553  20.037  1.00  0.00     0.115 C 
HETATM   31  S1  UNL     1      32.878  26.271  20.731  1.00  0.00    -0.095 SA
ENDBRANCH  27  30
ENDBRANCH  20  27
ENDBRANCH  18  19
BRANCH  18  32
HETATM   32  C12 UNL     1      35.472  28.966  18.950  1.00  0.00     0.101 C 
BRANCH  32  33
HETATM   33  C13 UNL     1      36.894  29.020  18.378  1.00  0.00    -0.030 C 
HETATM   34  C14 UNL     1      37.910  29.017  19.217  1.00  0.00     0.007 C 
ENDBRANCH  32  33
ENDBRANCH  18  32
ENDBRANCH  16  18
ENDBRANCH  14  15
ENDBRANCH   1  14
BRANCH  11  35
HETATM   35  C27 UNL     1      36.552  25.118  21.213  1.00  0.00     0.257 C 
HETATM   36  O5  UNL     1      36.550  24.391  22.256  1.00  0.00    -0.271 OA
HETATM   37  N4  UNL     1      36.383  26.540  21.366  1.00  0.00    -0.355 N 
ATOM     38  H4  UNL     1      36.400  27.144  20.544  1.00  0.00     0.162 HD
BRANCH  37  39
HETATM   39  C28 UNL     1      36.192  27.104  22.657  1.00  0.00     0.149 C 
BRANCH  39  40
HETATM   40  C29 UNL     1      35.990  28.553  22.661  1.00  0.00    -0.018 C 
HETATM   41  C30 UNL     1      34.789  29.161  22.628  1.00  0.00     0.008 C 
ENDBRANCH  39  40
ENDBRANCH  37  39
ENDBRANCH  11  35
BRANCH   4  42
HETATM   42  O3  UNL     1      32.847  20.909  16.449  1.00  0.00    -0.349 OA
ATOM     43  H3  UNL     1      31.997  21.320  16.339  1.00  0.00     0.219 HD
ENDBRANCH   4  42
BRANCH   8  44
HETATM   44  O4  UNL     1      34.898  22.324  21.705  1.00  0.00    -0.391 OA
ATOM     45  H4  UNL     1      35.606  22.864  22.036  1.00  0.00     0.210 HD
ENDBRANCH   8  44
TORSDOF 18
ENDMDL
