MODEL 1
REMARK VINA RESULT: -6.818891594      0.000      0.000
REMARK  15 active torsions:
REMARK  status: ('A' for Active; 'I' for Inactive)
REMARK    1  A    between atoms: C2_2  and  C3_4 
REMARK    2  A    between atoms: C3_4  and  N1_5 
REMARK    3  A    between atoms: C3_4  and  C27_43 
REMARK       I    between atoms: N1_5  and  C4_7 
REMARK    4  A    between atoms: C4_7  and  C5_9 
REMARK    5  A    between atoms: C5_9  and  N2_10 
REMARK    6  A    between atoms: C5_9  and  C24_40 
REMARK       I    between atoms: N2_10  and  C6_12 
REMARK    7  A    between atoms: C6_12  and  C7_14 
REMARK    8  A    between atoms: C7_14  and  N3_15 
REMARK    9  A    between atoms: C7_14  and  C21_37 
REMARK       I    between atoms: N3_15  and  C8_17 
REMARK   10  A    between atoms: C8_17  and  C9_19 
REMARK   11  A    between atoms: C9_19  and  N4_20 
REMARK   12  A    between atoms: C9_19  and  C18_34 
REMARK       I    between atoms: N4_20  and  C10_22 
REMARK   13  A    between atoms: C10_22  and  C11_24 
REMARK   14  A    between atoms: N5_27  and  C14_28 
REMARK   15  A    between atoms: C14_28  and  C15_29 
ROOT
HETATM    1  C7  UNL     1      32.231  26.567  18.612  1.00  0.00     0.180 C 
ENDROOT
BRANCH   1   2
HETATM    2  C6  UNL     1      33.032  26.071  19.808  1.00  0.00     0.241 C 
HETATM    3  N2  UNL     1      34.022  25.073  19.603  1.00  0.00    -0.346 N 
ATOM      4  H2  UNL     1      34.145  24.712  18.657  1.00  0.00     0.163 HD
HETATM    5  O3  UNL     1      32.826  26.526  20.943  1.00  0.00    -0.271 OA
BRANCH   3   6
HETATM    6  C5  UNL     1      34.874  24.531  20.654  1.00  0.00     0.180 C 
BRANCH   6   7
HETATM    7  C4  UNL     1      36.029  25.413  20.861  1.00  0.00     0.241 C 
HETATM    8  N1  UNL     1      35.997  26.826  20.931  1.00  0.00    -0.348 N 
ATOM      9  H1  UNL     1      35.095  27.287  20.813  1.00  0.00     0.163 HD
HETATM   10  O2  UNL     1      37.193  24.880  20.992  1.00  0.00    -0.271 OA
BRANCH   8  11
HETATM   11  C3  UNL     1      37.151  27.655  21.159  1.00  0.00     0.157 C 
BRANCH  11  12
HETATM   12  C2  UNL     1      36.988  28.400  22.427  1.00  0.00     0.145 C 
HETATM   13  C1  UNL     1      35.655  28.935  22.851  1.00  0.00     0.093 C 
HETATM   14  O1  UNL     1      37.959  28.578  23.137  1.00  0.00    -0.296 OA
ENDBRANCH  11  12
BRANCH  11  15
HETATM   15  C27 UNL     1      37.424  28.645  20.037  1.00  0.00     0.007 C 
HETATM   16  C28 UNL     1      36.271  28.897  19.134  1.00  0.00     0.012 C 
HETATM   17  C29 UNL     1      38.714  28.289  19.356  1.00  0.00     0.012 C 
ENDBRANCH  11  15
ENDBRANCH   8  11
ENDBRANCH   6   7
BRANCH   6  18
HETATM   18  C24 UNL     1      35.375  23.142  20.158  1.00  0.00     0.009 C 
HETATM   19  C25 UNL     1      34.823  22.031  20.991  1.00  0.00     0.012 C 
HETATM   20  C26 UNL     1      35.148  22.987  18.679  1.00  0.00     0.012 C 
ENDBRANCH   6  18
ENDBRANCH   3   6
ENDBRANCH   1   2
BRANCH   1  21
HETATM   21  N3  UNL     1      31.874  27.959  18.820  1.00  0.00    -0.346 N 
HETATM   22  C8  UNL     1      30.537  28.408  18.669  1.00  0.00     0.241 C 
HETATM   23  O4  UNL     1      29.653  27.539  18.338  1.00  0.00    -0.271 OA
ATOM     24  H3  UNL     1      32.600  28.627  19.081  1.00  0.00     0.163 HD
BRANCH  22  25
HETATM   25  C9  UNL     1      30.091  29.796  18.866  1.00  0.00     0.180 C 
BRANCH  25  26
HETATM   26  N4  UNL     1      29.006  29.840  19.803  1.00  0.00    -0.347 N 
HETATM   27  C10 UNL     1      27.664  30.157  19.577  1.00  0.00     0.222 C 
HETATM   28  O5  UNL     1      27.314  30.441  18.396  1.00  0.00    -0.273 OA
ATOM     29  H4  UNL     1      29.248  29.608  20.766  1.00  0.00     0.163 HD
BRANCH  27  30
HETATM   30  C11 UNL     1      26.621  30.189  20.613  1.00  0.00     0.084 C 
HETATM   31  C12 UNL     1      26.909  31.194  21.708  1.00  0.00     0.034 C 
HETATM   32  C13 UNL     1      25.987  30.922  22.826  1.00  0.00     0.128 C 
HETATM   33  N5  UNL     1      24.651  30.521  22.528  1.00  0.00    -0.364 N 
HETATM   34  C16 UNL     1      24.242  30.328  21.221  1.00  0.00     0.064 C 
HETATM   35  C17 UNL     1      25.238  30.510  20.112  1.00  0.00     0.059 C 
BRANCH  33  36
HETATM   36  C14 UNL     1      23.724  30.806  23.556  1.00  0.00     0.174 C 
BRANCH  36  37
HETATM   37  C15 UNL     1      22.733  29.793  23.838  1.00  0.00     0.214 C 
HETATM   38  O6  UNL     1      21.511  29.857  23.691  1.00  0.00    -0.643 OA
HETATM   39  O7  UNL     1      23.229  28.561  24.352  1.00  0.00    -0.643 OA
ENDBRANCH  36  37
ENDBRANCH  33  36
ENDBRANCH  27  30
ENDBRANCH  25  26
BRANCH  25  40
HETATM   40  C18 UNL     1      31.259  30.672  19.210  1.00  0.00     0.009 C 
HETATM   41  C19 UNL     1      31.316  30.989  20.685  1.00  0.00     0.012 C 
HETATM   42  C20 UNL     1      31.220  31.947  18.380  1.00  0.00     0.012 C 
ENDBRANCH  25  40
ENDBRANCH  22  25
ENDBRANCH   1  21
BRANCH   1  43
HETATM   43  C21 UNL     1      33.052  26.367  17.367  1.00  0.00     0.009 C 
HETATM   44  C22 UNL     1      32.198  25.774  16.282  1.00  0.00     0.012 C 
HETATM   45  C23 UNL     1      33.581  27.690  16.828  1.00  0.00     0.012 C 
ENDBRANCH   1  43
TORSDOF 15
ENDMDL
MODEL 2
REMARK VINA RESULT: -6.784790672      4.769      8.405
REMARK  15 active torsions:
REMARK  status: ('A' for Active; 'I' for Inactive)
REMARK    1  A    between atoms: C2_2  and  C3_4 
REMARK    2  A    between atoms: C3_4  and  N1_5 
REMARK    3  A    between atoms: C3_4  and  C27_43 
REMARK       I    between atoms: N1_5  and  C4_7 
REMARK    4  A    between atoms: C4_7  and  C5_9 
REMARK    5  A    between atoms: C5_9  and  N2_10 
REMARK    6  A    between atoms: C5_9  and  C24_40 
REMARK       I    between atoms: N2_10  and  C6_12 
REMARK    7  A    between atoms: C6_12  and  C7_14 
REMARK    8  A    between atoms: C7_14  and  N3_15 
REMARK    9  A    between atoms: C7_14  and  C21_37 
REMARK       I    between atoms: N3_15  and  C8_17 
REMARK   10  A    between atoms: C8_17  and  C9_19 
REMARK   11  A    between atoms: C9_19  and  N4_20 
REMARK   12  A    between atoms: C9_19  and  C18_34 
REMARK       I    between atoms: N4_20  and  C10_22 
REMARK   13  A    between atoms: C10_22  and  C11_24 
REMARK   14  A    between atoms: N5_27  and  C14_28 
REMARK   15  A    between atoms: C14_28  and  C15_29 
ROOT
HETATM    1  C7  UNL     1      31.929  31.100  16.638  1.00  0.00     0.180 C 
ENDROOT
BRANCH   1   2
HETATM    2  C6  UNL     1      32.096  31.171  18.149  1.00  0.00     0.241 C 
HETATM    3  N2  UNL     1      32.975  30.253  18.785  1.00  0.00    -0.346 N 
ATOM      4  H2  UNL     1      33.449  29.565  18.200  1.00  0.00     0.163 HD
HETATM    5  O3  UNL     1      31.476  32.011  18.819  1.00  0.00    -0.271 OA
BRANCH   3   6
HETATM    6  C5  UNL     1      33.244  30.229  20.218  1.00  0.00     0.180 C 
BRANCH   6   7
HETATM    7  C4  UNL     1      34.658  29.908  20.450  1.00  0.00     0.241 C 
HETATM    8  N1  UNL     1      35.280  28.661  20.207  1.00  0.00    -0.348 N 
ATOM      9  H1  UNL     1      34.700  27.901  19.852  1.00  0.00     0.163 HD
HETATM   10  O2  UNL     1      35.426  30.827  20.920  1.00  0.00    -0.271 OA
BRANCH   8  11
HETATM   11  C3  UNL     1      36.678  28.394  20.427  1.00  0.00     0.157 C 
BRANCH  11  12
HETATM   12  C2  UNL     1      37.233  27.658  19.269  1.00  0.00     0.145 C 
HETATM   13  C1  UNL     1      36.935  28.077  17.863  1.00  0.00     0.093 C 
HETATM   14  O1  UNL     1      37.946  26.693  19.469  1.00  0.00    -0.296 OA
ENDBRANCH  11  12
BRANCH  11  15
HETATM   15  C27 UNL     1      36.956  27.602  21.695  1.00  0.00     0.007 C 
HETATM   16  C28 UNL     1      35.819  26.776  22.177  1.00  0.00     0.012 C 
HETATM   17  C29 UNL     1      37.583  28.501  22.721  1.00  0.00     0.012 C 
ENDBRANCH  11  15
ENDBRANCH   8  11
ENDBRANCH   6   7
BRANCH   6  18
HETATM   18  C24 UNL     1      32.358  29.102  20.825  1.00  0.00     0.009 C 
HETATM   19  C25 UNL     1      32.226  27.944  19.890  1.00  0.00     0.012 C 
HETATM   20  C26 UNL     1      32.825  28.739  22.209  1.00  0.00     0.012 C 
ENDBRANCH   6  18
ENDBRANCH   3   6
ENDBRANCH   1   2
BRANCH   1  21
HETATM   21  N3  UNL     1      31.806  29.710  16.236  1.00  0.00    -0.346 N 
HETATM   22  C8  UNL     1      32.932  28.967  15.795  1.00  0.00     0.241 C 
HETATM   23  O4  UNL     1      34.064  29.570  15.761  1.00  0.00    -0.271 OA
ATOM     24  H3  UNL     1      30.892  29.258  16.272  1.00  0.00     0.163 HD
BRANCH  22  25
HETATM   25  C9  UNL     1      32.895  27.557  15.377  1.00  0.00     0.180 C 
BRANCH  25  26
HETATM   26  N4  UNL     1      33.498  26.727  16.378  1.00  0.00    -0.347 N 
HETATM   27  C10 UNL     1      34.534  25.798  16.241  1.00  0.00     0.222 C 
HETATM   28  O5  UNL     1      35.043  25.645  15.094  1.00  0.00    -0.273 OA
ATOM     29  H4  UNL     1      33.119  26.828  17.319  1.00  0.00     0.163 HD
BRANCH  27  30
HETATM   30  C11 UNL     1      35.077  24.977  17.332  1.00  0.00     0.084 C 
HETATM   31  C12 UNL     1      34.382  25.220  18.656  1.00  0.00     0.034 C 
HETATM   32  C13 UNL     1      35.197  24.598  19.716  1.00  0.00     0.128 C 
HETATM   33  N5  UNL     1      35.845  23.358  19.442  1.00  0.00    -0.364 N 
HETATM   34  C16 UNL     1      35.766  22.777  18.189  1.00  0.00     0.064 C 
HETATM   35  C17 UNL     1      35.016  23.491  17.101  1.00  0.00     0.059 C 
BRANCH  33  36
HETATM   36  C14 UNL     1      36.122  22.589  20.594  1.00  0.00     0.174 C 
BRANCH  36  37
HETATM   37  C15 UNL     1      37.116  23.114  21.503  1.00  0.00     0.214 C 
HETATM   38  O6  UNL     1      38.285  23.425  21.262  1.00  0.00    -0.643 OA
HETATM   39  O7  UNL     1      36.694  23.296  22.851  1.00  0.00    -0.643 OA
ENDBRANCH  36  37
ENDBRANCH  33  36
ENDBRANCH  27  30
ENDBRANCH  25  26
BRANCH  25  40
HETATM   40  C18 UNL     1      31.499  27.167  14.989  1.00  0.00     0.009 C 
HETATM   41  C19 UNL     1      30.881  26.209  15.979  1.00  0.00     0.012 C 
HETATM   42  C20 UNL     1      31.490  26.581  13.584  1.00  0.00     0.012 C 
ENDBRANCH  25  40
ENDBRANCH  22  25
ENDBRANCH   1  21
BRANCH   1  43
HETATM   43  C21 UNL     1      30.727  31.916  16.248  1.00  0.00     0.009 C 
HETATM   44  C22 UNL     1      31.158  33.107  15.439  1.00  0.00     0.012 C 
HETATM   45  C23 UNL     1      29.771  31.119  15.370  1.00  0.00     0.012 C 
ENDBRANCH   1  43
TORSDOF 15
ENDMDL
MODEL 3
REMARK VINA RESULT: -6.782070114      3.179      6.182
REMARK  15 active torsions:
REMARK  status: ('A' for Active; 'I' for Inactive)
REMARK    1  A    between atoms: C2_2  and  C3_4 
REMARK    2  A    between atoms: C3_4  and  N1_5 
REMARK    3  A    between atoms: C3_4  and  C27_43 
REMARK       I    between atoms: N1_5  and  C4_7 
REMARK    4  A    between atoms: C4_7  and  C5_9 
REMARK    5  A    between atoms: C5_9  and  N2_10 
REMARK    6  A    between atoms: C5_9  and  C24_40 
REMARK       I    between atoms: N2_10  and  C6_12 
REMARK    7  A    between atoms: C6_12  and  C7_14 
REMARK    8  A    between atoms: C7_14  and  N3_15 
REMARK    9  A    between atoms: C7_14  and  C21_37 
REMARK       I    between atoms: N3_15  and  C8_17 
REMARK   10  A    between atoms: C8_17  and  C9_19 
REMARK   11  A    between atoms: C9_19  and  N4_20 
REMARK   12  A    between atoms: C9_19  and  C18_34 
REMARK       I    between atoms: N4_20  and  C10_22 
REMARK   13  A    between atoms: C10_22  and  C11_24 
REMARK   14  A    between atoms: N5_27  and  C14_28 
REMARK   15  A    between atoms: C14_28  and  C15_29 
ROOT
HETATM    1  C7  UNL     1      35.739  24.092  19.486  1.00  0.00     0.180 C 
ENDROOT
BRANCH   1   2
HETATM    2  C6  UNL     1      35.572  24.229  17.979  1.00  0.00     0.241 C 
HETATM    3  N2  UNL     1      34.466  24.966  17.476  1.00  0.00    -0.346 N 
ATOM      4  H2  UNL     1      33.811  25.361  18.151  1.00  0.00     0.163 HD
HETATM    5  O3  UNL     1      36.383  23.707  17.199  1.00  0.00    -0.271 OA
BRANCH   3   6
HETATM    6  C5  UNL     1      34.203  25.194  16.060  1.00  0.00     0.180 C 
BRANCH   6   7
HETATM    7  C4  UNL     1      34.892  26.413  15.619  1.00  0.00     0.241 C 
HETATM    8  N1  UNL     1      35.058  27.596  16.376  1.00  0.00    -0.348 N 
ATOM      9  H1  UNL     1      34.653  27.624  17.311  1.00  0.00     0.163 HD
HETATM   10  O2  UNL     1      35.400  26.436  14.437  1.00  0.00    -0.271 OA
BRANCH   8  11
HETATM   11  C3  UNL     1      35.762  28.764  15.914  1.00  0.00     0.157 C 
BRANCH  11  12
HETATM   12  C2  UNL     1      37.156  28.736  16.412  1.00  0.00     0.145 C 
HETATM   13  C1  UNL     1      37.472  28.963  17.858  1.00  0.00     0.093 C 
HETATM   14  O1  UNL     1      38.060  28.524  15.626  1.00  0.00    -0.296 OA
ENDBRANCH  11  12
BRANCH  11  15
HETATM   15  C27 UNL     1      35.114  30.074  16.335  1.00  0.00     0.007 C 
HETATM   16  C28 UNL     1      33.630  30.082  16.281  1.00  0.00     0.012 C 
HETATM   17  C29 UNL     1      35.794  31.216  15.637  1.00  0.00     0.012 C 
ENDBRANCH  11  15
ENDBRANCH   8  11
ENDBRANCH   6   7
BRANCH   6  18
HETATM   18  C24 UNL     1      32.666  25.393  15.913  1.00  0.00     0.009 C 
HETATM   19  C25 UNL     1      32.167  24.863  14.607  1.00  0.00     0.012 C 
HETATM   20  C26 UNL     1      31.938  24.868  17.120  1.00  0.00     0.012 C 
ENDBRANCH   6  18
ENDBRANCH   3   6
ENDBRANCH   1   2
BRANCH   1  21
HETATM   21  N3  UNL     1      35.376  25.346  20.121  1.00  0.00    -0.346 N 
HETATM   22  C8  UNL     1      36.348  26.345  20.390  1.00  0.00     0.241 C 
HETATM   23  O4  UNL     1      37.561  26.098  20.053  1.00  0.00    -0.271 OA
ATOM     24  H3  UNL     1      34.403  25.512  20.380  1.00  0.00     0.163 HD
BRANCH  22  25
HETATM   25  C9  UNL     1      36.065  27.642  21.024  1.00  0.00     0.180 C 
BRANCH  25  26
HETATM   26  N4  UNL     1      34.750  28.091  20.669  1.00  0.00    -0.347 N 
HETATM   27  C10 UNL     1      34.343  29.356  20.237  1.00  0.00     0.222 C 
HETATM   28  O5  UNL     1      35.225  30.254  20.122  1.00  0.00    -0.273 OA
ATOM     29  H4  UNL     1      34.012  27.392  20.741  1.00  0.00     0.163 HD
BRANCH  27  30
HETATM   30  C11 UNL     1      32.959  29.727  19.908  1.00  0.00     0.084 C 
HETATM   31  C12 UNL     1      31.987  29.435  21.031  1.00  0.00     0.034 C 
HETATM   32  C13 UNL     1      30.620  29.545  20.488  1.00  0.00     0.128 C 
HETATM   33  N5  UNL     1      30.348  30.562  19.525  1.00  0.00    -0.364 N 
HETATM   34  C16 UNL     1      31.355  31.388  19.060  1.00  0.00     0.064 C 
HETATM   35  C17 UNL     1      32.757  31.177  19.555  1.00  0.00     0.059 C 
BRANCH  33  36
HETATM   36  C14 UNL     1      28.991  30.952  19.472  1.00  0.00     0.174 C 
BRANCH  36  37
HETATM   37  C15 UNL     1      28.101  30.110  18.705  1.00  0.00     0.214 C 
HETATM   38  O6  UNL     1      28.364  29.412  17.725  1.00  0.00    -0.643 OA
HETATM   39  O7  UNL     1      26.744  30.083  19.136  1.00  0.00    -0.643 OA
ENDBRANCH  36  37
ENDBRANCH  33  36
ENDBRANCH  27  30
ENDBRANCH  25  26
BRANCH  25  40
HETATM   40  C18 UNL     1      36.329  27.566  22.500  1.00  0.00     0.009 C 
HETATM   41  C19 UNL     1      35.086  27.835  23.314  1.00  0.00     0.012 C 
HETATM   42  C20 UNL     1      37.449  28.524  22.881  1.00  0.00     0.012 C 
ENDBRANCH  25  40
ENDBRANCH  22  25
ENDBRANCH   1  21
BRANCH   1  43
HETATM   43  C21 UNL     1      34.891  22.944  19.961  1.00  0.00     0.009 C 
HETATM   44  C22 UNL     1      35.608  22.197  21.051  1.00  0.00     0.012 C 
HETATM   45  C23 UNL     1      33.578  23.429  20.560  1.00  0.00     0.012 C 
ENDBRANCH   1  43
TORSDOF 15
ENDMDL
MODEL 4
REMARK VINA RESULT: -6.780290502      2.608      4.354
REMARK  15 active torsions:
REMARK  status: ('A' for Active; 'I' for Inactive)
REMARK    1  A    between atoms: C2_2  and  C3_4 
REMARK    2  A    between atoms: C3_4  and  N1_5 
REMARK    3  A    between atoms: C3_4  and  C27_43 
REMARK       I    between atoms: N1_5  and  C4_7 
REMARK    4  A    between atoms: C4_7  and  C5_9 
REMARK    5  A    between atoms: C5_9  and  N2_10 
REMARK    6  A    between atoms: C5_9  and  C24_40 
REMARK       I    between atoms: N2_10  and  C6_12 
REMARK    7  A    between atoms: C6_12  and  C7_14 
REMARK    8  A    between atoms: C7_14  and  N3_15 
REMARK    9  A    between atoms: C7_14  and  C21_37 
REMARK       I    between atoms: N3_15  and  C8_17 
REMARK   10  A    between atoms: C8_17  and  C9_19 
REMARK   11  A    between atoms: C9_19  and  N4_20 
REMARK   12  A    between atoms: C9_19  and  C18_34 
REMARK       I    between atoms: N4_20  and  C10_22 
REMARK   13  A    between atoms: C10_22  and  C11_24 
REMARK   14  A    between atoms: N5_27  and  C14_28 
REMARK   15  A    between atoms: C14_28  and  C15_29 
ROOT
HETATM    1  C7  UNL     1      35.008  29.172  17.634  1.00  0.00     0.180 C 
ENDROOT
BRANCH   1   2
HETATM    2  C6  UNL     1      35.186  28.893  19.120  1.00  0.00     0.241 C 
HETATM    3  N2  UNL     1      34.316  27.964  19.750  1.00  0.00    -0.346 N 
ATOM      4  H2  UNL     1      33.588  27.531  19.181  1.00  0.00     0.163 HD
HETATM    5  O3  UNL     1      36.072  29.464  19.773  1.00  0.00    -0.271 OA
BRANCH   3   6
HETATM    6  C5  UNL     1      34.393  27.587  21.157  1.00  0.00     0.180 C 
BRANCH   6   7
HETATM    7  C4  UNL     1      34.463  26.125  21.275  1.00  0.00     0.241 C 
HETATM    8  N1  UNL     1      35.406  25.282  20.642  1.00  0.00    -0.348 N 
ATOM      9  H1  UNL     1      36.098  25.716  20.031  1.00  0.00     0.163 HD
HETATM   10  O2  UNL     1      33.597  25.528  22.016  1.00  0.00    -0.271 OA
BRANCH   8  11
HETATM   11  C3  UNL     1      35.455  23.852  20.803  1.00  0.00     0.157 C 
BRANCH  11  12
HETATM   12  C2  UNL     1      36.774  23.456  21.346  1.00  0.00     0.145 C 
HETATM   13  C1  UNL     1      37.922  23.127  20.442  1.00  0.00     0.093 C 
HETATM   14  O1  UNL     1      36.925  23.400  22.551  1.00  0.00    -0.296 OA
ENDBRANCH  11  12
BRANCH  11  15
HETATM   15  C27 UNL     1      35.200  23.083  19.517  1.00  0.00     0.007 C 
HETATM   16  C28 UNL     1      34.536  23.866  18.443  1.00  0.00     0.012 C 
HETATM   17  C29 UNL     1      34.567  21.761  19.840  1.00  0.00     0.012 C 
ENDBRANCH  11  15
ENDBRANCH   8  11
ENDBRANCH   6   7
BRANCH   6  18
HETATM   18  C24 UNL     1      33.084  28.092  21.832  1.00  0.00     0.009 C 
HETATM   19  C25 UNL     1      33.376  28.949  23.021  1.00  0.00     0.012 C 
HETATM   20  C26 UNL     1      32.164  28.719  20.819  1.00  0.00     0.012 C 
ENDBRANCH   6  18
ENDBRANCH   3   6
ENDBRANCH   1   2
BRANCH   1  21
HETATM   21  N3  UNL     1      33.862  30.043  17.446  1.00  0.00    -0.346 N 
HETATM   22  C8  UNL     1      32.568  29.517  17.192  1.00  0.00     0.241 C 
HETATM   23  O4  UNL     1      32.450  28.241  17.130  1.00  0.00    -0.271 OA
ATOM     24  H3  UNL     1      33.988  31.055  17.499  1.00  0.00     0.163 HD
BRANCH  22  25
HETATM   25  C9  UNL     1      31.356  30.327  16.996  1.00  0.00     0.180 C 
BRANCH  25  26
HETATM   26  N4  UNL     1      30.239  29.715  17.654  1.00  0.00    -0.347 N 
HETATM   27  C10 UNL     1      28.919  29.595  17.212  1.00  0.00     0.222 C 
HETATM   28  O5  UNL     1      28.630  30.071  16.077  1.00  0.00    -0.273 OA
ATOM     29  H4  UNL     1      30.435  29.312  18.570  1.00  0.00     0.163 HD
BRANCH  27  30
HETATM   30  C11 UNL     1      27.832  28.958  17.970  1.00  0.00     0.084 C 
HETATM   31  C12 UNL     1      26.780  29.944  18.433  1.00  0.00     0.034 C 
HETATM   32  C13 UNL     1      25.930  29.265  19.429  1.00  0.00     0.128 C 
HETATM   33  N5  UNL     1      25.613  27.889  19.232  1.00  0.00    -0.364 N 
HETATM   34  C16 UNL     1      26.141  27.184  18.165  1.00  0.00     0.064 C 
HETATM   35  C17 UNL     1      27.089  27.879  17.230  1.00  0.00     0.059 C 
BRANCH  33  36
HETATM   36  C14 UNL     1      24.420  27.479  19.868  1.00  0.00     0.174 C 
BRANCH  36  37
HETATM   37  C15 UNL     1      24.538  27.006  21.229  1.00  0.00     0.214 C 
HETATM   38  O6  UNL     1      24.809  25.871  21.624  1.00  0.00    -0.643 OA
HETATM   39  O7  UNL     1      24.311  27.976  22.248  1.00  0.00    -0.643 OA
ENDBRANCH  36  37
ENDBRANCH  33  36
ENDBRANCH  27  30
ENDBRANCH  25  26
BRANCH  25  40
HETATM   40  C18 UNL     1      31.616  31.753  17.386  1.00  0.00     0.009 C 
HETATM   41  C19 UNL     1      31.209  32.034  18.812  1.00  0.00     0.012 C 
HETATM   42  C20 UNL     1      30.912  32.696  16.422  1.00  0.00     0.012 C 
ENDBRANCH  25  40
ENDBRANCH  22  25
ENDBRANCH   1  21
BRANCH   1  43
HETATM   43  C21 UNL     1      36.279  29.778  17.103  1.00  0.00     0.009 C 
HETATM   44  C22 UNL     1      37.137  28.707  16.489  1.00  0.00     0.012 C 
HETATM   45  C23 UNL     1      35.998  30.792  16.002  1.00  0.00     0.012 C 
ENDBRANCH   1  43
TORSDOF 15
ENDMDL
MODEL 5
REMARK VINA RESULT: -6.698311647      4.337      8.162
REMARK  15 active torsions:
REMARK  status: ('A' for Active; 'I' for Inactive)
REMARK    1  A    between atoms: C2_2  and  C3_4 
REMARK    2  A    between atoms: C3_4  and  N1_5 
REMARK    3  A    between atoms: C3_4  and  C27_43 
REMARK       I    between atoms: N1_5  and  C4_7 
REMARK    4  A    between atoms: C4_7  and  C5_9 
REMARK    5  A    between atoms: C5_9  and  N2_10 
REMARK    6  A    between atoms: C5_9  and  C24_40 
REMARK       I    between atoms: N2_10  and  C6_12 
REMARK    7  A    between atoms: C6_12  and  C7_14 
REMARK    8  A    between atoms: C7_14  and  N3_15 
REMARK    9  A    between atoms: C7_14  and  C21_37 
REMARK       I    between atoms: N3_15  and  C8_17 
REMARK   10  A    between atoms: C8_17  and  C9_19 
REMARK   11  A    between atoms: C9_19  and  N4_20 
REMARK   12  A    between atoms: C9_19  and  C18_34 
REMARK       I    between atoms: N4_20  and  C10_22 
REMARK   13  A    between atoms: C10_22  and  C11_24 
REMARK   14  A    between atoms: N5_27  and  C14_28 
REMARK   15  A    between atoms: C14_28  and  C15_29 
ROOT
HETATM    1  C7  UNL     1      32.133  25.531  18.773  1.00  0.00     0.180 C 
ENDROOT
BRANCH   1   2
HETATM    2  C6  UNL     1      32.998  24.913  19.863  1.00  0.00     0.241 C 
HETATM    3  N2  UNL     1      34.289  24.428  19.519  1.00  0.00    -0.346 N 
ATOM      4  H2  UNL     1      34.579  24.497  18.544  1.00  0.00     0.163 HD
HETATM    5  O3  UNL     1      32.589  24.830  21.030  1.00  0.00    -0.271 OA
BRANCH   3   6
HETATM    6  C5  UNL     1      35.226  23.838  20.468  1.00  0.00     0.180 C 
BRANCH   6   7
HETATM    7  C4  UNL     1      36.231  24.835  20.857  1.00  0.00     0.241 C 
HETATM    8  N1  UNL     1      36.200  26.215  20.545  1.00  0.00    -0.348 N 
ATOM      9  H1  UNL     1      35.421  26.559  19.984  1.00  0.00     0.163 HD
HETATM   10  O2  UNL     1      37.245  24.446  21.546  1.00  0.00    -0.271 OA
BRANCH   8  11
HETATM   11  C3  UNL     1      37.195  27.165  20.967  1.00  0.00     0.157 C 
BRANCH  11  12
HETATM   12  C2  UNL     1      36.662  27.987  22.077  1.00  0.00     0.145 C 
HETATM   13  C1  UNL     1      35.530  28.944  21.865  1.00  0.00     0.093 C 
HETATM   14  O1  UNL     1      37.155  27.877  23.184  1.00  0.00    -0.296 OA
ENDBRANCH  11  12
BRANCH  11  15
HETATM   15  C27 UNL     1      37.669  28.088  19.855  1.00  0.00     0.007 C 
HETATM   16  C28 UNL     1      37.708  27.469  18.505  1.00  0.00     0.012 C 
HETATM   17  C29 UNL     1      38.928  28.785  20.285  1.00  0.00     0.012 C 
ENDBRANCH  11  15
ENDBRANCH   8  11
ENDBRANCH   6   7
BRANCH   6  18
HETATM   18  C24 UNL     1      35.932  22.662  19.732  1.00  0.00     0.009 C 
HETATM   19  C25 UNL     1      35.109  21.415  19.773  1.00  0.00     0.012 C 
HETATM   20  C26 UNL     1      36.371  23.076  18.353  1.00  0.00     0.012 C 
ENDBRANCH   6  18
ENDBRANCH   3   6
ENDBRANCH   1   2
BRANCH   1  21
HETATM   21  N3  UNL     1      32.631  26.860  18.465  1.00  0.00    -0.346 N 
HETATM   22  C8  UNL     1      32.119  28.010  19.119  1.00  0.00     0.241 C 
HETATM   23  O4  UNL     1      31.195  27.834  19.993  1.00  0.00    -0.271 OA
ATOM     24  H3  UNL     1      33.364  26.968  17.764  1.00  0.00     0.163 HD
BRANCH  22  25
HETATM   25  C9  UNL     1      32.570  29.388  18.870  1.00  0.00     0.180 C 
BRANCH  25  26
HETATM   26  N4  UNL     1      33.515  29.413  17.792  1.00  0.00    -0.347 N 
HETATM   27  C10 UNL     1      34.825  29.900  17.785  1.00  0.00     0.222 C 
HETATM   28  O5  UNL     1      35.281  30.386  18.859  1.00  0.00    -0.273 OA
ATOM     29  H4  UNL     1      33.186  29.021  16.910  1.00  0.00     0.163 HD
BRANCH  27  30
HETATM   30  C11 UNL     1      35.718  29.895  16.618  1.00  0.00     0.084 C 
HETATM   31  C12 UNL     1      35.466  28.727  15.687  1.00  0.00     0.034 C 
HETATM   32  C13 UNL     1      36.599  28.645  14.746  1.00  0.00     0.128 C 
HETATM   33  N5  UNL     1      37.177  29.857  14.265  1.00  0.00    -0.364 N 
HETATM   34  C16 UNL     1      36.730  31.085  14.718  1.00  0.00     0.064 C 
HETATM   35  C17 UNL     1      35.647  31.128  15.758  1.00  0.00     0.059 C 
BRANCH  33  36
HETATM   36  C14 UNL     1      37.834  29.724  13.022  1.00  0.00     0.174 C 
BRANCH  36  37
HETATM   37  C15 UNL     1      39.232  30.090  12.983  1.00  0.00     0.214 C 
HETATM   38  O6  UNL     1      40.216  29.373  13.177  1.00  0.00    -0.643 OA
HETATM   39  O7  UNL     1      39.511  31.454  12.683  1.00  0.00    -0.643 OA
ENDBRANCH  36  37
ENDBRANCH  33  36
ENDBRANCH  27  30
ENDBRANCH  25  26
BRANCH  25  40
HETATM   40  C18 UNL     1      31.388  30.297  18.696  1.00  0.00     0.009 C 
HETATM   41  C19 UNL     1      31.079  30.554  17.240  1.00  0.00     0.012 C 
HETATM   42  C20 UNL     1      31.618  31.603  19.443  1.00  0.00     0.012 C 
ENDBRANCH  25  40
ENDBRANCH  22  25
ENDBRANCH   1  21
BRANCH   1  43
HETATM   43  C21 UNL     1      32.147  24.623  17.574  1.00  0.00     0.009 C 
HETATM   44  C22 UNL     1      30.742  24.231  17.213  1.00  0.00     0.012 C 
HETATM   45  C23 UNL     1      32.731  25.319  16.352  1.00  0.00     0.012 C 
ENDBRANCH   1  43
TORSDOF 15
ENDMDL
