MODEL 1
REMARK VINA RESULT: -6.306148944      0.000      0.000
REMARK  18 active torsions:
REMARK  status: ('A' for Active; 'I' for Inactive)
REMARK    1  A    between atoms: C2_2  and  N1_3 
REMARK    2  A    between atoms: C2_2  and  C3_7 
REMARK    3  A    between atoms: C3_7  and  O1_8 
REMARK    4  A    between atoms: O1_8  and  C4_9 
REMARK    5  A    between atoms: C4_9  and  C5_10 
REMARK    6  A    between atoms: C5_10  and  N2_11 
REMARK    7  A    between atoms: C5_10  and  C12_19 
REMARK    8  A    between atoms: N2_11  and  C6_13 
REMARK    9  A    between atoms: C12_19  and  O2_20 
REMARK   10  A    between atoms: C12_19  and  N3_22 
REMARK   11  A    between atoms: C16_26  and  C17_27 
REMARK       I    between atoms: C17_27  and  N4_29 
REMARK   12  A    between atoms: N4_29  and  C18_31 
REMARK   13  A    between atoms: C18_31  and  C19_32 
REMARK   14  A    between atoms: C18_31  and  C26_39 
REMARK   15  A    between atoms: C19_32  and  C20_33 
REMARK       I    between atoms: C26_39  and  N5_41 
REMARK   16  A    between atoms: N5_41  and  C27_43 
REMARK   17  A    between atoms: C27_43  and  C28_44 
REMARK   18  A    between atoms: C27_43  and  C29_47 
ROOT
HETATM    1  N3  UNL     1      36.204  28.155  21.644  1.00  0.00    -0.350 N 
HETATM    2  C13 UNL     1      35.406  29.292  21.941  1.00  0.00     0.126 C 
HETATM    3  C14 UNL     1      34.751  29.051  23.270  1.00  0.00     0.022 C 
HETATM    4  C15 UNL     1      35.334  27.762  23.757  1.00  0.00     0.037 C 
HETATM    5  C16 UNL     1      35.634  27.049  22.477  1.00  0.00     0.178 C 
ENDROOT
BRANCH   5   6
HETATM    6  C17 UNL     1      34.461  26.471  21.796  1.00  0.00     0.241 C 
HETATM    7  O3  UNL     1      33.501  26.055  22.488  1.00  0.00    -0.271 OA
HETATM    8  N4  UNL     1      34.366  26.365  20.403  1.00  0.00    -0.346 N 
ATOM      9  H4  UNL     1      35.153  26.713  19.856  1.00  0.00     0.163 HD
BRANCH   8  10
HETATM   10  C18 UNL     1      33.250  25.805  19.669  1.00  0.00     0.177 C 
BRANCH  10  11
HETATM   11  C19 UNL     1      32.596  26.774  18.760  1.00  0.00     0.039 C 
BRANCH  11  12
HETATM   12  C20 UNL     1      32.655  28.207  19.079  1.00  0.00    -0.012 C 
HETATM   13  C21 UNL     1      31.564  28.483  20.135  1.00  0.00     0.005 C 
HETATM   14  C22 UNL     1      31.716  29.912  20.643  1.00  0.00     0.000 C 
HETATM   15  C23 UNL     1      31.424  30.827  19.478  1.00  0.00     0.000 C 
HETATM   16  C24 UNL     1      32.429  30.595  18.406  1.00  0.00     0.000 C 
HETATM   17  C25 UNL     1      32.478  29.155  17.926  1.00  0.00     0.005 C 
ENDBRANCH  11  12
ENDBRANCH  10  11
BRANCH  10  18
HETATM   18  C26 UNL     1      33.568  24.483  19.125  1.00  0.00     0.241 C 
HETATM   19  O4  UNL     1      33.655  23.498  19.909  1.00  0.00    -0.271 OA
HETATM   20  N5  UNL     1      33.781  24.270  17.749  1.00  0.00    -0.346 N 
ATOM     21  H5  UNL     1      33.715  25.046  17.090  1.00  0.00     0.163 HD
BRANCH  20  22
HETATM   22  C27 UNL     1      34.097  22.931  17.278  1.00  0.00     0.177 C 
BRANCH  22  23
HETATM   23  C28 UNL     1      35.447  22.816  16.719  1.00  0.00     0.254 C 
HETATM   24  N6  UNL     1      36.203  21.641  16.993  1.00  0.00    -0.060 NA
HETATM   25  O5  UNL     1      35.983  23.698  16.008  1.00  0.00    -0.275 OA
ENDBRANCH  22  23
BRANCH  22  26
HETATM   26  C29 UNL     1      33.047  22.483  16.271  1.00  0.00     0.009 C 
HETATM   27  C30 UNL     1      32.050  21.524  16.847  1.00  0.00     0.012 C 
HETATM   28  C31 UNL     1      32.332  23.620  15.613  1.00  0.00     0.012 C 
ENDBRANCH  22  26
ENDBRANCH  20  22
ENDBRANCH  10  18
ENDBRANCH   8  10
ENDBRANCH   5   6
BRANCH   1  29
HETATM   29  C12 UNL     1      37.289  27.992  20.797  1.00  0.00     0.139 C 
BRANCH  29  30
HETATM   30  C5  UNL     1      37.517  27.611  19.407  1.00  0.00     0.176 C 
BRANCH  30  31
HETATM   31  C4  UNL     1      37.660  26.205  19.031  1.00  0.00     0.200 C 
BRANCH  31  32
HETATM   32  O1  UNL     1      37.549  25.285  20.104  1.00  0.00    -0.387 OA
BRANCH  32  33
HETATM   33  C3  UNL     1      37.238  24.058  19.510  1.00  0.00     0.200 C 
BRANCH  33  34
HETATM   34  C2  UNL     1      37.198  22.917  20.492  1.00  0.00     0.203 C 
HETATM   35  C1  UNL     1      36.787  23.517  21.841  1.00  0.00     0.042 C 
BRANCH  34  36
HETATM   36  N1  UNL     1      36.134  21.969  20.159  1.00  0.00    -0.073 N 
ATOM     37  H13 UNL     1      36.472  21.087  19.778  1.00  0.00     0.274 HD
ATOM     38  H12 UNL     1      35.664  21.573  20.973  1.00  0.00     0.274 HD
ATOM     39  H11 UNL     1      35.513  22.480  19.531  1.00  0.00     0.274 HD
ENDBRANCH  34  36
ENDBRANCH  33  34
ENDBRANCH  32  33
ENDBRANCH  31  32
ENDBRANCH  30  31
BRANCH  30  40
HETATM   40  N2  UNL     1      36.583  28.342  18.624  1.00  0.00    -0.404 N 
ATOM     41  H2  UNL     1      35.900  28.919  19.117  1.00  0.00     0.154 HD
BRANCH  40  42
HETATM   42  C6  UNL     1      36.536  28.326  17.245  1.00  0.00     0.077 C 
HETATM   43  C7  UNL     1      35.425  27.616  16.535  1.00  0.00     0.024 C 
HETATM   44  C8  UNL     1      34.982  28.395  15.287  1.00  0.00     0.002 C 
HETATM   45  C9  UNL     1      36.256  28.696  14.510  1.00  0.00     0.000 C 
HETATM   46  C10 UNL     1      36.940  29.812  15.274  1.00  0.00     0.002 C 
HETATM   47  C11 UNL     1      36.556  29.793  16.737  1.00  0.00     0.024 C 
ENDBRANCH  40  42
ENDBRANCH  30  40
ENDBRANCH  29  30
BRANCH  29  48
HETATM   48  O2  UNL     1      38.443  28.256  21.404  1.00  0.00    -0.348 OA
ATOM     49  H2  UNL     1      38.295  28.762  22.195  1.00  0.00     0.219 HD
ENDBRANCH  29  48
ENDBRANCH   1  29
TORSDOF 18
ENDMDL
MODEL 2
REMARK VINA RESULT: -6.289580978      1.494      1.798
REMARK  18 active torsions:
REMARK  status: ('A' for Active; 'I' for Inactive)
REMARK    1  A    between atoms: C2_2  and  N1_3 
REMARK    2  A    between atoms: C2_2  and  C3_7 
REMARK    3  A    between atoms: C3_7  and  O1_8 
REMARK    4  A    between atoms: O1_8  and  C4_9 
REMARK    5  A    between atoms: C4_9  and  C5_10 
REMARK    6  A    between atoms: C5_10  and  N2_11 
REMARK    7  A    between atoms: C5_10  and  C12_19 
REMARK    8  A    between atoms: N2_11  and  C6_13 
REMARK    9  A    between atoms: C12_19  and  O2_20 
REMARK   10  A    between atoms: C12_19  and  N3_22 
REMARK   11  A    between atoms: C16_26  and  C17_27 
REMARK       I    between atoms: C17_27  and  N4_29 
REMARK   12  A    between atoms: N4_29  and  C18_31 
REMARK   13  A    between atoms: C18_31  and  C19_32 
REMARK   14  A    between atoms: C18_31  and  C26_39 
REMARK   15  A    between atoms: C19_32  and  C20_33 
REMARK       I    between atoms: C26_39  and  N5_41 
REMARK   16  A    between atoms: N5_41  and  C27_43 
REMARK   17  A    between atoms: C27_43  and  C28_44 
REMARK   18  A    between atoms: C27_43  and  C29_47 
ROOT
HETATM    1  N3  UNL     1      36.145  27.851  21.217  1.00  0.00    -0.350 N 
HETATM    2  C13 UNL     1      35.580  29.133  21.455  1.00  0.00     0.126 C 
HETATM    3  C14 UNL     1      35.052  29.141  22.860  1.00  0.00     0.022 C 
HETATM    4  C15 UNL     1      35.471  27.824  23.436  1.00  0.00     0.037 C 
HETATM    5  C16 UNL     1      35.502  26.948  22.224  1.00  0.00     0.178 C 
ENDROOT
BRANCH   5   6
HETATM    6  C17 UNL     1      34.181  26.518  21.731  1.00  0.00     0.241 C 
HETATM    7  O3  UNL     1      33.394  25.945  22.523  1.00  0.00    -0.271 OA
HETATM    8  N4  UNL     1      33.758  26.721  20.411  1.00  0.00    -0.346 N 
ATOM      9  H4  UNL     1      34.407  27.193  19.783  1.00  0.00     0.163 HD
BRANCH   8  10
HETATM   10  C18 UNL     1      32.480  26.321  19.859  1.00  0.00     0.177 C 
BRANCH  10  11
HETATM   11  C19 UNL     1      31.512  27.436  19.745  1.00  0.00     0.039 C 
BRANCH  11  12
HETATM   12  C20 UNL     1      31.939  28.694  19.117  1.00  0.00    -0.012 C 
HETATM   13  C21 UNL     1      32.053  29.746  20.239  1.00  0.00     0.005 C 
HETATM   14  C22 UNL     1      32.682  31.012  19.668  1.00  0.00     0.000 C 
HETATM   15  C23 UNL     1      31.710  31.570  18.656  1.00  0.00     0.000 C 
HETATM   16  C24 UNL     1      31.533  30.589  17.551  1.00  0.00     0.000 C 
HETATM   17  C25 UNL     1      31.054  29.228  18.025  1.00  0.00     0.005 C 
ENDBRANCH  11  12
ENDBRANCH  10  11
BRANCH  10  18
HETATM   18  C26 UNL     1      32.643  25.451  18.692  1.00  0.00     0.241 C 
HETATM   19  O4  UNL     1      32.248  24.254  18.755  1.00  0.00    -0.271 OA
HETATM   20  N5  UNL     1      33.228  25.906  17.494  1.00  0.00    -0.346 N 
ATOM     21  H5  UNL     1      33.554  26.869  17.412  1.00  0.00     0.163 HD
BRANCH  20  22
HETATM   22  C27 UNL     1      33.361  24.986  16.375  1.00  0.00     0.177 C 
BRANCH  22  23
HETATM   23  C28 UNL     1      34.726  24.910  15.847  1.00  0.00     0.254 C 
HETATM   24  N6  UNL     1      35.415  23.664  15.909  1.00  0.00    -0.060 NA
HETATM   25  O5  UNL     1      35.332  25.883  15.341  1.00  0.00    -0.275 OA
ENDBRANCH  22  23
BRANCH  22  26
HETATM   26  C29 UNL     1      32.371  25.364  15.283  1.00  0.00     0.009 C 
HETATM   27  C30 UNL     1      31.165  24.475  15.247  1.00  0.00     0.012 C 
HETATM   28  C31 UNL     1      31.942  26.796  15.340  1.00  0.00     0.012 C 
ENDBRANCH  22  26
ENDBRANCH  20  22
ENDBRANCH  10  18
ENDBRANCH   8  10
ENDBRANCH   5   6
BRANCH   1  29
HETATM   29  C12 UNL     1      37.084  27.420  20.294  1.00  0.00     0.139 C 
BRANCH  29  30
HETATM   30  C5  UNL     1      37.096  26.644  19.057  1.00  0.00     0.176 C 
BRANCH  30  31
HETATM   31  C4  UNL     1      37.034  25.184  19.091  1.00  0.00     0.200 C 
BRANCH  31  32
HETATM   32  O1  UNL     1      35.732  24.643  19.238  1.00  0.00    -0.387 OA
BRANCH  32  33
HETATM   33  C3  UNL     1      35.849  23.653  20.218  1.00  0.00     0.200 C 
BRANCH  33  34
HETATM   34  C2  UNL     1      35.562  22.269  19.700  1.00  0.00     0.203 C 
HETATM   35  C1  UNL     1      34.881  21.508  20.843  1.00  0.00     0.042 C 
BRANCH  34  36
HETATM   36  N1  UNL     1      34.572  22.301  18.624  1.00  0.00    -0.073 N 
ATOM     37  H13 UNL     1      33.815  21.627  18.739  1.00  0.00     0.274 HD
ATOM     38  H12 UNL     1      33.986  23.135  18.625  1.00  0.00     0.274 HD
ATOM     39  H11 UNL     1      35.110  22.175  17.766  1.00  0.00     0.274 HD
ENDBRANCH  34  36
ENDBRANCH  33  34
ENDBRANCH  32  33
ENDBRANCH  31  32
ENDBRANCH  30  31
BRANCH  30  40
HETATM   40  N2  UNL     1      36.161  27.258  18.181  1.00  0.00    -0.404 N 
ATOM     41  H2  UNL     1      35.291  26.759  17.991  1.00  0.00     0.154 HD
BRANCH  40  42
HETATM   42  C6  UNL     1      36.348  28.481  17.569  1.00  0.00     0.077 C 
HETATM   43  C7  UNL     1      37.366  28.636  16.484  1.00  0.00     0.024 C 
HETATM   44  C8  UNL     1      36.858  29.576  15.380  1.00  0.00     0.002 C 
HETATM   45  C9  UNL     1      36.370  30.829  16.093  1.00  0.00     0.000 C 
HETATM   46  C10 UNL     1      35.047  30.445  16.726  1.00  0.00     0.002 C 
HETATM   47  C11 UNL     1      34.982  28.959  17.004  1.00  0.00     0.024 C 
ENDBRANCH  40  42
ENDBRANCH  30  40
ENDBRANCH  29  30
BRANCH  29  48
HETATM   48  O2  UNL     1      38.314  27.820  20.606  1.00  0.00    -0.348 OA
ATOM     49  H2  UNL     1      38.571  27.476  21.453  1.00  0.00     0.219 HD
ENDBRANCH  29  48
ENDBRANCH   1  29
TORSDOF 18
ENDMDL
MODEL 3
REMARK VINA RESULT: -6.097902264      2.305      5.715
REMARK  18 active torsions:
REMARK  status: ('A' for Active; 'I' for Inactive)
REMARK    1  A    between atoms: C2_2  and  N1_3 
REMARK    2  A    between atoms: C2_2  and  C3_7 
REMARK    3  A    between atoms: C3_7  and  O1_8 
REMARK    4  A    between atoms: O1_8  and  C4_9 
REMARK    5  A    between atoms: C4_9  and  C5_10 
REMARK    6  A    between atoms: C5_10  and  N2_11 
REMARK    7  A    between atoms: C5_10  and  C12_19 
REMARK    8  A    between atoms: N2_11  and  C6_13 
REMARK    9  A    between atoms: C12_19  and  O2_20 
REMARK   10  A    between atoms: C12_19  and  N3_22 
REMARK   11  A    between atoms: C16_26  and  C17_27 
REMARK       I    between atoms: C17_27  and  N4_29 
REMARK   12  A    between atoms: N4_29  and  C18_31 
REMARK   13  A    between atoms: C18_31  and  C19_32 
REMARK   14  A    between atoms: C18_31  and  C26_39 
REMARK   15  A    between atoms: C19_32  and  C20_33 
REMARK       I    between atoms: C26_39  and  N5_41 
REMARK   16  A    between atoms: N5_41  and  C27_43 
REMARK   17  A    between atoms: C27_43  and  C28_44 
REMARK   18  A    between atoms: C27_43  and  C29_47 
ROOT
HETATM    1  N3  UNL     1      37.325  26.761  19.673  1.00  0.00    -0.350 N 
HETATM    2  C13 UNL     1      38.226  26.632  18.582  1.00  0.00     0.126 C 
HETATM    3  C14 UNL     1      39.163  27.804  18.627  1.00  0.00     0.022 C 
HETATM    4  C15 UNL     1      38.809  28.530  19.887  1.00  0.00     0.037 C 
HETATM    5  C16 UNL     1      37.355  28.214  20.034  1.00  0.00     0.178 C 
ENDROOT
BRANCH   5   6
HETATM    6  C17 UNL     1      36.460  28.965  19.135  1.00  0.00     0.241 C 
HETATM    7  O3  UNL     1      36.701  30.176  18.910  1.00  0.00    -0.271 OA
HETATM    8  N4  UNL     1      35.345  28.388  18.514  1.00  0.00    -0.346 N 
ATOM      9  H4  UNL     1      35.167  27.402  18.703  1.00  0.00     0.163 HD
BRANCH   8  10
HETATM   10  C18 UNL     1      34.423  29.065  17.626  1.00  0.00     0.177 C 
BRANCH  10  11
HETATM   11  C19 UNL     1      33.812  30.275  18.221  1.00  0.00     0.039 C 
BRANCH  11  12
HETATM   12  C20 UNL     1      32.362  30.302  18.460  1.00  0.00    -0.012 C 
HETATM   13  C21 UNL     1      32.113  31.266  19.638  1.00  0.00     0.005 C 
HETATM   14  C22 UNL     1      30.612  31.479  19.795  1.00  0.00     0.000 C 
HETATM   15  C23 UNL     1      30.017  30.150  20.196  1.00  0.00     0.000 C 
HETATM   16  C24 UNL     1      30.244  29.161  19.109  1.00  0.00     0.000 C 
HETATM   17  C25 UNL     1      31.710  28.980  18.755  1.00  0.00     0.005 C 
ENDBRANCH  11  12
ENDBRANCH  10  11
BRANCH  10  18
HETATM   18  C26 UNL     1      34.965  29.183  16.270  1.00  0.00     0.241 C 
HETATM   19  O4  UNL     1      34.525  28.426  15.362  1.00  0.00    -0.271 OA
HETATM   20  N5  UNL     1      35.965  30.119  15.942  1.00  0.00    -0.346 N 
ATOM     21  H5  UNL     1      36.339  30.747  16.654  1.00  0.00     0.163 HD
BRANCH  20  22
HETATM   22  C27 UNL     1      36.460  30.180  14.575  1.00  0.00     0.177 C 
BRANCH  22  23
HETATM   23  C28 UNL     1      37.713  29.445  14.379  1.00  0.00     0.254 C 
HETATM   24  N6  UNL     1      38.516  29.754  13.244  1.00  0.00    -0.060 NA
HETATM   25  O5  UNL     1      38.125  28.552  15.156  1.00  0.00    -0.275 OA
ENDBRANCH  22  23
BRANCH  22  26
HETATM   26  C29 UNL     1      36.604  31.634  14.149  1.00  0.00     0.009 C 
HETATM   27  C30 UNL     1      35.330  32.224  13.626  1.00  0.00     0.012 C 
HETATM   28  C31 UNL     1      37.167  32.514  15.220  1.00  0.00     0.012 C 
ENDBRANCH  22  26
ENDBRANCH  20  22
ENDBRANCH  10  18
ENDBRANCH   8  10
ENDBRANCH   5   6
BRANCH   1  29
HETATM   29  C12 UNL     1      36.546  25.826  20.335  1.00  0.00     0.139 C 
BRANCH  29  30
HETATM   30  C5  UNL     1      35.134  25.464  20.409  1.00  0.00     0.176 C 
BRANCH  30  31
HETATM   31  C4  UNL     1      34.627  24.289  19.701  1.00  0.00     0.200 C 
BRANCH  31  32
HETATM   32  O1  UNL     1      35.623  23.447  19.147  1.00  0.00    -0.387 OA
BRANCH  32  33
HETATM   33  C3  UNL     1      35.606  22.287  19.927  1.00  0.00     0.200 C 
BRANCH  33  34
HETATM   34  C2  UNL     1      34.225  21.721  20.117  1.00  0.00     0.203 C 
HETATM   35  C1  UNL     1      34.037  20.655  19.031  1.00  0.00     0.042 C 
BRANCH  34  36
HETATM   36  N1  UNL     1      34.119  20.994  21.383  1.00  0.00    -0.073 N 
ATOM     37  H13 UNL     1      34.857  20.305  21.526  1.00  0.00     0.274 HD
ATOM     38  H12 UNL     1      34.328  21.562  22.204  1.00  0.00     0.274 HD
ATOM     39  H11 UNL     1      33.178  20.599  21.382  1.00  0.00     0.274 HD
ENDBRANCH  34  36
ENDBRANCH  33  34
ENDBRANCH  32  33
ENDBRANCH  31  32
ENDBRANCH  30  31
BRANCH  30  40
HETATM   40  N2  UNL     1      34.765  25.537  21.779  1.00  0.00    -0.404 N 
ATOM     41  H2  UNL     1      34.736  24.666  22.310  1.00  0.00     0.154 HD
BRANCH  40  42
HETATM   42  C6  UNL     1      34.442  26.704  22.441  1.00  0.00     0.077 C 
HETATM   43  C7  UNL     1      35.512  27.529  23.084  1.00  0.00     0.024 C 
HETATM   44  C8  UNL     1      35.230  29.029  22.914  1.00  0.00     0.002 C 
HETATM   45  C9  UNL     1      33.792  29.236  23.368  1.00  0.00     0.000 C 
HETATM   46  C10 UNL     1      32.932  28.689  22.247  1.00  0.00     0.002 C 
HETATM   47  C11 UNL     1      33.665  27.625  21.460  1.00  0.00     0.024 C 
ENDBRANCH  40  42
ENDBRANCH  30  40
ENDBRANCH  29  30
BRANCH  29  48
HETATM   48  O2  UNL     1      37.273  25.031  21.116  1.00  0.00    -0.348 OA
ATOM     49  H2  UNL     1      36.731  24.349  21.494  1.00  0.00     0.219 HD
ENDBRANCH  29  48
ENDBRANCH   1  29
TORSDOF 18
ENDMDL
MODEL 4
REMARK VINA RESULT: -6.084079709      2.971      6.630
REMARK  18 active torsions:
REMARK  status: ('A' for Active; 'I' for Inactive)
REMARK    1  A    between atoms: C2_2  and  N1_3 
REMARK    2  A    between atoms: C2_2  and  C3_7 
REMARK    3  A    between atoms: C3_7  and  O1_8 
REMARK    4  A    between atoms: O1_8  and  C4_9 
REMARK    5  A    between atoms: C4_9  and  C5_10 
REMARK    6  A    between atoms: C5_10  and  N2_11 
REMARK    7  A    between atoms: C5_10  and  C12_19 
REMARK    8  A    between atoms: N2_11  and  C6_13 
REMARK    9  A    between atoms: C12_19  and  O2_20 
REMARK   10  A    between atoms: C12_19  and  N3_22 
REMARK   11  A    between atoms: C16_26  and  C17_27 
REMARK       I    between atoms: C17_27  and  N4_29 
REMARK   12  A    between atoms: N4_29  and  C18_31 
REMARK   13  A    between atoms: C18_31  and  C19_32 
REMARK   14  A    between atoms: C18_31  and  C26_39 
REMARK   15  A    between atoms: C19_32  and  C20_33 
REMARK       I    between atoms: C26_39  and  N5_41 
REMARK   16  A    between atoms: N5_41  and  C27_43 
REMARK   17  A    between atoms: C27_43  and  C28_44 
REMARK   18  A    between atoms: C27_43  and  C29_47 
ROOT
HETATM    1  N3  UNL     1      37.447  26.505  19.546  1.00  0.00    -0.350 N 
HETATM    2  C13 UNL     1      38.602  26.497  18.720  1.00  0.00     0.126 C 
HETATM    3  C14 UNL     1      39.183  27.880  18.740  1.00  0.00     0.022 C 
HETATM    4  C15 UNL     1      38.352  28.632  19.731  1.00  0.00     0.037 C 
HETATM    5  C16 UNL     1      37.030  27.942  19.619  1.00  0.00     0.178 C 
ENDROOT
BRANCH   5   6
HETATM    6  C17 UNL     1      36.243  28.290  18.422  1.00  0.00     0.241 C 
HETATM    7  O3  UNL     1      35.783  27.367  17.708  1.00  0.00    -0.271 OA
HETATM    8  N4  UNL     1      35.982  29.613  18.040  1.00  0.00    -0.346 N 
ATOM      9  H4  UNL     1      36.360  30.350  18.635  1.00  0.00     0.163 HD
BRANCH   8  10
HETATM   10  C18 UNL     1      35.225  30.026  16.878  1.00  0.00     0.177 C 
BRANCH  10  11
HETATM   11  C19 UNL     1      33.945  30.692  17.214  1.00  0.00     0.039 C 
BRANCH  11  12
HETATM   12  C20 UNL     1      33.209  30.264  18.411  1.00  0.00    -0.012 C 
HETATM   13  C21 UNL     1      32.312  29.080  17.995  1.00  0.00     0.005 C 
HETATM   14  C22 UNL     1      31.677  28.476  19.242  1.00  0.00     0.000 C 
HETATM   15  C23 UNL     1      30.759  29.525  19.822  1.00  0.00     0.000 C 
HETATM   16  C24 UNL     1      31.560  30.712  20.225  1.00  0.00     0.000 C 
HETATM   17  C25 UNL     1      32.365  31.310  19.085  1.00  0.00     0.005 C 
ENDBRANCH  11  12
ENDBRANCH  10  11
BRANCH  10  18
HETATM   18  C26 UNL     1      36.077  30.675  15.879  1.00  0.00     0.241 C 
HETATM   19  O4  UNL     1      36.814  29.964  15.142  1.00  0.00    -0.271 OA
HETATM   20  N5  UNL     1      36.103  32.074  15.711  1.00  0.00    -0.346 N 
ATOM     21  H5  UNL     1      35.517  32.675  16.290  1.00  0.00     0.163 HD
BRANCH  20  22
HETATM   22  C27 UNL     1      36.976  32.651  14.701  1.00  0.00     0.177 C 
BRANCH  22  23
HETATM   23  C28 UNL     1      37.933  33.618  15.246  1.00  0.00     0.254 C 
HETATM   24  N6  UNL     1      38.992  34.078  14.411  1.00  0.00    -0.060 NA
HETATM   25  O5  UNL     1      37.878  34.068  16.414  1.00  0.00    -0.275 OA
ENDBRANCH  22  23
BRANCH  22  26
HETATM   26  C29 UNL     1      36.136  33.275  13.595  1.00  0.00     0.009 C 
HETATM   27  C30 UNL     1      36.071  32.432  12.358  1.00  0.00     0.012 C 
HETATM   28  C31 UNL     1      34.752  33.636  14.034  1.00  0.00     0.012 C 
ENDBRANCH  22  26
ENDBRANCH  20  22
ENDBRANCH  10  18
ENDBRANCH   8  10
ENDBRANCH   5   6
BRANCH   1  29
HETATM   29  C12 UNL     1      36.773  25.481  20.191  1.00  0.00     0.139 C 
BRANCH  29  30
HETATM   30  C5  UNL     1      35.456  25.269  20.786  1.00  0.00     0.176 C 
BRANCH  30  31
HETATM   31  C4  UNL     1      34.695  24.054  20.499  1.00  0.00     0.200 C 
BRANCH  31  32
HETATM   32  O1  UNL     1      35.107  22.905  21.221  1.00  0.00    -0.387 OA
BRANCH  32  33
HETATM   33  C3  UNL     1      34.147  21.928  20.942  1.00  0.00     0.200 C 
BRANCH  33  34
HETATM   34  C2  UNL     1      34.536  21.021  19.806  1.00  0.00     0.203 C 
HETATM   35  C1  UNL     1      34.121  19.603  20.217  1.00  0.00     0.042 C 
BRANCH  34  36
HETATM   36  N1  UNL     1      33.753  21.311  18.604  1.00  0.00    -0.073 N 
ATOM     37  H13 UNL     1      33.164  20.537  18.298  1.00  0.00     0.274 HD
ATOM     38  H12 UNL     1      32.998  21.980  18.754  1.00  0.00     0.274 HD
ATOM     39  H11 UNL     1      34.438  21.608  17.909  1.00  0.00     0.274 HD
ENDBRANCH  34  36
ENDBRANCH  33  34
ENDBRANCH  32  33
ENDBRANCH  31  32
ENDBRANCH  30  31
BRANCH  30  40
HETATM   40  N2  UNL     1      35.576  25.582  22.166  1.00  0.00    -0.404 N 
ATOM     41  H2  UNL     1      36.030  24.896  22.771  1.00  0.00     0.154 HD
BRANCH  40  42
HETATM   42  C6  UNL     1      35.122  26.749  22.746  1.00  0.00     0.077 C 
HETATM   43  C7  UNL     1      36.076  27.860  23.057  1.00  0.00     0.024 C 
HETATM   44  C8  UNL     1      35.436  29.230  22.782  1.00  0.00     0.002 C 
HETATM   45  C9  UNL     1      34.093  29.213  23.498  1.00  0.00     0.000 C 
HETATM   46  C10 UNL     1      33.193  28.339  22.648  1.00  0.00     0.002 C 
HETATM   47  C11 UNL     1      33.995  27.334  21.851  1.00  0.00     0.024 C 
ENDBRANCH  40  42
ENDBRANCH  30  40
ENDBRANCH  29  30
BRANCH  29  48
HETATM   48  O2  UNL     1      37.517  24.383  20.301  1.00  0.00    -0.348 OA
ATOM     49  H2  UNL     1      38.215  24.515  20.932  1.00  0.00     0.219 HD
ENDBRANCH  29  48
ENDBRANCH   1  29
TORSDOF 18
ENDMDL
MODEL 5
REMARK VINA RESULT: -6.081307422      1.884      4.756
REMARK  18 active torsions:
REMARK  status: ('A' for Active; 'I' for Inactive)
REMARK    1  A    between atoms: C2_2  and  N1_3 
REMARK    2  A    between atoms: C2_2  and  C3_7 
REMARK    3  A    between atoms: C3_7  and  O1_8 
REMARK    4  A    between atoms: O1_8  and  C4_9 
REMARK    5  A    between atoms: C4_9  and  C5_10 
REMARK    6  A    between atoms: C5_10  and  N2_11 
REMARK    7  A    between atoms: C5_10  and  C12_19 
REMARK    8  A    between atoms: N2_11  and  C6_13 
REMARK    9  A    between atoms: C12_19  and  O2_20 
REMARK   10  A    between atoms: C12_19  and  N3_22 
REMARK   11  A    between atoms: C16_26  and  C17_27 
REMARK       I    between atoms: C17_27  and  N4_29 
REMARK   12  A    between atoms: N4_29  and  C18_31 
REMARK   13  A    between atoms: C18_31  and  C19_32 
REMARK   14  A    between atoms: C18_31  and  C26_39 
REMARK   15  A    between atoms: C19_32  and  C20_33 
REMARK       I    between atoms: C26_39  and  N5_41 
REMARK   16  A    between atoms: N5_41  and  C27_43 
REMARK   17  A    between atoms: C27_43  and  C28_44 
REMARK   18  A    between atoms: C27_43  and  C29_47 
ROOT
HETATM    1  N3  UNL     1      36.909  28.249  18.397  1.00  0.00    -0.350 N 
HETATM    2  C13 UNL     1      37.474  28.950  19.495  1.00  0.00     0.126 C 
HETATM    3  C14 UNL     1      38.920  28.560  19.586  1.00  0.00     0.022 C 
HETATM    4  C15 UNL     1      39.160  27.692  18.391  1.00  0.00     0.037 C 
HETATM    5  C16 UNL     1      37.815  27.076  18.175  1.00  0.00     0.178 C 
ENDROOT
BRANCH   5   6
HETATM    6  C17 UNL     1      37.465  25.996  19.116  1.00  0.00     0.241 C 
HETATM    7  O3  UNL     1      38.335  25.141  19.409  1.00  0.00    -0.271 OA
HETATM    8  N4  UNL     1      36.199  25.879  19.704  1.00  0.00    -0.346 N 
ATOM      9  H4  UNL     1      35.506  26.585  19.459  1.00  0.00     0.163 HD
BRANCH   8  10
HETATM   10  C18 UNL     1      35.786  24.844  20.629  1.00  0.00     0.177 C 
BRANCH  10  11
HETATM   11  C19 UNL     1      35.346  25.368  21.942  1.00  0.00     0.039 C 
BRANCH  11  12
HETATM   12  C20 UNL     1      34.825  26.740  22.027  1.00  0.00    -0.012 C 
HETATM   13  C21 UNL     1      35.827  27.554  22.872  1.00  0.00     0.005 C 
HETATM   14  C22 UNL     1      35.433  29.026  22.824  1.00  0.00     0.000 C 
HETATM   15  C23 UNL     1      34.095  29.148  23.512  1.00  0.00     0.000 C 
HETATM   16  C24 UNL     1      33.081  28.362  22.760  1.00  0.00     0.000 C 
HETATM   17  C25 UNL     1      33.447  26.896  22.608  1.00  0.00     0.005 C 
ENDBRANCH  11  12
ENDBRANCH  10  11
BRANCH  10  18
HETATM   18  C26 UNL     1      34.928  23.850  19.981  1.00  0.00     0.241 C 
HETATM   19  O4  UNL     1      33.692  24.079  19.871  1.00  0.00    -0.271 OA
HETATM   20  N5  UNL     1      35.437  22.639  19.472  1.00  0.00    -0.346 N 
ATOM     21  H5  UNL     1      36.433  22.426  19.543  1.00  0.00     0.163 HD
BRANCH  20  22
HETATM   22  C27 UNL     1      34.527  21.694  18.843  1.00  0.00     0.177 C 
BRANCH  22  23
HETATM   23  C28 UNL     1      34.238  20.525  19.677  1.00  0.00     0.254 C 
HETATM   24  N6  UNL     1      34.175  20.691  21.090  1.00  0.00    -0.060 NA
HETATM   25  O5  UNL     1      34.041  19.375  19.219  1.00  0.00    -0.275 OA
ENDBRANCH  22  23
BRANCH  22  26
HETATM   26  C29 UNL     1      35.081  21.277  17.487  1.00  0.00     0.009 C 
HETATM   27  C30 UNL     1      34.044  21.264  16.406  1.00  0.00     0.012 C 
HETATM   28  C31 UNL     1      36.257  22.092  17.050  1.00  0.00     0.012 C 
ENDBRANCH  22  26
ENDBRANCH  20  22
ENDBRANCH  10  18
ENDBRANCH   8  10
ENDBRANCH   5   6
BRANCH   1  29
HETATM   29  C12 UNL     1      35.783  28.500  17.629  1.00  0.00     0.139 C 
BRANCH  29  30
HETATM   30  C5  UNL     1      34.351  28.227  17.702  1.00  0.00     0.176 C 
BRANCH  30  31
HETATM   31  C4  UNL     1      33.783  27.044  17.059  1.00  0.00     0.200 C 
BRANCH  31  32
HETATM   32  O1  UNL     1      34.566  25.868  17.169  1.00  0.00    -0.387 OA
BRANCH  32  33
HETATM   33  C3  UNL     1      33.920  24.915  16.377  1.00  0.00     0.200 C 
BRANCH  33  34
HETATM   34  C2  UNL     1      32.422  24.937  16.525  1.00  0.00     0.203 C 
HETATM   35  C1  UNL     1      31.845  24.387  15.216  1.00  0.00     0.042 C 
BRANCH  34  36
HETATM   36  N1  UNL     1      31.977  24.002  17.558  1.00  0.00    -0.073 N 
ATOM     37  H13 UNL     1      32.541  23.155  17.619  1.00  0.00     0.274 HD
ATOM     38  H12 UNL     1      32.149  24.325  18.510  1.00  0.00     0.274 HD
ATOM     39  H11 UNL     1      30.993  23.829  17.352  1.00  0.00     0.274 HD
ENDBRANCH  34  36
ENDBRANCH  33  34
ENDBRANCH  32  33
ENDBRANCH  31  32
ENDBRANCH  30  31
BRANCH  30  40
HETATM   40  N2  UNL     1      33.970  28.406  19.059  1.00  0.00    -0.404 N 
ATOM     41  H2  UNL     1      34.361  27.764  19.750  1.00  0.00     0.154 HD
BRANCH  40  42
HETATM   42  C6  UNL     1      33.108  29.386  19.507  1.00  0.00     0.077 C 
HETATM   43  C7  UNL     1      33.155  30.761  18.918  1.00  0.00     0.024 C 
HETATM   44  C8  UNL     1      31.743  31.349  18.776  1.00  0.00     0.002 C 
HETATM   45  C9  UNL     1      31.079  31.171  20.134  1.00  0.00     0.000 C 
HETATM   46  C10 UNL     1      30.731  29.698  20.223  1.00  0.00     0.002 C 
HETATM   47  C11 UNL     1      31.653  28.863  19.362  1.00  0.00     0.024 C 
ENDBRANCH  40  42
ENDBRANCH  30  40
ENDBRANCH  29  30
BRANCH  29  48
HETATM   48  O2  UNL     1      36.073  29.179  16.522  1.00  0.00    -0.348 OA
ATOM     49  H2  UNL     1      36.952  29.536  16.571  1.00  0.00     0.219 HD
ENDBRANCH  29  48
ENDBRANCH   1  29
TORSDOF 18
ENDMDL
