MODEL 1
REMARK VINA RESULT: -6.453033915      0.000      0.000
REMARK  20 active torsions:
REMARK  status: ('A' for Active; 'I' for Inactive)
REMARK    1  A    between atoms: C2_2  and  C3_3 
REMARK    2  A    between atoms: C3_3  and  C5_5 
REMARK    3  A    between atoms: C6_6  and  N1_7 
REMARK    4  A    between atoms: C6_6  and  C24_37 
REMARK    5  A    between atoms: N1_7  and  C7_9 
REMARK    6  A    between atoms: C7_9  and  O1_10 
REMARK    7  A    between atoms: C7_9  and  C8_12 
REMARK       I    between atoms: N2_16  and  C12_17 
REMARK    8  A    between atoms: C12_17  and  C13_19 
REMARK    9  A    between atoms: C13_19  and  N3_20 
REMARK   10  A    between atoms: C13_19  and  C21_34 
REMARK   11  A    between atoms: N3_20  and  C14_22 
REMARK   12  A    between atoms: C14_22  and  O3_23 
REMARK   13  A    between atoms: C14_22  and  C15_25 
REMARK   14  A    between atoms: C15_25  and  N5_28 
REMARK   15  A    between atoms: N5_28  and  C17_30 
REMARK       I    between atoms: C24_37  and  N6_39 
REMARK   16  A    between atoms: N6_39  and  C25_41 
REMARK   17  A    between atoms: C25_41  and  C26_42 
REMARK   18  A    between atoms: C25_41  and  C28_47 
REMARK   19  A    between atoms: C26_42  and  C27_44 
REMARK   20  A    between atoms: C27_44  and  O6_45 
ROOT
HETATM    1  C15 UNL     1      36.663  28.028  19.670  1.00  0.00     0.261 C 
HETATM    2  C16 UNL     1      36.513  26.807  18.797  1.00  0.00     0.092 C 
HETATM    3  N4  UNL     1      36.398  25.878  18.124  1.00  0.00    -0.195 NA
ENDROOT
BRANCH   1   4
HETATM    4  C14 UNL     1      36.481  29.231  18.868  1.00  0.00     0.149 C 
BRANCH   4   5
HETATM    5  N3  UNL     1      35.910  29.378  17.590  1.00  0.00    -0.358 N 
ATOM      6  H3  UNL     1      36.454  29.225  16.740  1.00  0.00     0.162 HD
BRANCH   5   7
HETATM    7  C13 UNL     1      34.525  29.754  17.538  1.00  0.00     0.179 C 
BRANCH   7   8
HETATM    8  C12 UNL     1      33.479  28.778  17.667  1.00  0.00     0.243 C 
HETATM    9  N2  UNL     1      32.511  28.896  18.767  1.00  0.00    -0.338 N 
HETATM   10  C8  UNL     1      31.244  28.298  18.848  1.00  0.00     0.162 C 
HETATM   11  C11 UNL     1      32.836  29.624  19.983  1.00  0.00     0.127 C 
HETATM   12  C9  UNL     1      30.494  29.332  19.735  1.00  0.00     0.035 C 
HETATM   13  C10 UNL     1      31.533  29.773  20.736  1.00  0.00     0.022 C 
HETATM   14  O2  UNL     1      33.285  27.811  16.903  1.00  0.00    -0.271 OA
BRANCH  10  15
HETATM   15  C7  UNL     1      30.955  26.964  19.232  1.00  0.00     0.139 C 
BRANCH  15  16
HETATM   16  N1  UNL     1      31.618  25.876  19.789  1.00  0.00    -0.335 N 
ATOM     17  H1  UNL     1      31.339  25.506  20.698  1.00  0.00     0.168 HD
BRANCH  16  18
HETATM   18  C6  UNL     1      32.748  25.261  19.029  1.00  0.00     0.099 C 
HETATM   19  C5  UNL     1      32.482  24.882  17.677  1.00  0.00     0.013 C 
BRANCH  19  20
HETATM   20  C3  UNL     1      31.421  23.910  17.327  1.00  0.00     0.006 C 
HETATM   21  C4  UNL     1      30.537  24.467  16.241  1.00  0.00     0.014 C 
BRANCH  20  22
HETATM   22  C2  UNL     1      31.863  22.535  16.908  1.00  0.00     0.003 C 
HETATM   23  C1  UNL     1      33.196  22.674  16.183  1.00  0.00     0.006 C 
ENDBRANCH  20  22
ENDBRANCH  19  20
BRANCH  18  24
HETATM   24  C24 UNL     1      33.539  24.463  19.970  1.00  0.00     0.268 C 
HETATM   25  O4  UNL     1      33.216  24.557  21.211  1.00  0.00    -0.266 OA
HETATM   26  N6  UNL     1      34.621  23.626  19.696  1.00  0.00    -0.344 N 
ATOM     27  H6  UNL     1      34.867  23.484  18.715  1.00  0.00     0.163 HD
BRANCH  26  28
HETATM   28  C25 UNL     1      35.420  22.944  20.683  1.00  0.00     0.160 C 
BRANCH  28  29
HETATM   29  C26 UNL     1      36.779  23.540  20.771  1.00  0.00     0.172 C 
HETATM   30  O5  UNL     1      37.003  24.445  21.562  1.00  0.00    -0.293 OA
BRANCH  29  31
HETATM   31  C27 UNL     1      37.902  23.070  19.930  1.00  0.00     0.244 C 
BRANCH  31  32
HETATM   32  O6  UNL     1      39.012  22.703  20.724  1.00  0.00    -0.394 OA
ATOM     33  H6  UNL     1      39.629  22.179  20.227  1.00  0.00     0.209 HD
ENDBRANCH  31  32
ENDBRANCH  29  31
ENDBRANCH  28  29
BRANCH  28  34
HETATM   34  C28 UNL     1      35.353  21.487  20.569  1.00  0.00     0.008 C 
HETATM   35  C29 UNL     1      34.519  20.827  21.667  1.00  0.00     0.012 C 
HETATM   36  C30 UNL     1      34.503  21.188  19.303  1.00  0.00     0.012 C 
ENDBRANCH  28  34
ENDBRANCH  26  28
ENDBRANCH  18  24
ENDBRANCH  16  18
ENDBRANCH  15  16
BRANCH  15  37
HETATM   37  O1  UNL     1      29.655  26.676  18.958  1.00  0.00    -0.348 OA
ATOM     38  H1  UNL     1      29.111  27.454  18.972  1.00  0.00     0.219 HD
ENDBRANCH  15  37
ENDBRANCH  10  15
ENDBRANCH   7   8
BRANCH   7  39
HETATM   39  C21 UNL     1      34.405  30.319  16.052  1.00  0.00     0.009 C 
HETATM   40  C22 UNL     1      35.608  31.146  15.724  1.00  0.00     0.012 C 
HETATM   41  C23 UNL     1      33.180  31.184  15.993  1.00  0.00     0.012 C 
ENDBRANCH   7  39
ENDBRANCH   5   7
ENDBRANCH   4   5
BRANCH   4  42
HETATM   42  O3  UNL     1      36.922  30.336  19.437  1.00  0.00    -0.347 OA
ATOM     43  H3  UNL     1      36.302  31.053  19.494  1.00  0.00     0.219 HD
ENDBRANCH   4  42
ENDBRANCH   1   4
BRANCH   1  44
HETATM   44  N5  UNL     1      35.619  27.954  20.700  1.00  0.00    -0.392 N 
ATOM     45  H5  UNL     1      34.642  27.803  20.450  1.00  0.00     0.155 HD
BRANCH  44  46
HETATM   46  C17 UNL     1      36.010  28.100  22.044  1.00  0.00     0.016 C 
HETATM   47  C18 UNL     1      35.338  29.390  22.555  1.00  0.00     0.037 C 
HETATM   48  C19 UNL     1      37.480  28.266  22.250  1.00  0.00     0.037 C 
HETATM   49  C20 UNL     1      35.469  26.992  22.940  1.00  0.00     0.037 C 
ENDBRANCH  44  46
ENDBRANCH   1  44
TORSDOF 20
ENDMDL
MODEL 2
REMARK VINA RESULT: -6.289063974      2.126      6.356
REMARK  20 active torsions:
REMARK  status: ('A' for Active; 'I' for Inactive)
REMARK    1  A    between atoms: C2_2  and  C3_3 
REMARK    2  A    between atoms: C3_3  and  C5_5 
REMARK    3  A    between atoms: C6_6  and  N1_7 
REMARK    4  A    between atoms: C6_6  and  C24_37 
REMARK    5  A    between atoms: N1_7  and  C7_9 
REMARK    6  A    between atoms: C7_9  and  O1_10 
REMARK    7  A    between atoms: C7_9  and  C8_12 
REMARK       I    between atoms: N2_16  and  C12_17 
REMARK    8  A    between atoms: C12_17  and  C13_19 
REMARK    9  A    between atoms: C13_19  and  N3_20 
REMARK   10  A    between atoms: C13_19  and  C21_34 
REMARK   11  A    between atoms: N3_20  and  C14_22 
REMARK   12  A    between atoms: C14_22  and  O3_23 
REMARK   13  A    between atoms: C14_22  and  C15_25 
REMARK   14  A    between atoms: C15_25  and  N5_28 
REMARK   15  A    between atoms: N5_28  and  C17_30 
REMARK       I    between atoms: C24_37  and  N6_39 
REMARK   16  A    between atoms: N6_39  and  C25_41 
REMARK   17  A    between atoms: C25_41  and  C26_42 
REMARK   18  A    between atoms: C25_41  and  C28_47 
REMARK   19  A    between atoms: C26_42  and  C27_44 
REMARK   20  A    between atoms: C27_44  and  O6_45 
ROOT
HETATM    1  C15 UNL     1      36.321  23.756  20.251  1.00  0.00     0.261 C 
HETATM    2  C16 UNL     1      36.601  23.452  21.701  1.00  0.00     0.092 C 
HETATM    3  N4  UNL     1      36.820  23.224  22.810  1.00  0.00    -0.195 NA
ENDROOT
BRANCH   1   4
HETATM    4  C14 UNL     1      37.459  24.454  19.667  1.00  0.00     0.149 C 
BRANCH   4   5
HETATM    5  N3  UNL     1      37.499  25.673  18.965  1.00  0.00    -0.358 N 
ATOM      6  H3  UNL     1      37.574  25.702  17.948  1.00  0.00     0.162 HD
BRANCH   5   7
HETATM    7  C13 UNL     1      37.428  26.875  19.749  1.00  0.00     0.179 C 
BRANCH   7   8
HETATM    8  C12 UNL     1      36.209  27.626  19.859  1.00  0.00     0.243 C 
HETATM    9  N2  UNL     1      35.594  27.817  21.180  1.00  0.00    -0.338 N 
HETATM   10  C8  UNL     1      34.655  28.794  21.544  1.00  0.00     0.162 C 
HETATM   11  C11 UNL     1      35.860  26.899  22.276  1.00  0.00     0.127 C 
HETATM   12  C9  UNL     1      34.986  28.964  23.054  1.00  0.00     0.035 C 
HETATM   13  C10 UNL     1      35.303  27.563  23.515  1.00  0.00     0.022 C 
HETATM   14  O2  UNL     1      35.601  28.173  18.917  1.00  0.00    -0.271 OA
BRANCH  10  15
HETATM   15  C7  UNL     1      33.257  28.761  21.310  1.00  0.00     0.139 C 
BRANCH  15  16
HETATM   16  N1  UNL     1      32.383  28.802  20.229  1.00  0.00    -0.335 N 
ATOM     17  H1  UNL     1      31.468  28.354  20.282  1.00  0.00     0.168 HD
BRANCH  16  18
HETATM   18  C6  UNL     1      32.813  29.515  18.989  1.00  0.00     0.099 C 
HETATM   19  C5  UNL     1      32.757  30.943  19.016  1.00  0.00     0.013 C 
BRANCH  19  20
HETATM   20  C3  UNL     1      31.496  31.676  19.270  1.00  0.00     0.006 C 
HETATM   21  C4  UNL     1      30.860  32.093  17.968  1.00  0.00     0.014 C 
BRANCH  20  22
HETATM   22  C2  UNL     1      30.451  30.976  20.094  1.00  0.00     0.003 C 
HETATM   23  C1  UNL     1      29.154  30.967  19.295  1.00  0.00     0.006 C 
ENDBRANCH  20  22
ENDBRANCH  19  20
BRANCH  18  24
HETATM   24  C24 UNL     1      32.416  28.695  17.840  1.00  0.00     0.268 C 
HETATM   25  O4  UNL     1      31.159  28.449  17.721  1.00  0.00    -0.266 OA
HETATM   26  N6  UNL     1      33.232  28.123  16.864  1.00  0.00    -0.344 N 
ATOM     27  H6  UNL     1      34.228  28.345  16.896  1.00  0.00     0.163 HD
BRANCH  26  28
HETATM   28  C25 UNL     1      32.785  27.243  15.814  1.00  0.00     0.160 C 
BRANCH  28  29
HETATM   29  C26 UNL     1      33.355  25.881  15.983  1.00  0.00     0.172 C 
HETATM   30  O5  UNL     1      32.955  24.957  15.289  1.00  0.00    -0.293 OA
BRANCH  29  31
HETATM   31  C27 UNL     1      34.416  25.587  16.972  1.00  0.00     0.244 C 
BRANCH  31  32
HETATM   32  O6  UNL     1      35.590  26.321  16.690  1.00  0.00    -0.394 OA
ATOM     33  H6  UNL     1      36.178  26.324  17.436  1.00  0.00     0.209 HD
ENDBRANCH  31  32
ENDBRANCH  29  31
ENDBRANCH  28  29
BRANCH  28  34
HETATM   34  C28 UNL     1      32.899  27.836  14.481  1.00  0.00     0.008 C 
HETATM   35  C29 UNL     1      31.773  28.816  14.151  1.00  0.00     0.012 C 
HETATM   36  C30 UNL     1      34.134  28.778  14.528  1.00  0.00     0.012 C 
ENDBRANCH  28  34
ENDBRANCH  26  28
ENDBRANCH  18  24
ENDBRANCH  16  18
ENDBRANCH  15  16
BRANCH  15  37
HETATM   37  O1  UNL     1      32.592  28.680  22.493  1.00  0.00    -0.348 OA
ATOM     38  H1  UNL     1      33.176  28.789  23.234  1.00  0.00     0.219 HD
ENDBRANCH  15  37
ENDBRANCH  10  15
ENDBRANCH   7   8
BRANCH   7  39
HETATM   39  C21 UNL     1      38.447  27.821  18.970  1.00  0.00     0.009 C 
HETATM   40  C22 UNL     1      39.557  27.003  18.388  1.00  0.00     0.012 C 
HETATM   41  C23 UNL     1      39.017  28.790  19.965  1.00  0.00     0.012 C 
ENDBRANCH   7  39
ENDBRANCH   5   7
ENDBRANCH   4   5
BRANCH   4  42
HETATM   42  O3  UNL     1      38.614  23.839  19.828  1.00  0.00    -0.347 OA
ATOM     43  H3  UNL     1      38.810  23.146  19.207  1.00  0.00     0.219 HD
ENDBRANCH   4  42
ENDBRANCH   1   4
BRANCH   1  44
HETATM   44  N5  UNL     1      36.123  22.470  19.570  1.00  0.00    -0.392 N 
ATOM     45  H5  UNL     1      36.916  21.936  19.212  1.00  0.00     0.155 HD
BRANCH  44  46
HETATM   46  C17 UNL     1      34.805  21.998  19.427  1.00  0.00     0.016 C 
HETATM   47  C18 UNL     1      34.704  21.416  18.003  1.00  0.00     0.037 C 
HETATM   48  C19 UNL     1      33.751  23.050  19.541  1.00  0.00     0.037 C 
HETATM   49  C20 UNL     1      34.493  20.828  20.354  1.00  0.00     0.037 C 
ENDBRANCH  44  46
ENDBRANCH   1  44
TORSDOF 20
ENDMDL
MODEL 3
REMARK VINA RESULT: -6.157569085      2.603      7.451
REMARK  20 active torsions:
REMARK  status: ('A' for Active; 'I' for Inactive)
REMARK    1  A    between atoms: C2_2  and  C3_3 
REMARK    2  A    between atoms: C3_3  and  C5_5 
REMARK    3  A    between atoms: C6_6  and  N1_7 
REMARK    4  A    between atoms: C6_6  and  C24_37 
REMARK    5  A    between atoms: N1_7  and  C7_9 
REMARK    6  A    between atoms: C7_9  and  O1_10 
REMARK    7  A    between atoms: C7_9  and  C8_12 
REMARK       I    between atoms: N2_16  and  C12_17 
REMARK    8  A    between atoms: C12_17  and  C13_19 
REMARK    9  A    between atoms: C13_19  and  N3_20 
REMARK   10  A    between atoms: C13_19  and  C21_34 
REMARK   11  A    between atoms: N3_20  and  C14_22 
REMARK   12  A    between atoms: C14_22  and  O3_23 
REMARK   13  A    between atoms: C14_22  and  C15_25 
REMARK   14  A    between atoms: C15_25  and  N5_28 
REMARK   15  A    between atoms: N5_28  and  C17_30 
REMARK       I    between atoms: C24_37  and  N6_39 
REMARK   16  A    between atoms: N6_39  and  C25_41 
REMARK   17  A    between atoms: C25_41  and  C26_42 
REMARK   18  A    between atoms: C25_41  and  C28_47 
REMARK   19  A    between atoms: C26_42  and  C27_44 
REMARK   20  A    between atoms: C27_44  and  O6_45 
ROOT
HETATM    1  C15 UNL     1      36.558  27.677  21.850  1.00  0.00     0.261 C 
HETATM    2  C16 UNL     1      35.968  28.829  22.623  1.00  0.00     0.092 C 
HETATM    3  N4  UNL     1      35.513  29.706  23.218  1.00  0.00    -0.195 NA
ENDROOT
BRANCH   1   4
HETATM    4  C14 UNL     1      35.885  26.440  22.221  1.00  0.00     0.149 C 
BRANCH   4   5
HETATM    5  N3  UNL     1      36.059  25.138  21.716  1.00  0.00    -0.358 N 
ATOM      6  H3  UNL     1      36.691  24.472  22.161  1.00  0.00     0.162 HD
BRANCH   5   7
HETATM    7  C13 UNL     1      35.306  24.792  20.543  1.00  0.00     0.179 C 
BRANCH   7   8
HETATM    8  C12 UNL     1      33.878  24.946  20.498  1.00  0.00     0.243 C 
HETATM    9  N2  UNL     1      33.226  25.262  19.219  1.00  0.00    -0.338 N 
HETATM   10  C8  UNL     1      31.873  25.085  18.893  1.00  0.00     0.162 C 
HETATM   11  C11 UNL     1      33.955  25.903  18.138  1.00  0.00     0.127 C 
HETATM   12  C9  UNL     1      31.974  24.856  17.358  1.00  0.00     0.035 C 
HETATM   13  C10 UNL     1      33.063  25.804  16.921  1.00  0.00     0.022 C 
HETATM   14  O2  UNL     1      33.099  24.817  21.464  1.00  0.00    -0.271 OA
BRANCH  10  15
HETATM   15  C7  UNL     1      30.796  25.945  19.229  1.00  0.00     0.139 C 
BRANCH  15  16
HETATM   16  N1  UNL     1      30.590  27.290  19.510  1.00  0.00    -0.335 N 
ATOM     17  H1  UNL     1      30.277  27.587  20.435  1.00  0.00     0.168 HD
BRANCH  16  18
HETATM   18  C6  UNL     1      30.836  28.293  18.431  1.00  0.00     0.099 C 
HETATM   19  C5  UNL     1      32.001  29.110  18.565  1.00  0.00     0.013 C 
BRANCH  19  20
HETATM   20  C3  UNL     1      32.215  29.987  19.738  1.00  0.00     0.006 C 
HETATM   21  C4  UNL     1      33.658  30.417  19.815  1.00  0.00     0.014 C 
BRANCH  20  22
HETATM   22  C2  UNL     1      31.357  31.217  19.839  1.00  0.00     0.003 C 
HETATM   23  C1  UNL     1      31.439  31.955  18.508  1.00  0.00     0.006 C 
ENDBRANCH  20  22
ENDBRANCH  19  20
BRANCH  18  24
HETATM   24  C24 UNL     1      29.534  28.783  17.967  1.00  0.00     0.268 C 
HETATM   25  O4  UNL     1      29.548  29.548  16.934  1.00  0.00    -0.266 OA
HETATM   26  N6  UNL     1      28.275  28.545  18.519  1.00  0.00    -0.344 N 
ATOM     27  H6  UNL     1      28.223  27.896  19.305  1.00  0.00     0.163 HD
BRANCH  26  28
HETATM   28  C25 UNL     1      27.041  29.140  18.070  1.00  0.00     0.160 C 
BRANCH  28  29
HETATM   29  C26 UNL     1      26.432  29.971  19.140  1.00  0.00     0.172 C 
HETATM   30  O5  UNL     1      25.254  29.825  19.436  1.00  0.00    -0.293 OA
BRANCH  29  31
HETATM   31  C27 UNL     1      27.207  30.986  19.888  1.00  0.00     0.244 C 
BRANCH  31  32
HETATM   32  O6  UNL     1      28.048  30.378  20.848  1.00  0.00    -0.394 OA
ATOM     33  H6  UNL     1      28.814  30.913  21.018  1.00  0.00     0.209 HD
ENDBRANCH  31  32
ENDBRANCH  29  31
ENDBRANCH  28  29
BRANCH  28  34
HETATM   34  C28 UNL     1      26.155  28.186  17.401  1.00  0.00     0.008 C 
HETATM   35  C29 UNL     1      26.492  27.974  15.925  1.00  0.00     0.012 C 
HETATM   36  C30 UNL     1      26.481  26.792  18.003  1.00  0.00     0.012 C 
ENDBRANCH  28  34
ENDBRANCH  26  28
ENDBRANCH  18  24
ENDBRANCH  16  18
ENDBRANCH  15  16
BRANCH  15  37
HETATM   37  O1  UNL     1      29.642  25.231  19.308  1.00  0.00    -0.348 OA
ATOM     38  H1  UNL     1      29.586  24.573  18.625  1.00  0.00     0.219 HD
ENDBRANCH  15  37
ENDBRANCH  10  15
ENDBRANCH   7   8
BRANCH   7  39
HETATM   39  C21 UNL     1      35.571  23.223  20.448  1.00  0.00     0.009 C 
HETATM   40  C22 UNL     1      36.439  22.784  21.586  1.00  0.00     0.012 C 
HETATM   41  C23 UNL     1      36.284  22.961  19.153  1.00  0.00     0.012 C 
ENDBRANCH   7  39
ENDBRANCH   5   7
ENDBRANCH   4   5
BRANCH   4  42
HETATM   42  O3  UNL     1      34.982  26.577  23.173  1.00  0.00    -0.347 OA
ATOM     43  H3  UNL     1      35.012  27.390  23.663  1.00  0.00     0.219 HD
ENDBRANCH   4  42
ENDBRANCH   1   4
BRANCH   1  44
HETATM   44  N5  UNL     1      36.338  27.955  20.424  1.00  0.00    -0.392 N 
ATOM     45  H5  UNL     1      35.400  27.934  20.023  1.00  0.00     0.155 HD
BRANCH  44  46
HETATM   46  C17 UNL     1      37.461  28.250  19.630  1.00  0.00     0.016 C 
HETATM   47  C18 UNL     1      37.760  26.979  18.809  1.00  0.00     0.037 C 
HETATM   48  C19 UNL     1      38.701  28.570  20.400  1.00  0.00     0.037 C 
HETATM   49  C20 UNL     1      37.184  29.333  18.593  1.00  0.00     0.037 C 
ENDBRANCH  44  46
ENDBRANCH   1  44
TORSDOF 20
ENDMDL
MODEL 4
REMARK VINA RESULT: -6.147479811      1.611      6.258
REMARK  20 active torsions:
REMARK  status: ('A' for Active; 'I' for Inactive)
REMARK    1  A    between atoms: C2_2  and  C3_3 
REMARK    2  A    between atoms: C3_3  and  C5_5 
REMARK    3  A    between atoms: C6_6  and  N1_7 
REMARK    4  A    between atoms: C6_6  and  C24_37 
REMARK    5  A    between atoms: N1_7  and  C7_9 
REMARK    6  A    between atoms: C7_9  and  O1_10 
REMARK    7  A    between atoms: C7_9  and  C8_12 
REMARK       I    between atoms: N2_16  and  C12_17 
REMARK    8  A    between atoms: C12_17  and  C13_19 
REMARK    9  A    between atoms: C13_19  and  N3_20 
REMARK   10  A    between atoms: C13_19  and  C21_34 
REMARK   11  A    between atoms: N3_20  and  C14_22 
REMARK   12  A    between atoms: C14_22  and  O3_23 
REMARK   13  A    between atoms: C14_22  and  C15_25 
REMARK   14  A    between atoms: C15_25  and  N5_28 
REMARK   15  A    between atoms: N5_28  and  C17_30 
REMARK       I    between atoms: C24_37  and  N6_39 
REMARK   16  A    between atoms: N6_39  and  C25_41 
REMARK   17  A    between atoms: C25_41  and  C26_42 
REMARK   18  A    between atoms: C25_41  and  C28_47 
REMARK   19  A    between atoms: C26_42  and  C27_44 
REMARK   20  A    between atoms: C27_44  and  O6_45 
ROOT
HETATM    1  C15 UNL     1      36.225  27.615  21.395  1.00  0.00     0.261 C 
HETATM    2  C16 UNL     1      37.359  28.168  22.223  1.00  0.00     0.092 C 
HETATM    3  N4  UNL     1      38.230  28.586  22.853  1.00  0.00    -0.195 NA
ENDROOT
BRANCH   1   4
HETATM    4  C14 UNL     1      36.596  26.311  20.863  1.00  0.00     0.149 C 
BRANCH   4   5
HETATM    5  N3  UNL     1      36.158  25.029  21.246  1.00  0.00    -0.358 N 
ATOM      6  H3  UNL     1      36.462  24.599  22.119  1.00  0.00     0.162 HD
BRANCH   5   7
HETATM    7  C13 UNL     1      35.262  24.356  20.348  1.00  0.00     0.179 C 
BRANCH   7   8
HETATM    8  C12 UNL     1      33.874  24.718  20.263  1.00  0.00     0.243 C 
HETATM    9  N2  UNL     1      33.189  24.655  18.964  1.00  0.00    -0.338 N 
HETATM   10  C8  UNL     1      31.806  24.600  18.738  1.00  0.00     0.162 C 
HETATM   11  C11 UNL     1      33.930  24.734  17.716  1.00  0.00     0.127 C 
HETATM   12  C9  UNL     1      31.764  23.820  17.393  1.00  0.00     0.035 C 
HETATM   13  C10 UNL     1      32.950  24.353  16.628  1.00  0.00     0.022 C 
HETATM   14  O2  UNL     1      33.154  25.076  21.216  1.00  0.00    -0.271 OA
BRANCH  10  15
HETATM   15  C7  UNL     1      30.896  25.689  18.746  1.00  0.00     0.139 C 
BRANCH  15  16
HETATM   16  N1  UNL     1      30.814  26.976  18.229  1.00  0.00    -0.335 N 
ATOM     17  H1  UNL     1      30.139  27.201  17.497  1.00  0.00     0.168 HD
BRANCH  16  18
HETATM   18  C6  UNL     1      31.733  28.024  18.765  1.00  0.00     0.099 C 
HETATM   19  C5  UNL     1      31.148  29.030  19.594  1.00  0.00     0.013 C 
BRANCH  19  20
HETATM   20  C3  UNL     1      30.061  29.912  19.111  1.00  0.00     0.006 C 
HETATM   21  C4  UNL     1      29.215  30.383  20.266  1.00  0.00     0.014 C 
BRANCH  20  22
HETATM   22  C2  UNL     1      30.464  31.117  18.308  1.00  0.00     0.003 C 
HETATM   23  C1  UNL     1      31.517  31.879  19.103  1.00  0.00     0.006 C 
ENDBRANCH  20  22
ENDBRANCH  19  20
BRANCH  18  24
HETATM   24  C24 UNL     1      32.758  28.285  17.750  1.00  0.00     0.268 C 
HETATM   25  O4  UNL     1      32.589  27.716  16.609  1.00  0.00    -0.266 OA
HETATM   26  N6  UNL     1      33.914  29.056  17.868  1.00  0.00    -0.344 N 
ATOM     27  H6  UNL     1      34.050  29.567  18.740  1.00  0.00     0.163 HD
BRANCH  26  28
HETATM   28  C25 UNL     1      34.934  29.192  16.857  1.00  0.00     0.160 C 
BRANCH  28  29
HETATM   29  C26 UNL     1      36.202  28.551  17.293  1.00  0.00     0.172 C 
HETATM   30  O5  UNL     1      36.369  27.350  17.134  1.00  0.00    -0.293 OA
BRANCH  29  31
HETATM   31  C27 UNL     1      37.301  29.321  17.917  1.00  0.00     0.244 C 
BRANCH  31  32
HETATM   32  O6  UNL     1      36.833  30.069  19.021  1.00  0.00    -0.394 OA
ATOM     33  H6  UNL     1      36.446  29.503  19.678  1.00  0.00     0.209 HD
ENDBRANCH  31  32
ENDBRANCH  29  31
ENDBRANCH  28  29
BRANCH  28  34
HETATM   34  C28 UNL     1      35.039  30.552  16.327  1.00  0.00     0.008 C 
HETATM   35  C29 UNL     1      35.626  30.612  14.916  1.00  0.00     0.012 C 
HETATM   36  C30 UNL     1      33.583  31.038  16.084  1.00  0.00     0.012 C 
ENDBRANCH  28  34
ENDBRANCH  26  28
ENDBRANCH  18  24
ENDBRANCH  16  18
ENDBRANCH  15  16
BRANCH  15  37
HETATM   37  O1  UNL     1      29.803  25.372  19.488  1.00  0.00    -0.348 OA
ATOM     38  H1  UNL     1      29.956  24.612  20.036  1.00  0.00     0.219 HD
ENDBRANCH  15  37
ENDBRANCH  10  15
ENDBRANCH   7   8
BRANCH   7  39
HETATM   39  C21 UNL     1      35.283  22.872  20.931  1.00  0.00     0.009 C 
HETATM   40  C22 UNL     1      36.483  22.688  21.807  1.00  0.00     0.012 C 
HETATM   41  C23 UNL     1      35.372  21.928  19.768  1.00  0.00     0.012 C 
ENDBRANCH   7  39
ENDBRANCH   5   7
ENDBRANCH   4   5
BRANCH   4  42
HETATM   42  O3  UNL     1      37.473  26.355  19.879  1.00  0.00    -0.347 OA
ATOM     43  H3  UNL     1      37.736  27.221  19.592  1.00  0.00     0.219 HD
ENDBRANCH   4  42
ENDBRANCH   1   4
BRANCH   1  44
HETATM   44  N5  UNL     1      35.066  27.478  22.287  1.00  0.00    -0.392 N 
ATOM     45  H5  UNL     1      34.875  26.600  22.771  1.00  0.00     0.155 HD
BRANCH  44  46
HETATM   46  C17 UNL     1      34.228  28.596  22.452  1.00  0.00     0.016 C 
HETATM   47  C18 UNL     1      32.785  28.056  22.496  1.00  0.00     0.037 C 
HETATM   48  C19 UNL     1      34.285  29.588  21.337  1.00  0.00     0.037 C 
HETATM   49  C20 UNL     1      34.429  29.292  23.794  1.00  0.00     0.037 C 
ENDBRANCH  44  46
ENDBRANCH   1  44
TORSDOF 20
ENDMDL
MODEL 5
REMARK VINA RESULT: -6.120298059      1.969      6.127
REMARK  20 active torsions:
REMARK  status: ('A' for Active; 'I' for Inactive)
REMARK    1  A    between atoms: C2_2  and  C3_3 
REMARK    2  A    between atoms: C3_3  and  C5_5 
REMARK    3  A    between atoms: C6_6  and  N1_7 
REMARK    4  A    between atoms: C6_6  and  C24_37 
REMARK    5  A    between atoms: N1_7  and  C7_9 
REMARK    6  A    between atoms: C7_9  and  O1_10 
REMARK    7  A    between atoms: C7_9  and  C8_12 
REMARK       I    between atoms: N2_16  and  C12_17 
REMARK    8  A    between atoms: C12_17  and  C13_19 
REMARK    9  A    between atoms: C13_19  and  N3_20 
REMARK   10  A    between atoms: C13_19  and  C21_34 
REMARK   11  A    between atoms: N3_20  and  C14_22 
REMARK   12  A    between atoms: C14_22  and  O3_23 
REMARK   13  A    between atoms: C14_22  and  C15_25 
REMARK   14  A    between atoms: C15_25  and  N5_28 
REMARK   15  A    between atoms: N5_28  and  C17_30 
REMARK       I    between atoms: C24_37  and  N6_39 
REMARK   16  A    between atoms: N6_39  and  C25_41 
REMARK   17  A    between atoms: C25_41  and  C26_42 
REMARK   18  A    between atoms: C25_41  and  C28_47 
REMARK   19  A    between atoms: C26_42  and  C27_44 
REMARK   20  A    between atoms: C27_44  and  O6_45 
ROOT
HETATM    1  C15 UNL     1      36.300  23.618  20.301  1.00  0.00     0.261 C 
HETATM    2  C16 UNL     1      36.575  23.402  21.768  1.00  0.00     0.092 C 
HETATM    3  N4  UNL     1      36.790  23.242  22.890  1.00  0.00    -0.195 NA
ENDROOT
BRANCH   1   4
HETATM    4  C14 UNL     1      37.425  24.313  19.688  1.00  0.00     0.149 C 
BRANCH   4   5
HETATM    5  N3  UNL     1      37.440  25.497  18.928  1.00  0.00    -0.358 N 
ATOM      6  H3  UNL     1      37.504  25.479  17.910  1.00  0.00     0.162 HD
BRANCH   5   7
HETATM    7  C13 UNL     1      37.362  26.734  19.655  1.00  0.00     0.179 C 
BRANCH   7   8
HETATM    8  C12 UNL     1      36.141  27.486  19.723  1.00  0.00     0.243 C 
HETATM    9  N2  UNL     1      35.563  27.809  21.036  1.00  0.00    -0.338 N 
HETATM   10  C8  UNL     1      34.627  28.813  21.325  1.00  0.00     0.162 C 
HETATM   11  C11 UNL     1      35.869  27.011  22.211  1.00  0.00     0.127 C 
HETATM   12  C9  UNL     1      35.001  29.140  22.799  1.00  0.00     0.035 C 
HETATM   13  C10 UNL     1      35.343  27.796  23.393  1.00  0.00     0.022 C 
HETATM   14  O2  UNL     1      35.500  27.929  18.748  1.00  0.00    -0.271 OA
BRANCH  10  15
HETATM   15  C7  UNL     1      33.223  28.749  21.138  1.00  0.00     0.139 C 
BRANCH  15  16
HETATM   16  N1  UNL     1      32.322  28.528  20.103  1.00  0.00    -0.335 N 
ATOM     17  H1  UNL     1      31.409  28.111  20.287  1.00  0.00     0.168 HD
BRANCH  16  18
HETATM   18  C6  UNL     1      32.718  28.913  18.715  1.00  0.00     0.099 C 
HETATM   19  C5  UNL     1      32.679  30.307  18.399  1.00  0.00     0.013 C 
BRANCH  19  20
HETATM   20  C3  UNL     1      31.436  31.103  18.506  1.00  0.00     0.006 C 
HETATM   21  C4  UNL     1      31.433  31.902  19.785  1.00  0.00     0.014 C 
BRANCH  20  22
HETATM   22  C2  UNL     1      31.122  32.038  17.372  1.00  0.00     0.003 C 
HETATM   23  C1  UNL     1      31.933  31.593  16.161  1.00  0.00     0.006 C 
ENDBRANCH  20  22
ENDBRANCH  19  20
BRANCH  18  24
HETATM   24  C24 UNL     1      32.274  27.849  17.809  1.00  0.00     0.268 C 
HETATM   25  O4  UNL     1      31.393  28.178  16.932  1.00  0.00    -0.266 OA
HETATM   26  N6  UNL     1      32.668  26.511  17.790  1.00  0.00    -0.344 N 
ATOM     27  H6  UNL     1      33.407  26.231  18.435  1.00  0.00     0.163 HD
BRANCH  26  28
HETATM   28  C25 UNL     1      32.117  25.492  16.932  1.00  0.00     0.160 C 
BRANCH  28  29
HETATM   29  C26 UNL     1      31.117  24.668  17.661  1.00  0.00     0.172 C 
HETATM   30  O5  UNL     1      30.765  23.588  17.209  1.00  0.00    -0.293 OA
BRANCH  29  31
HETATM   31  C27 UNL     1      30.522  25.103  18.944  1.00  0.00     0.244 C 
BRANCH  31  32
HETATM   32  O6  UNL     1      29.658  26.206  18.755  1.00  0.00    -0.394 OA
ATOM     33  H6  UNL     1      29.064  26.303  19.489  1.00  0.00     0.209 HD
ENDBRANCH  31  32
ENDBRANCH  29  31
ENDBRANCH  28  29
BRANCH  28  34
HETATM   34  C28 UNL     1      33.138  24.762  16.179  1.00  0.00     0.008 C 
HETATM   35  C29 UNL     1      33.320  25.272  14.749  1.00  0.00     0.012 C 
HETATM   36  C30 UNL     1      34.502  25.133  16.822  1.00  0.00     0.012 C 
ENDBRANCH  28  34
ENDBRANCH  26  28
ENDBRANCH  18  24
ENDBRANCH  16  18
ENDBRANCH  15  16
BRANCH  15  37
HETATM   37  O1  UNL     1      32.588  28.987  22.317  1.00  0.00    -0.348 OA
ATOM     38  H1  UNL     1      32.747  29.869  22.631  1.00  0.00     0.219 HD
ENDBRANCH  15  37
ENDBRANCH  10  15
ENDBRANCH   7   8
BRANCH   7  39
HETATM   39  C21 UNL     1      38.383  27.646  18.837  1.00  0.00     0.009 C 
HETATM   40  C22 UNL     1      39.581  26.841  18.443  1.00  0.00     0.012 C 
HETATM   41  C23 UNL     1      38.815  28.765  19.740  1.00  0.00     0.012 C 
ENDBRANCH   7  39
ENDBRANCH   5   7
ENDBRANCH   4   5
BRANCH   4  42
HETATM   42  O3  UNL     1      38.593  23.733  19.883  1.00  0.00    -0.347 OA
ATOM     43  H3  UNL     1      38.629  23.086  20.578  1.00  0.00     0.219 HD
ENDBRANCH   4  42
ENDBRANCH   1   4
BRANCH   1  44
HETATM   44  N5  UNL     1      36.143  22.291  19.691  1.00  0.00    -0.392 N 
ATOM     45  H5  UNL     1      36.953  21.702  19.495  1.00  0.00     0.155 HD
BRANCH  44  46
HETATM   46  C17 UNL     1      34.840  21.858  19.385  1.00  0.00     0.016 C 
HETATM   47  C18 UNL     1      34.493  20.761  20.411  1.00  0.00     0.037 C 
HETATM   48  C19 UNL     1      34.688  21.249  18.030  1.00  0.00     0.037 C 
HETATM   49  C20 UNL     1      33.791  22.945  19.601  1.00  0.00     0.037 C 
ENDBRANCH  44  46
ENDBRANCH   1  44
TORSDOF 20
ENDMDL
