MODEL 1
REMARK VINA RESULT: -6.977436163      0.000      0.000
REMARK  5 active torsions:
REMARK  status: ('A' for Active; 'I' for Inactive)
REMARK    1  A    between atoms: N1_1  and  C1_5 
REMARK    2  A    between atoms: C1_5  and  C2_6 
REMARK    3  A    between atoms: C1_5  and  C12_25 
REMARK    4  A    between atoms: C4_10  and  N3_11 
REMARK       I    between atoms: N3_11  and  C5_13 
REMARK       I    between atoms: C5_13  and  N4_15 
REMARK    5  A    between atoms: N4_15  and  C6_17 
ROOT
HETATM    1  C2  UNL     1      34.886  20.813  19.183  1.00  0.00     0.032 A 
HETATM    2  C3  UNL     1      34.838  20.626  20.540  1.00  0.00     0.107 A 
HETATM    3  N2  UNL     1      35.564  21.428  21.283  1.00  0.00    -0.345 N 
ATOM      4  H2  UNL     1      35.568  21.334  22.298  1.00  0.00     0.167 HD
HETATM    5  C4  UNL     1      36.296  22.365  20.684  1.00  0.00     0.152 A 
HETATM    6  S1  UNL     1      35.961  22.121  19.036  1.00  0.00    -0.055 SA
ENDROOT
BRANCH   5   7
HETATM    7  N3  UNL     1      37.076  23.247  21.273  1.00  0.00    -0.289 N 
HETATM    8  C5  UNL     1      36.770  24.627  21.167  1.00  0.00     0.324 C 
HETATM    9  O1  UNL     1      37.319  25.348  20.279  1.00  0.00    -0.247 OA
HETATM   10  N4  UNL     1      35.838  25.231  22.060  1.00  0.00    -0.316 N 
ATOM     11  H4  UNL     1      35.394  24.655  22.777  1.00  0.00     0.166 HD
ATOM     12  H3  UNL     1      37.893  22.940  21.801  1.00  0.00     0.172 HD
BRANCH  10  13
HETATM   13  C6  UNL     1      35.503  26.643  21.980  1.00  0.00     0.224 C 
HETATM   14  C7  UNL     1      35.145  27.117  23.371  1.00  0.00     0.054 C 
HETATM   15  C8  UNL     1      34.727  28.585  23.302  1.00  0.00     0.004 C 
HETATM   16  C9  UNL     1      33.390  28.646  22.604  1.00  0.00     0.002 C 
HETATM   17  C10 UNL     1      33.535  28.944  21.119  1.00  0.00     0.026 C 
HETATM   18  C11 UNL     1      34.448  27.984  20.427  1.00  0.00     0.170 C 
HETATM   19  O2  UNL     1      34.422  26.770  21.107  1.00  0.00    -0.367 OA
ENDBRANCH  10  13
ENDBRANCH   5   7
BRANCH   1  20
HETATM   20  C1  UNL     1      34.127  19.990  18.186  1.00  0.00     0.228 C 
BRANCH  20  21
HETATM   21  N1  UNL     1      33.508  18.849  18.854  1.00  0.00    -0.070 N 
ATOM     22  H13 UNL     1      32.785  19.137  19.513  1.00  0.00     0.275 HD
ATOM     23  H12 UNL     1      32.922  18.306  18.220  1.00  0.00     0.275 HD
ATOM     24  H11 UNL     1      34.225  18.276  19.298  1.00  0.00     0.275 HD
ENDBRANCH  20  21
BRANCH  20  25
HETATM   25  C12 UNL     1      34.952  19.559  17.039  1.00  0.00     0.021 C 
HETATM   26  C13 UNL     1      35.088  18.106  16.780  1.00  0.00     0.007 C 
HETATM   27  C14 UNL     1      36.363  17.964  15.915  1.00  0.00     0.000 C 
HETATM   28  C15 UNL     1      36.011  18.564  14.583  1.00  0.00     0.000 C 
HETATM   29  C16 UNL     1      35.450  19.938  14.626  1.00  0.00     0.000 C 
HETATM   30  C17 UNL     1      34.450  20.187  15.731  1.00  0.00     0.007 C 
ENDBRANCH  20  25
ENDBRANCH   1  20
TORSDOF 5
ENDMDL
MODEL 2
REMARK VINA RESULT: -6.892649025      2.576      8.645
REMARK  5 active torsions:
REMARK  status: ('A' for Active; 'I' for Inactive)
REMARK    1  A    between atoms: N1_1  and  C1_5 
REMARK    2  A    between atoms: C1_5  and  C2_6 
REMARK    3  A    between atoms: C1_5  and  C12_25 
REMARK    4  A    between atoms: C4_10  and  N3_11 
REMARK       I    between atoms: N3_11  and  C5_13 
REMARK       I    between atoms: C5_13  and  N4_15 
REMARK    5  A    between atoms: N4_15  and  C6_17 
ROOT
HETATM    1  C2  UNL     1      36.362  27.436  20.709  1.00  0.00     0.032 A 
HETATM    2  C3  UNL     1      36.247  26.253  21.391  1.00  0.00     0.107 A 
HETATM    3  N2  UNL     1      36.743  25.180  20.821  1.00  0.00    -0.345 N 
ATOM      4  H2  UNL     1      36.685  24.272  21.282  1.00  0.00     0.167 HD
HETATM    5  C4  UNL     1      37.323  25.300  19.629  1.00  0.00     0.152 A 
HETATM    6  S1  UNL     1      37.172  26.959  19.293  1.00  0.00    -0.055 SA
ENDROOT
BRANCH   5   7
HETATM    7  N3  UNL     1      37.869  24.334  18.921  1.00  0.00    -0.289 N 
HETATM    8  C5  UNL     1      37.333  23.024  19.002  1.00  0.00     0.324 C 
HETATM    9  O1  UNL     1      37.833  22.166  19.793  1.00  0.00    -0.247 OA
HETATM   10  N4  UNL     1      36.223  22.646  18.193  1.00  0.00    -0.316 N 
ATOM     11  H4  UNL     1      35.819  23.332  17.555  1.00  0.00     0.166 HD
ATOM     12  H3  UNL     1      38.669  24.527  18.319  1.00  0.00     0.172 HD
BRANCH  10  13
HETATM   13  C6  UNL     1      35.651  21.311  18.252  1.00  0.00     0.224 C 
HETATM   14  C7  UNL     1      35.250  20.914  16.848  1.00  0.00     0.054 C 
HETATM   15  C8  UNL     1      34.587  19.538  16.893  1.00  0.00     0.004 C 
HETATM   16  C9  UNL     1      33.243  19.701  17.561  1.00  0.00     0.002 C 
HETATM   17  C10 UNL     1      33.301  19.372  19.046  1.00  0.00     0.026 C 
HETATM   18  C11 UNL     1      34.349  20.158  19.767  1.00  0.00     0.170 C 
HETATM   19  O2  UNL     1      34.544  21.363  19.100  1.00  0.00    -0.367 OA
ENDBRANCH  10  13
ENDBRANCH   5   7
BRANCH   1  20
HETATM   20  C1  UNL     1      35.850  28.755  21.205  1.00  0.00     0.228 C 
BRANCH  20  21
HETATM   21  N1  UNL     1      35.876  28.779  22.665  1.00  0.00    -0.070 N 
ATOM     22  H13 UNL     1      36.456  28.034  23.050  1.00  0.00     0.275 HD
ATOM     23  H12 UNL     1      36.400  29.576  23.026  1.00  0.00     0.275 HD
ATOM     24  H11 UNL     1      34.924  28.751  23.029  1.00  0.00     0.275 HD
ENDBRANCH  20  21
BRANCH  20  25
HETATM   25  C12 UNL     1      34.509  29.091  20.685  1.00  0.00     0.021 C 
HETATM   26  C13 UNL     1      33.364  29.057  21.625  1.00  0.00     0.007 C 
HETATM   27  C14 UNL     1      32.107  28.926  20.731  1.00  0.00     0.000 C 
HETATM   28  C15 UNL     1      31.985  30.244  20.019  1.00  0.00     0.000 C 
HETATM   29  C16 UNL     1      33.202  30.702  19.302  1.00  0.00     0.000 C 
HETATM   30  C17 UNL     1      34.501  30.486  20.044  1.00  0.00     0.007 C 
ENDBRANCH  20  25
ENDBRANCH   1  20
TORSDOF 5
ENDMDL
MODEL 3
REMARK VINA RESULT: -6.771492053      2.735      8.626
REMARK  5 active torsions:
REMARK  status: ('A' for Active; 'I' for Inactive)
REMARK    1  A    between atoms: N1_1  and  C1_5 
REMARK    2  A    between atoms: C1_5  and  C2_6 
REMARK    3  A    between atoms: C1_5  and  C12_25 
REMARK    4  A    between atoms: C4_10  and  N3_11 
REMARK       I    between atoms: N3_11  and  C5_13 
REMARK       I    between atoms: C5_13  and  N4_15 
REMARK    5  A    between atoms: N4_15  and  C6_17 
ROOT
HETATM    1  C2  UNL     1      35.313  28.178  20.966  1.00  0.00     0.032 A 
HETATM    2  C3  UNL     1      36.613  28.262  21.395  1.00  0.00     0.107 A 
HETATM    3  N2  UNL     1      37.476  27.428  20.864  1.00  0.00    -0.345 N 
ATOM      4  H2  UNL     1      38.456  27.445  21.146  1.00  0.00     0.167 HD
HETATM    5  C4  UNL     1      37.046  26.560  19.950  1.00  0.00     0.152 A 
HETATM    6  S1  UNL     1      35.390  26.918  19.829  1.00  0.00    -0.055 SA
ENDROOT
BRANCH   5   7
HETATM    7  N3  UNL     1      37.772  25.660  19.320  1.00  0.00    -0.289 N 
HETATM    8  C5  UNL     1      37.451  24.286  19.460  1.00  0.00     0.324 C 
HETATM    9  O1  UNL     1      38.046  23.564  20.317  1.00  0.00    -0.247 OA
HETATM   10  N4  UNL     1      36.454  23.690  18.635  1.00  0.00    -0.316 N 
ATOM     11  H4  UNL     1      35.974  24.267  17.943  1.00  0.00     0.166 HD
ATOM     12  H3  UNL     1      38.557  25.949  18.738  1.00  0.00     0.172 HD
BRANCH  10  13
HETATM   13  C6  UNL     1      36.102  22.285  18.751  1.00  0.00     0.224 C 
HETATM   14  C7  UNL     1      35.692  21.792  17.381  1.00  0.00     0.054 C 
HETATM   15  C8  UNL     1      35.256  20.332  17.489  1.00  0.00     0.004 C 
HETATM   16  C9  UNL     1      33.942  20.302  18.232  1.00  0.00     0.002 C 
HETATM   17  C10 UNL     1      34.132  20.027  19.716  1.00  0.00     0.026 C 
HETATM   18  C11 UNL     1      35.082  20.985  20.361  1.00  0.00     0.170 C 
HETATM   19  O2  UNL     1      35.049  22.188  19.661  1.00  0.00    -0.367 OA
ENDBRANCH  10  13
ENDBRANCH   5   7
BRANCH   1  20
HETATM   20  C1  UNL     1      34.198  29.045  21.466  1.00  0.00     0.228 C 
BRANCH  20  21
HETATM   21  N1  UNL     1      33.466  28.351  22.522  1.00  0.00    -0.070 N 
ATOM     22  H13 UNL     1      33.332  27.363  22.310  1.00  0.00     0.275 HD
ATOM     23  H12 UNL     1      34.024  28.246  23.370  1.00  0.00     0.275 HD
ATOM     24  H11 UNL     1      32.583  28.828  22.702  1.00  0.00     0.275 HD
ENDBRANCH  20  21
BRANCH  20  25
HETATM   25  C12 UNL     1      33.290  29.502  20.394  1.00  0.00     0.021 C 
HETATM   26  C13 UNL     1      31.868  29.741  20.734  1.00  0.00     0.007 C 
HETATM   27  C14 UNL     1      31.111  29.682  19.385  1.00  0.00     0.000 C 
HETATM   28  C15 UNL     1      31.540  30.909  18.632  1.00  0.00     0.000 C 
HETATM   29  C16 UNL     1      33.008  31.102  18.504  1.00  0.00     0.000 C 
HETATM   30  C17 UNL     1      33.805  30.797  19.751  1.00  0.00     0.007 C 
ENDBRANCH  20  25
ENDBRANCH   1  20
TORSDOF 5
ENDMDL
MODEL 4
REMARK VINA RESULT: -6.767914329      2.956      4.591
REMARK  5 active torsions:
REMARK  status: ('A' for Active; 'I' for Inactive)
REMARK    1  A    between atoms: N1_1  and  C1_5 
REMARK    2  A    between atoms: C1_5  and  C2_6 
REMARK    3  A    between atoms: C1_5  and  C12_25 
REMARK    4  A    between atoms: C4_10  and  N3_11 
REMARK       I    between atoms: N3_11  and  C5_13 
REMARK       I    between atoms: C5_13  and  N4_15 
REMARK    5  A    between atoms: N4_15  and  C6_17 
ROOT
HETATM    1  C2  UNL     1      36.877  24.190  20.832  1.00  0.00     0.032 A 
HETATM    2  C3  UNL     1      36.355  24.709  21.988  1.00  0.00     0.107 A 
HETATM    3  N2  UNL     1      36.194  26.010  22.044  1.00  0.00    -0.345 N 
ATOM      4  H2  UNL     1      35.811  26.451  22.880  1.00  0.00     0.167 HD
HETATM    5  C4  UNL     1      36.543  26.743  20.989  1.00  0.00     0.152 A 
HETATM    6  S1  UNL     1      37.111  25.582  19.886  1.00  0.00    -0.055 SA
ENDROOT
BRANCH   5   7
HETATM    7  N3  UNL     1      36.450  28.051  20.876  1.00  0.00    -0.289 N 
HETATM    8  C5  UNL     1      35.529  28.606  19.950  1.00  0.00     0.324 C 
HETATM    9  O1  UNL     1      35.904  28.946  18.787  1.00  0.00    -0.247 OA
HETATM   10  N4  UNL     1      34.164  28.792  20.314  1.00  0.00    -0.316 N 
ATOM     11  H4  UNL     1      33.859  28.521  21.248  1.00  0.00     0.166 HD
ATOM     12  H3  UNL     1      37.033  28.660  21.449  1.00  0.00     0.172 HD
BRANCH  10  13
HETATM   13  C6  UNL     1      33.196  29.359  19.389  1.00  0.00     0.224 C 
HETATM   14  C7  UNL     1      33.280  30.866  19.492  1.00  0.00     0.054 C 
HETATM   15  C8  UNL     1      32.227  31.484  18.575  1.00  0.00     0.004 C 
HETATM   16  C9  UNL     1      30.873  31.211  19.185  1.00  0.00     0.002 C 
HETATM   17  C10 UNL     1      30.216  29.977  18.585  1.00  0.00     0.026 C 
HETATM   18  C11 UNL     1      31.087  28.765  18.667  1.00  0.00     0.170 C 
HETATM   19  O2  UNL     1      31.934  28.895  19.763  1.00  0.00    -0.367 OA
ENDBRANCH  10  13
ENDBRANCH   5   7
BRANCH   1  20
HETATM   20  C1  UNL     1      37.133  22.732  20.596  1.00  0.00     0.228 C 
BRANCH  20  21
HETATM   21  N1  UNL     1      38.558  22.509  20.370  1.00  0.00    -0.070 N 
ATOM     22  H13 UNL     1      39.134  23.213  20.831  1.00  0.00     0.275 HD
ATOM     23  H12 UNL     1      38.901  21.688  20.869  1.00  0.00     0.275 HD
ATOM     24  H11 UNL     1      38.745  22.455  19.369  1.00  0.00     0.275 HD
ENDBRANCH  20  21
BRANCH  20  25
HETATM   25  C12 UNL     1      36.319  22.169  19.499  1.00  0.00     0.021 C 
HETATM   26  C13 UNL     1      34.890  22.553  19.417  1.00  0.00     0.007 C 
HETATM   27  C14 UNL     1      34.221  21.453  18.559  1.00  0.00     0.000 C 
HETATM   28  C15 UNL     1      34.756  21.650  17.169  1.00  0.00     0.000 C 
HETATM   29  C16 UNL     1      36.236  21.703  17.052  1.00  0.00     0.000 C 
HETATM   30  C17 UNL     1      36.935  22.496  18.132  1.00  0.00     0.007 C 
ENDBRANCH  20  25
ENDBRANCH   1  20
TORSDOF 5
ENDMDL
MODEL 5
REMARK VINA RESULT: -6.750017567      3.451      5.519
REMARK  5 active torsions:
REMARK  status: ('A' for Active; 'I' for Inactive)
REMARK    1  A    between atoms: N1_1  and  C1_5 
REMARK    2  A    between atoms: C1_5  and  C2_6 
REMARK    3  A    between atoms: C1_5  and  C12_25 
REMARK    4  A    between atoms: C4_10  and  N3_11 
REMARK       I    between atoms: N3_11  and  C5_13 
REMARK       I    between atoms: C5_13  and  N4_15 
REMARK    5  A    between atoms: N4_15  and  C6_17 
ROOT
HETATM    1  C2  UNL     1      36.709  25.381  20.704  1.00  0.00     0.032 A 
HETATM    2  C3  UNL     1      35.977  25.532  21.853  1.00  0.00     0.107 A 
HETATM    3  N2  UNL     1      35.666  26.755  22.210  1.00  0.00    -0.345 N 
ATOM      4  H2  UNL     1      35.123  26.928  23.056  1.00  0.00     0.167 HD
HETATM    5  C4  UNL     1      36.073  27.768  21.446  1.00  0.00     0.152 A 
HETATM    6  S1  UNL     1      36.914  26.988  20.192  1.00  0.00    -0.055 SA
ENDROOT
BRANCH   5   7
HETATM    7  N3  UNL     1      35.849  29.047  21.655  1.00  0.00    -0.289 N 
HETATM    8  C5  UNL     1      35.378  29.855  20.589  1.00  0.00     0.324 C 
HETATM    9  O1  UNL     1      36.184  30.534  19.883  1.00  0.00    -0.247 OA
HETATM   10  N4  UNL     1      33.985  29.919  20.293  1.00  0.00    -0.316 N 
ATOM     11  H4  UNL     1      33.333  29.376  20.859  1.00  0.00     0.166 HD
ATOM     12  H3  UNL     1      36.013  29.455  22.576  1.00  0.00     0.172 HD
BRANCH  10  13
HETATM   13  C6  UNL     1      33.469  30.738  19.208  1.00  0.00     0.224 C 
HETATM   14  C7  UNL     1      32.045  31.117  19.548  1.00  0.00     0.054 C 
HETATM   15  C8  UNL     1      31.459  31.926  18.392  1.00  0.00     0.004 C 
HETATM   16  C9  UNL     1      31.255  30.982  17.232  1.00  0.00     0.002 C 
HETATM   17  C10 UNL     1      32.420  31.021  16.254  1.00  0.00     0.026 C 
HETATM   18  C11 UNL     1      33.736  30.768  16.917  1.00  0.00     0.170 C 
HETATM   19  O2  UNL     1      33.526  29.975  18.041  1.00  0.00    -0.367 OA
ENDBRANCH  10  13
ENDBRANCH   5   7
BRANCH   1  20
HETATM   20  C1  UNL     1      37.157  24.062  20.150  1.00  0.00     0.228 C 
BRANCH  20  21
HETATM   21  N1  UNL     1      38.087  24.277  19.046  1.00  0.00    -0.070 N 
ATOM     22  H13 UNL     1      38.160  25.263  18.794  1.00  0.00     0.275 HD
ATOM     23  H12 UNL     1      39.056  24.123  19.325  1.00  0.00     0.275 HD
ATOM     24  H11 UNL     1      37.821  23.697  18.251  1.00  0.00     0.275 HD
ENDBRANCH  20  21
BRANCH  20  25
HETATM   25  C12 UNL     1      36.035  23.189  19.747  1.00  0.00     0.021 C 
HETATM   26  C13 UNL     1      36.046  22.622  18.378  1.00  0.00     0.007 C 
HETATM   27  C14 UNL     1      34.578  22.231  18.087  1.00  0.00     0.000 C 
HETATM   28  C15 UNL     1      34.289  21.063  18.988  1.00  0.00     0.000 C 
HETATM   29  C16 UNL     1      34.594  21.272  20.427  1.00  0.00     0.000 C 
HETATM   30  C17 UNL     1      35.888  22.001  20.707  1.00  0.00     0.007 C 
ENDBRANCH  20  25
ENDBRANCH   1  20
TORSDOF 5
ENDMDL
