MODEL 1
REMARK VINA RESULT: -9.028274898      0.000      0.000
REMARK  5 active torsions:
REMARK  status: ('A' for Active; 'I' for Inactive)
REMARK    1  A    between atoms: C4_4  and  C5_5 
REMARK    2  A    between atoms: C5_5  and  C6_6 
REMARK    3  A    between atoms: C6_6  and  C7_7 
REMARK    4  A    between atoms: C7_7  and  C8_8 
REMARK    5  A    between atoms: C11_11  and  C12_12 
ROOT
HETATM    1  C8  UNL     1     -12.252  54.959  37.725  1.00  0.00    -0.017 A 
HETATM    2  C9  UNL     1     -13.378  55.556  38.217  1.00  0.00     0.016 A 
HETATM    3  C10 UNL     1     -13.534  56.865  38.001  1.00  0.00     0.021 A 
HETATM    4  C11 UNL     1     -12.548  57.509  37.299  1.00  0.00     0.015 A 
HETATM    5  S1  UNL     1     -11.436  56.250  36.969  1.00  0.00    -0.094 SA
ENDROOT
BRANCH   1   6
HETATM    6  C7  UNL     1     -11.849  53.508  37.836  1.00  0.00     0.046 C 
BRANCH   6   7
HETATM    7  C6  UNL     1     -12.654  52.846  38.946  1.00  0.00     0.010 C 
BRANCH   7   8
HETATM    8  C5  UNL     1     -11.761  52.676  40.154  1.00  0.00     0.039 C 
BRANCH   8   9
HETATM    9  C4  UNL     1     -12.639  52.284  41.289  1.00  0.00    -0.058 A 
HETATM   10  C3  UNL     1     -12.229  52.470  42.608  1.00  0.00     0.007 A 
HETATM   11  C2  UNL     1     -13.020  52.118  43.672  1.00  0.00     0.001 A 
HETATM   12  C1  UNL     1     -14.253  51.565  43.431  1.00  0.00     0.000 A 
HETATM   13  C19 UNL     1     -14.692  51.366  42.127  1.00  0.00     0.001 A 
HETATM   14  C18 UNL     1     -13.870  51.732  41.084  1.00  0.00     0.007 A 
ENDBRANCH   8   9
ENDBRANCH   7   8
ENDBRANCH   6   7
ENDBRANCH   1   6
BRANCH   4  15
HETATM   15  C12 UNL     1     -12.470  58.934  36.925  1.00  0.00    -0.019 A 
HETATM   16  C13 UNL     1     -11.934  59.284  35.721  1.00  0.00     0.013 A 
HETATM   17  C14 UNL     1     -11.852  60.630  35.350  1.00  0.00     0.001 A 
HETATM   18  C15 UNL     1     -12.308  61.622  36.188  1.00  0.00     0.000 A 
HETATM   19  C16 UNL     1     -12.851  61.251  37.413  1.00  0.00     0.001 A 
HETATM   20  C17 UNL     1     -12.933  59.907  37.783  1.00  0.00     0.013 A 
ENDBRANCH   4  15
TORSDOF 5
ENDMDL
MODEL 2
REMARK VINA RESULT: -9.004411141      0.140      1.509
REMARK  5 active torsions:
REMARK  status: ('A' for Active; 'I' for Inactive)
REMARK    1  A    between atoms: C4_4  and  C5_5 
REMARK    2  A    between atoms: C5_5  and  C6_6 
REMARK    3  A    between atoms: C6_6  and  C7_7 
REMARK    4  A    between atoms: C7_7  and  C8_8 
REMARK    5  A    between atoms: C11_11  and  C12_12 
ROOT
HETATM    1  C8  UNL     1     -12.280  54.967  37.768  1.00  0.00    -0.017 A 
HETATM    2  C9  UNL     1     -13.400  55.580  38.251  1.00  0.00     0.016 A 
HETATM    3  C10 UNL     1     -13.544  56.888  38.018  1.00  0.00     0.021 A 
HETATM    4  C11 UNL     1     -12.552  57.514  37.310  1.00  0.00     0.015 A 
HETATM    5  S1  UNL     1     -11.451  56.241  36.996  1.00  0.00    -0.094 SA
ENDROOT
BRANCH   1   6
HETATM    6  C7  UNL     1     -11.890  53.514  37.897  1.00  0.00     0.046 C 
BRANCH   6   7
HETATM    7  C6  UNL     1     -12.730  52.863  38.987  1.00  0.00     0.010 C 
BRANCH   7   8
HETATM    8  C5  UNL     1     -11.885  52.731  40.233  1.00  0.00     0.039 C 
BRANCH   8   9
HETATM    9  C4  UNL     1     -12.789  52.277  41.323  1.00  0.00    -0.058 A 
HETATM   10  C3  UNL     1     -14.022  51.695  41.033  1.00  0.00     0.007 A 
HETATM   11  C2  UNL     1     -14.875  51.266  42.020  1.00  0.00     0.001 A 
HETATM   12  C1  UNL     1     -14.502  51.417  43.333  1.00  0.00     0.000 A 
HETATM   13  C19 UNL     1     -13.279  51.994  43.656  1.00  0.00     0.001 A 
HETATM   14  C18 UNL     1     -12.450  52.411  42.638  1.00  0.00     0.007 A 
ENDBRANCH   8   9
ENDBRANCH   7   8
ENDBRANCH   6   7
ENDBRANCH   1   6
BRANCH   4  15
HETATM   15  C12 UNL     1     -12.460  58.934  36.919  1.00  0.00    -0.019 A 
HETATM   16  C13 UNL     1     -12.958  59.893  37.750  1.00  0.00     0.013 A 
HETATM   17  C14 UNL     1     -12.879  61.244  37.394  1.00  0.00     0.001 A 
HETATM   18  C15 UNL     1     -12.301  61.628  36.206  1.00  0.00     0.000 A 
HETATM   19  C16 UNL     1     -11.800  60.640  35.368  1.00  0.00     0.001 A 
HETATM   20  C17 UNL     1     -11.877  59.291  35.723  1.00  0.00     0.013 A 
ENDBRANCH   4  15
TORSDOF 5
ENDMDL
MODEL 3
REMARK VINA RESULT: -9.001398906      0.158      1.073
REMARK  5 active torsions:
REMARK  status: ('A' for Active; 'I' for Inactive)
REMARK    1  A    between atoms: C4_4  and  C5_5 
REMARK    2  A    between atoms: C5_5  and  C6_6 
REMARK    3  A    between atoms: C6_6  and  C7_7 
REMARK    4  A    between atoms: C7_7  and  C8_8 
REMARK    5  A    between atoms: C11_11  and  C12_12 
ROOT
HETATM    1  C8  UNL     1     -12.273  54.986  37.773  1.00  0.00    -0.017 A 
HETATM    2  C9  UNL     1     -13.400  55.596  38.244  1.00  0.00     0.016 A 
HETATM    3  C10 UNL     1     -13.546  56.903  38.008  1.00  0.00     0.021 A 
HETATM    4  C11 UNL     1     -12.549  57.531  37.308  1.00  0.00     0.015 A 
HETATM    5  S1  UNL     1     -11.442  56.261  37.007  1.00  0.00    -0.094 SA
ENDROOT
BRANCH   1   6
HETATM    6  C7  UNL     1     -11.880  53.534  37.909  1.00  0.00     0.046 C 
BRANCH   6   7
HETATM    7  C6  UNL     1     -12.736  52.879  38.984  1.00  0.00     0.010 C 
BRANCH   7   8
HETATM    8  C5  UNL     1     -11.912  52.747  40.243  1.00  0.00     0.039 C 
BRANCH   8   9
HETATM    9  C4  UNL     1     -12.832  52.283  41.316  1.00  0.00    -0.058 A 
HETATM   10  C3  UNL     1     -12.479  52.394  42.660  1.00  0.00     0.007 A 
HETATM   11  C2  UNL     1     -13.311  51.975  43.668  1.00  0.00     0.001 A 
HETATM   12  C1  UNL     1     -14.527  51.428  43.342  1.00  0.00     0.000 A 
HETATM   13  C19 UNL     1     -14.910  51.303  42.012  1.00  0.00     0.001 A 
HETATM   14  C18 UNL     1     -14.049  51.736  41.028  1.00  0.00     0.007 A 
ENDBRANCH   8   9
ENDBRANCH   7   8
ENDBRANCH   6   7
ENDBRANCH   1   6
BRANCH   4  15
HETATM   15  C12 UNL     1     -12.458  58.950  36.914  1.00  0.00    -0.019 A 
HETATM   16  C13 UNL     1     -12.973  59.909  37.736  1.00  0.00     0.013 A 
HETATM   17  C14 UNL     1     -12.895  61.259  37.377  1.00  0.00     0.001 A 
HETATM   18  C15 UNL     1     -12.301  61.644  36.197  1.00  0.00     0.000 A 
HETATM   19  C16 UNL     1     -11.782  60.656  35.370  1.00  0.00     0.001 A 
HETATM   20  C17 UNL     1     -11.859  59.307  35.727  1.00  0.00     0.013 A 
ENDBRANCH   4  15
TORSDOF 5
ENDMDL
MODEL 4
REMARK VINA RESULT: -8.996445743      0.109      1.069
REMARK  5 active torsions:
REMARK  status: ('A' for Active; 'I' for Inactive)
REMARK    1  A    between atoms: C4_4  and  C5_5 
REMARK    2  A    between atoms: C5_5  and  C6_6 
REMARK    3  A    between atoms: C6_6  and  C7_7 
REMARK    4  A    between atoms: C7_7  and  C8_8 
REMARK    5  A    between atoms: C11_11  and  C12_12 
ROOT
HETATM    1  C8  UNL     1     -12.283  54.955  37.791  1.00  0.00    -0.017 A 
HETATM    2  C9  UNL     1     -13.393  55.573  38.293  1.00  0.00     0.016 A 
HETATM    3  C10 UNL     1     -13.536  56.881  38.059  1.00  0.00     0.021 A 
HETATM    4  C11 UNL     1     -12.555  57.501  37.331  1.00  0.00     0.015 A 
HETATM    5  S1  UNL     1     -11.465  56.223  37.001  1.00  0.00    -0.094 SA
ENDROOT
BRANCH   1   6
HETATM    6  C7  UNL     1     -11.897  53.500  37.917  1.00  0.00     0.046 C 
BRANCH   6   7
HETATM    7  C6  UNL     1     -12.713  52.858  39.031  1.00  0.00     0.010 C 
BRANCH   7   8
HETATM    8  C5  UNL     1     -11.849  52.757  40.266  1.00  0.00     0.039 C 
BRANCH   8   9
HETATM    9  C4  UNL     1     -12.730  52.301  41.374  1.00  0.00    -0.058 A 
HETATM   10  C3  UNL     1     -13.984  51.752  41.112  1.00  0.00     0.007 A 
HETATM   11  C2  UNL     1     -14.816  51.324  42.115  1.00  0.00     0.001 A 
HETATM   12  C1  UNL     1     -14.401  51.441  43.419  1.00  0.00     0.000 A 
HETATM   13  C19 UNL     1     -13.156  51.984  43.715  1.00  0.00     0.001 A 
HETATM   14  C18 UNL     1     -12.349  52.402  42.681  1.00  0.00     0.007 A 
ENDBRANCH   8   9
ENDBRANCH   7   8
ENDBRANCH   6   7
ENDBRANCH   1   6
BRANCH   4  15
HETATM   15  C12 UNL     1     -12.465  58.920  36.933  1.00  0.00    -0.019 A 
HETATM   16  C13 UNL     1     -11.872  59.249  35.750  1.00  0.00     0.013 A 
HETATM   17  C14 UNL     1     -11.779  60.589  35.358  1.00  0.00     0.001 A 
HETATM   18  C15 UNL     1     -12.281  61.594  36.153  1.00  0.00     0.000 A 
HETATM   19  C16 UNL     1     -12.881  61.243  37.356  1.00  0.00     0.001 A 
HETATM   20  C17 UNL     1     -12.975  59.906  37.748  1.00  0.00     0.013 A 
ENDBRANCH   4  15
TORSDOF 5
ENDMDL
MODEL 5
REMARK VINA RESULT: -8.962918015      1.458      8.490
REMARK  5 active torsions:
REMARK  status: ('A' for Active; 'I' for Inactive)
REMARK    1  A    between atoms: C4_4  and  C5_5 
REMARK    2  A    between atoms: C5_5  and  C6_6 
REMARK    3  A    between atoms: C6_6  and  C7_7 
REMARK    4  A    between atoms: C7_7  and  C8_8 
REMARK    5  A    between atoms: C11_11  and  C12_12 
ROOT
HETATM    1  C8  UNL     1     -11.164  53.693  37.706  1.00  0.00    -0.017 A 
HETATM    2  C9  UNL     1     -11.683  52.439  37.557  1.00  0.00     0.016 A 
HETATM    3  C10 UNL     1     -12.294  51.888  38.610  1.00  0.00     0.021 A 
HETATM    4  C11 UNL     1     -12.351  52.628  39.762  1.00  0.00     0.015 A 
HETATM    5  S1  UNL     1     -11.545  54.073  39.323  1.00  0.00    -0.094 SA
ENDROOT
BRANCH   1   6
HETATM    6  C7  UNL     1     -10.435  54.523  36.676  1.00  0.00     0.046 C 
BRANCH   6   7
HETATM    7  C6  UNL     1     -10.722  55.998  36.924  1.00  0.00     0.010 C 
BRANCH   7   8
HETATM    8  C5  UNL     1      -9.995  56.813  35.878  1.00  0.00     0.039 C 
BRANCH   8   9
HETATM    9  C4  UNL     1     -10.722  58.105  35.756  1.00  0.00    -0.058 A 
HETATM   10  C3  UNL     1     -11.808  58.396  36.580  1.00  0.00     0.007 A 
HETATM   11  C2  UNL     1     -12.494  59.581  36.487  1.00  0.00     0.001 A 
HETATM   12  C1  UNL     1     -12.100  60.507  35.554  1.00  0.00     0.000 A 
HETATM   13  C19 UNL     1     -11.021  60.247  34.716  1.00  0.00     0.001 A 
HETATM   14  C18 UNL     1     -10.356  59.048  34.839  1.00  0.00     0.007 A 
ENDBRANCH   8   9
ENDBRANCH   7   8
ENDBRANCH   6   7
ENDBRANCH   1   6
BRANCH   4  15
HETATM   15  C12 UNL     1     -12.959  52.265  41.057  1.00  0.00    -0.019 A 
HETATM   16  C13 UNL     1     -12.284  52.525  42.212  1.00  0.00     0.013 A 
HETATM   17  C14 UNL     1     -12.846  52.187  43.448  1.00  0.00     0.001 A 
HETATM   18  C15 UNL     1     -14.083  51.588  43.521  1.00  0.00     0.000 A 
HETATM   19  C16 UNL     1     -14.759  51.328  42.335  1.00  0.00     0.001 A 
HETATM   20  C17 UNL     1     -14.199  51.666  41.101  1.00  0.00     0.013 A 
ENDBRANCH   4  15
TORSDOF 5
ENDMDL
