MODEL 1
REMARK VINA RESULT: -8.958825556      0.000      0.000
REMARK  5 active torsions:
REMARK  status: ('A' for Active; 'I' for Inactive)
REMARK    1  A    between atoms: C4_4  and  C5_5 
REMARK    2  A    between atoms: C8_8  and  C9_9 
REMARK    3  A    between atoms: C9_9  and  C10_10 
REMARK    4  A    between atoms: C10_10  and  C11_11 
REMARK    5  A    between atoms: C11_11  and  C12_12 
ROOT
HETATM    1  C5  UNL     1     -12.016  57.411  37.049  1.00  0.00    -0.026 A 
HETATM    2  C6  UNL     1     -13.070  56.660  37.526  1.00  0.00     0.013 A 
HETATM    3  C7  UNL     1     -12.952  55.313  37.794  1.00  0.00     0.008 A 
HETATM    4  C8  UNL     1     -11.745  54.639  37.593  1.00  0.00    -0.058 A 
HETATM    5  C16 UNL     1     -10.691  55.380  37.119  1.00  0.00     0.008 A 
HETATM    6  C17 UNL     1     -10.824  56.748  36.851  1.00  0.00     0.013 A 
ENDROOT
BRANCH   4   7
HETATM    7  C9  UNL     1     -11.636  53.177  37.899  1.00  0.00     0.039 C 
BRANCH   7   8
HETATM    8  C10 UNL     1     -11.880  52.862  39.330  1.00  0.00     0.010 C 
BRANCH   8   9
HETATM    9  C11 UNL     1     -13.075  52.070  39.675  1.00  0.00     0.046 C 
BRANCH   9  10
HETATM   10  C12 UNL     1     -13.331  51.990  41.148  1.00  0.00    -0.018 A 
HETATM   11  C13 UNL     1     -12.450  52.353  42.132  1.00  0.00     0.015 A 
HETATM   12  C14 UNL     1     -12.846  52.201  43.395  1.00  0.00     0.008 A 
HETATM   13  C15 UNL     1     -14.103  51.692  43.614  1.00  0.00     0.050 A 
HETATM   14  S1  UNL     1     -14.685  51.446  42.034  1.00  0.00    -0.106 SA
ENDBRANCH   9  10
ENDBRANCH   8   9
ENDBRANCH   7   8
ENDBRANCH   4   7
BRANCH   1  15
HETATM   15  C4  UNL     1     -12.158  58.838  36.770  1.00  0.00    -0.026 A 
HETATM   16  C3  UNL     1     -12.760  59.680  37.683  1.00  0.00     0.012 A 
HETATM   17  C2  UNL     1     -12.903  61.031  37.436  1.00  0.00     0.001 A 
HETATM   18  C1  UNL     1     -12.437  61.565  36.252  1.00  0.00     0.000 A 
HETATM   19  C19 UNL     1     -11.827  60.757  35.312  1.00  0.00     0.001 A 
HETATM   20  C18 UNL     1     -11.705  59.414  35.599  1.00  0.00     0.012 A 
ENDBRANCH   1  15
TORSDOF 5
ENDMDL
MODEL 2
REMARK VINA RESULT: -8.936552347      0.114      1.067
REMARK  5 active torsions:
REMARK  status: ('A' for Active; 'I' for Inactive)
REMARK    1  A    between atoms: C4_4  and  C5_5 
REMARK    2  A    between atoms: C8_8  and  C9_9 
REMARK    3  A    between atoms: C9_9  and  C10_10 
REMARK    4  A    between atoms: C10_10  and  C11_11 
REMARK    5  A    between atoms: C11_11  and  C12_12 
ROOT
HETATM    1  C5  UNL     1     -11.957  57.304  37.059  1.00  0.00    -0.026 A 
HETATM    2  C6  UNL     1     -12.996  56.552  37.567  1.00  0.00     0.013 A 
HETATM    3  C7  UNL     1     -12.867  55.207  37.838  1.00  0.00     0.008 A 
HETATM    4  C8  UNL     1     -11.663  54.535  37.611  1.00  0.00    -0.058 A 
HETATM    5  C16 UNL     1     -10.624  55.278  37.106  1.00  0.00     0.008 A 
HETATM    6  C17 UNL     1     -10.769  56.644  36.834  1.00  0.00     0.013 A 
ENDROOT
BRANCH   4   7
HETATM    7  C9  UNL     1     -11.541  53.076  37.921  1.00  0.00     0.039 C 
BRANCH   7   8
HETATM    8  C10 UNL     1     -11.792  52.762  39.351  1.00  0.00     0.010 C 
BRANCH   8   9
HETATM    9  C11 UNL     1     -12.996  51.982  39.693  1.00  0.00     0.046 C 
BRANCH   9  10
HETATM   10  C12 UNL     1     -13.282  51.940  41.162  1.00  0.00    -0.018 A 
HETATM   11  C13 UNL     1     -12.422  52.332  42.153  1.00  0.00     0.015 A 
HETATM   12  C14 UNL     1     -12.843  52.212  43.412  1.00  0.00     0.008 A 
HETATM   13  C15 UNL     1     -14.104  51.707  43.618  1.00  0.00     0.050 A 
HETATM   14  S1  UNL     1     -14.653  51.418  42.034  1.00  0.00    -0.106 SA
ENDBRANCH   9  10
ENDBRANCH   8   9
ENDBRANCH   7   8
ENDBRANCH   4   7
BRANCH   1  15
HETATM   15  C4  UNL     1     -12.111  58.729  36.776  1.00  0.00    -0.026 A 
HETATM   16  C3  UNL     1     -11.678  59.262  35.578  1.00  0.00     0.012 A 
HETATM   17  C2  UNL     1     -11.816  60.606  35.294  1.00  0.00     0.001 A 
HETATM   18  C1  UNL     1     -12.397  61.448  36.220  1.00  0.00     0.000 A 
HETATM   19  C19 UNL     1     -12.844  60.953  37.430  1.00  0.00     0.001 A 
HETATM   20  C18 UNL     1     -12.687  59.606  37.673  1.00  0.00     0.012 A 
ENDBRANCH   1  15
TORSDOF 5
ENDMDL
MODEL 3
REMARK VINA RESULT: -8.931208664      0.092      1.056
REMARK  5 active torsions:
REMARK  status: ('A' for Active; 'I' for Inactive)
REMARK    1  A    between atoms: C4_4  and  C5_5 
REMARK    2  A    between atoms: C8_8  and  C9_9 
REMARK    3  A    between atoms: C9_9  and  C10_10 
REMARK    4  A    between atoms: C10_10  and  C11_11 
REMARK    5  A    between atoms: C11_11  and  C12_12 
ROOT
HETATM    1  C5  UNL     1     -11.972  57.343  37.054  1.00  0.00    -0.026 A 
HETATM    2  C6  UNL     1     -10.768  56.691  36.886  1.00  0.00     0.013 A 
HETATM    3  C7  UNL     1     -10.616  55.347  37.152  1.00  0.00     0.008 A 
HETATM    4  C8  UNL     1     -11.686  54.574  37.609  1.00  0.00    -0.058 A 
HETATM    5  C16 UNL     1     -12.888  55.217  37.779  1.00  0.00     0.008 A 
HETATM    6  C17 UNL     1     -13.030  56.583  37.504  1.00  0.00     0.013 A 
ENDROOT
BRANCH   4   7
HETATM    7  C9  UNL     1     -11.500  53.114  37.885  1.00  0.00     0.039 C 
BRANCH   7   8
HETATM    8  C10 UNL     1     -11.748  52.754  39.304  1.00  0.00     0.010 C 
BRANCH   8   9
HETATM    9  C11 UNL     1     -12.998  52.047  39.636  1.00  0.00     0.046 C 
BRANCH   9  10
HETATM   10  C12 UNL     1     -13.277  51.987  41.106  1.00  0.00    -0.018 A 
HETATM   11  C13 UNL     1     -12.410  52.364  42.098  1.00  0.00     0.015 A 
HETATM   12  C14 UNL     1     -12.825  52.229  43.357  1.00  0.00     0.008 A 
HETATM   13  C15 UNL     1     -14.086  51.724  43.564  1.00  0.00     0.050 A 
HETATM   14  S1  UNL     1     -14.644  51.457  41.979  1.00  0.00    -0.106 SA
ENDBRANCH   9  10
ENDBRANCH   8   9
ENDBRANCH   7   8
ENDBRANCH   4   7
BRANCH   1  15
HETATM   15  C4  UNL     1     -12.117  58.769  36.767  1.00  0.00    -0.026 A 
HETATM   16  C3  UNL     1     -12.729  59.612  37.672  1.00  0.00     0.012 A 
HETATM   17  C2  UNL     1     -12.874  60.962  37.417  1.00  0.00     0.001 A 
HETATM   18  C1  UNL     1     -12.402  61.492  36.234  1.00  0.00     0.000 A 
HETATM   19  C19 UNL     1     -11.783  60.681  35.302  1.00  0.00     0.001 A 
HETATM   20  C18 UNL     1     -11.659  59.340  35.597  1.00  0.00     0.012 A 
ENDBRANCH   1  15
TORSDOF 5
ENDMDL
MODEL 4
REMARK VINA RESULT: -8.925503501      0.122      1.499
REMARK  5 active torsions:
REMARK  status: ('A' for Active; 'I' for Inactive)
REMARK    1  A    between atoms: C4_4  and  C5_5 
REMARK    2  A    between atoms: C8_8  and  C9_9 
REMARK    3  A    between atoms: C9_9  and  C10_10 
REMARK    4  A    between atoms: C10_10  and  C11_11 
REMARK    5  A    between atoms: C11_11  and  C12_12 
ROOT
HETATM    1  C5  UNL     1     -11.965  57.312  37.072  1.00  0.00    -0.026 A 
HETATM    2  C6  UNL     1     -10.772  56.649  36.873  1.00  0.00     0.013 A 
HETATM    3  C7  UNL     1     -10.619  55.308  37.151  1.00  0.00     0.008 A 
HETATM    4  C8  UNL     1     -11.680  54.548  37.652  1.00  0.00    -0.058 A 
HETATM    5  C16 UNL     1     -12.871  55.201  37.853  1.00  0.00     0.008 A 
HETATM    6  C17 UNL     1     -13.012  56.565  37.567  1.00  0.00     0.013 A 
ENDROOT
BRANCH   4   7
HETATM    7  C9  UNL     1     -11.495  53.090  37.939  1.00  0.00     0.039 C 
BRANCH   7   8
HETATM    8  C10 UNL     1     -11.748  52.741  39.360  1.00  0.00     0.010 C 
BRANCH   8   9
HETATM    9  C11 UNL     1     -12.965  51.974  39.684  1.00  0.00     0.046 C 
BRANCH   9  10
HETATM   10  C12 UNL     1     -13.273  51.933  41.149  1.00  0.00    -0.018 A 
HETATM   11  C13 UNL     1     -12.428  52.329  42.152  1.00  0.00     0.015 A 
HETATM   12  C14 UNL     1     -12.867  52.209  43.404  1.00  0.00     0.008 A 
HETATM   13  C15 UNL     1     -14.128  51.700  43.593  1.00  0.00     0.050 A 
HETATM   14  S1  UNL     1     -14.654  51.406  42.002  1.00  0.00    -0.106 SA
ENDBRANCH   9  10
ENDBRANCH   8   9
ENDBRANCH   7   8
ENDBRANCH   4   7
BRANCH   1  15
HETATM   15  C4  UNL     1     -12.109  58.735  36.772  1.00  0.00    -0.026 A 
HETATM   16  C3  UNL     1     -11.645  59.256  35.581  1.00  0.00     0.012 A 
HETATM   17  C2  UNL     1     -11.773  60.598  35.282  1.00  0.00     0.001 A 
HETATM   18  C1  UNL     1     -12.377  61.449  36.185  1.00  0.00     0.000 A 
HETATM   19  C19 UNL     1     -12.855  60.966  37.388  1.00  0.00     0.001 A 
HETATM   20  C18 UNL     1     -12.707  59.620  37.647  1.00  0.00     0.012 A 
ENDBRANCH   1  15
TORSDOF 5
ENDMDL
MODEL 5
REMARK VINA RESULT: -8.725380643      2.602      8.369
REMARK  5 active torsions:
REMARK  status: ('A' for Active; 'I' for Inactive)
REMARK    1  A    between atoms: C4_4  and  C5_5 
REMARK    2  A    between atoms: C8_8  and  C9_9 
REMARK    3  A    between atoms: C9_9  and  C10_10 
REMARK    4  A    between atoms: C10_10  and  C11_11 
REMARK    5  A    between atoms: C11_11  and  C12_12 
ROOT
HETATM    1  C5  UNL     1     -12.369  53.023  40.166  1.00  0.00    -0.026 A 
HETATM    2  C6  UNL     1     -11.902  54.321  40.150  1.00  0.00     0.013 A 
HETATM    3  C7  UNL     1     -11.280  54.866  39.048  1.00  0.00     0.008 A 
HETATM    4  C8  UNL     1     -11.091  54.121  37.882  1.00  0.00    -0.058 A 
HETATM    5  C16 UNL     1     -11.554  52.827  37.890  1.00  0.00     0.008 A 
HETATM    6  C17 UNL     1     -12.184  52.286  39.017  1.00  0.00     0.013 A 
ENDROOT
BRANCH   4   7
HETATM    7  C9  UNL     1     -10.420  54.735  36.692  1.00  0.00     0.039 C 
BRANCH   7   8
HETATM    8  C10 UNL     1     -10.356  56.217  36.762  1.00  0.00     0.010 C 
BRANCH   8   9
HETATM    9  C11 UNL     1     -10.029  56.959  35.531  1.00  0.00     0.046 C 
BRANCH   9  10
HETATM   10  C12 UNL     1     -10.722  58.283  35.430  1.00  0.00    -0.018 A 
HETATM   11  C13 UNL     1     -10.372  59.303  34.585  1.00  0.00     0.015 A 
HETATM   12  C14 UNL     1     -11.099  60.419  34.641  1.00  0.00     0.008 A 
HETATM   13  C15 UNL     1     -12.138  60.461  35.538  1.00  0.00     0.050 A 
HETATM   14  S1  UNL     1     -12.059  58.928  36.272  1.00  0.00    -0.106 SA
ENDBRANCH   9  10
ENDBRANCH   8   9
ENDBRANCH   7   8
ENDBRANCH   4   7
BRANCH   1  15
HETATM   15  C4  UNL     1     -13.026  52.461  41.344  1.00  0.00    -0.026 A 
HETATM   16  C3  UNL     1     -12.420  52.513  42.583  1.00  0.00     0.012 A 
HETATM   17  C2  UNL     1     -13.027  51.986  43.706  1.00  0.00     0.001 A 
HETATM   18  C1  UNL     1     -14.267  51.391  43.602  1.00  0.00     0.000 A 
HETATM   19  C19 UNL     1     -14.907  51.320  42.379  1.00  0.00     0.001 A 
HETATM   20  C18 UNL     1     -14.266  51.858  41.284  1.00  0.00     0.012 A 
ENDBRANCH   1  15
TORSDOF 5
ENDMDL
