MODEL 1
REMARK VINA RESULT: -8.887013664      0.000      0.000
REMARK  5 active torsions:
REMARK  status: ('A' for Active; 'I' for Inactive)
REMARK    1  A    between atoms: C4_4  and  C5_5 
REMARK    2  A    between atoms: C5_5  and  S1_6 
REMARK    3  A    between atoms: S1_6  and  C6_7 
REMARK    4  A    between atoms: C6_7  and  C7_8 
REMARK    5  A    between atoms: C6_7  and  C13_14 
ROOT
HETATM    1  C6  UNL     1     -12.538  58.290  38.170  1.00  0.00     0.113 C 
ENDROOT
BRANCH   1   2
HETATM    2  S1  UNL     1     -14.181  58.694  37.472  1.00  0.00    -0.150 SA
BRANCH   2   3
HETATM    3  C5  UNL     1     -14.669  60.303  38.108  1.00  0.00     0.113 C 
BRANCH   3   4
HETATM    4  C4  UNL     1     -14.282  61.416  37.186  1.00  0.00    -0.049 A 
HETATM    5  C3  UNL     1     -13.561  62.520  37.575  1.00  0.00     0.008 A 
HETATM    6  C2  UNL     1     -13.228  63.525  36.679  1.00  0.00     0.001 A 
HETATM    7  C1  UNL     1     -13.606  63.461  35.355  1.00  0.00     0.000 A 
HETATM    8  C20 UNL     1     -14.329  62.358  34.955  1.00  0.00     0.001 A 
HETATM    9  C19 UNL     1     -14.663  61.360  35.839  1.00  0.00     0.008 A 
ENDBRANCH   3   4
ENDBRANCH   2   3
ENDBRANCH   1   2
BRANCH   1  10
HETATM   10  C7  UNL     1     -11.624  58.163  37.001  1.00  0.00    -0.040 A 
HETATM   11  C8  UNL     1     -11.754  59.011  35.946  1.00  0.00     0.009 A 
HETATM   12  C9  UNL     1     -10.926  58.910  34.844  1.00  0.00     0.001 A 
HETATM   13  C10 UNL     1      -9.941  57.960  34.764  1.00  0.00     0.000 A 
HETATM   14  C11 UNL     1      -9.806  57.098  35.834  1.00  0.00     0.001 A 
HETATM   15  C12 UNL     1     -10.639  57.197  36.944  1.00  0.00     0.009 A 
ENDBRANCH   1  10
BRANCH   1  16
HETATM   16  C13 UNL     1     -12.599  57.097  39.017  1.00  0.00    -0.040 A 
HETATM   17  C14 UNL     1     -11.796  56.878  40.110  1.00  0.00     0.009 A 
HETATM   18  C15 UNL     1     -11.932  55.728  40.840  1.00  0.00     0.001 A 
HETATM   19  C16 UNL     1     -12.855  54.758  40.524  1.00  0.00     0.000 A 
HETATM   20  C17 UNL     1     -13.684  54.958  39.417  1.00  0.00     0.001 A 
HETATM   21  C18 UNL     1     -13.534  56.118  38.696  1.00  0.00     0.009 A 
ENDBRANCH   1  16
TORSDOF 5
ENDMDL
MODEL 2
REMARK VINA RESULT: -8.869445875      0.082      1.038
REMARK  5 active torsions:
REMARK  status: ('A' for Active; 'I' for Inactive)
REMARK    1  A    between atoms: C4_4  and  C5_5 
REMARK    2  A    between atoms: C5_5  and  S1_6 
REMARK    3  A    between atoms: S1_6  and  C6_7 
REMARK    4  A    between atoms: C6_7  and  C7_8 
REMARK    5  A    between atoms: C6_7  and  C13_14 
ROOT
HETATM    1  C6  UNL     1     -12.586  58.235  38.132  1.00  0.00     0.113 C 
ENDROOT
BRANCH   1   2
HETATM    2  S1  UNL     1     -14.207  58.702  37.422  1.00  0.00    -0.150 SA
BRANCH   2   3
HETATM    3  C5  UNL     1     -14.662  60.305  38.097  1.00  0.00     0.113 C 
BRANCH   3   4
HETATM    4  C4  UNL     1     -14.275  61.430  37.188  1.00  0.00    -0.049 A 
HETATM    5  C3  UNL     1     -13.558  62.531  37.593  1.00  0.00     0.008 A 
HETATM    6  C2  UNL     1     -13.225  63.548  36.709  1.00  0.00     0.001 A 
HETATM    7  C1  UNL     1     -13.599  63.499  35.384  1.00  0.00     0.000 A 
HETATM    8  C20 UNL     1     -14.318  62.399  34.969  1.00  0.00     0.001 A 
HETATM    9  C19 UNL     1     -14.652  61.389  35.840  1.00  0.00     0.008 A 
ENDBRANCH   3   4
ENDBRANCH   2   3
ENDBRANCH   1   2
BRANCH   1  10
HETATM   10  C7  UNL     1     -11.656  58.126  36.975  1.00  0.00    -0.040 A 
HETATM   11  C8  UNL     1     -11.763  59.000  35.937  1.00  0.00     0.009 A 
HETATM   12  C9  UNL     1     -10.918  58.915  34.846  1.00  0.00     0.001 A 
HETATM   13  C10 UNL     1      -9.942  57.958  34.759  1.00  0.00     0.000 A 
HETATM   14  C11 UNL     1      -9.830  57.071  35.811  1.00  0.00     0.001 A 
HETATM   15  C12 UNL     1     -10.679  57.152  36.910  1.00  0.00     0.009 A 
ENDBRANCH   1  10
BRANCH   1  16
HETATM   16  C13 UNL     1     -12.689  57.015  38.936  1.00  0.00    -0.040 A 
HETATM   17  C14 UNL     1     -13.527  55.965  38.651  1.00  0.00     0.009 A 
HETATM   18  C15 UNL     1     -13.549  54.865  39.467  1.00  0.00     0.001 A 
HETATM   19  C16 UNL     1     -12.754  54.760  40.584  1.00  0.00     0.000 A 
HETATM   20  C17 UNL     1     -11.892  55.814  40.895  1.00  0.00     0.001 A 
HETATM   21  C18 UNL     1     -11.883  56.911  40.065  1.00  0.00     0.009 A 
ENDBRANCH   1  16
TORSDOF 5
ENDMDL
MODEL 3
REMARK VINA RESULT: -8.857261569      0.042      1.026
REMARK  5 active torsions:
REMARK  status: ('A' for Active; 'I' for Inactive)
REMARK    1  A    between atoms: C4_4  and  C5_5 
REMARK    2  A    between atoms: C5_5  and  S1_6 
REMARK    3  A    between atoms: S1_6  and  C6_7 
REMARK    4  A    between atoms: C6_7  and  C7_8 
REMARK    5  A    between atoms: C6_7  and  C13_14 
ROOT
HETATM    1  C6  UNL     1     -12.533  58.307  38.150  1.00  0.00     0.113 C 
ENDROOT
BRANCH   1   2
HETATM    2  S1  UNL     1     -14.187  58.711  37.478  1.00  0.00    -0.150 SA
BRANCH   2   3
HETATM    3  C5  UNL     1     -14.662  60.323  38.117  1.00  0.00     0.113 C 
BRANCH   3   4
HETATM    4  C4  UNL     1     -14.275  61.434  37.192  1.00  0.00    -0.049 A 
HETATM    5  C3  UNL     1     -13.558  62.541  37.580  1.00  0.00     0.008 A 
HETATM    6  C2  UNL     1     -13.226  63.545  36.681  1.00  0.00     0.001 A 
HETATM    7  C1  UNL     1     -13.600  63.475  35.356  1.00  0.00     0.000 A 
HETATM    8  C20 UNL     1     -14.318  62.368  34.958  1.00  0.00     0.001 A 
HETATM    9  C19 UNL     1     -14.652  61.372  35.844  1.00  0.00     0.008 A 
ENDBRANCH   3   4
ENDBRANCH   2   3
ENDBRANCH   1   2
BRANCH   1  10
HETATM   10  C7  UNL     1     -11.638  58.177  36.968  1.00  0.00    -0.040 A 
HETATM   11  C8  UNL     1     -10.688  57.203  36.942  1.00  0.00     0.009 A 
HETATM   12  C9  UNL     1      -9.838  57.066  35.861  1.00  0.00     0.001 A 
HETATM   13  C10 UNL     1      -9.912  57.894  34.773  1.00  0.00     0.000 A 
HETATM   14  C11 UNL     1     -10.876  58.883  34.795  1.00  0.00     0.001 A 
HETATM   15  C12 UNL     1     -11.733  59.025  35.881  1.00  0.00     0.009 A 
ENDBRANCH   1  10
BRANCH   1  16
HETATM   16  C13 UNL     1     -12.582  57.115  39.000  1.00  0.00    -0.040 A 
HETATM   17  C14 UNL     1     -11.786  56.913  40.101  1.00  0.00     0.009 A 
HETATM   18  C15 UNL     1     -11.909  55.762  40.833  1.00  0.00     0.001 A 
HETATM   19  C16 UNL     1     -12.813  54.775  40.510  1.00  0.00     0.000 A 
HETATM   20  C17 UNL     1     -13.634  54.959  39.396  1.00  0.00     0.001 A 
HETATM   21  C18 UNL     1     -13.497  56.120  38.672  1.00  0.00     0.009 A 
ENDBRANCH   1  16
TORSDOF 5
ENDMDL
MODEL 4
REMARK VINA RESULT: -8.843115919      0.092      1.462
REMARK  5 active torsions:
REMARK  status: ('A' for Active; 'I' for Inactive)
REMARK    1  A    between atoms: C4_4  and  C5_5 
REMARK    2  A    between atoms: C5_5  and  S1_6 
REMARK    3  A    between atoms: S1_6  and  C6_7 
REMARK    4  A    between atoms: C6_7  and  C7_8 
REMARK    5  A    between atoms: C6_7  and  C13_14 
ROOT
HETATM    1  C6  UNL     1     -12.584  58.221  38.164  1.00  0.00     0.113 C 
ENDROOT
BRANCH   1   2
HETATM    2  S1  UNL     1     -14.198  58.709  37.452  1.00  0.00    -0.150 SA
BRANCH   2   3
HETATM    3  C5  UNL     1     -14.612  60.337  38.093  1.00  0.00     0.113 C 
BRANCH   3   4
HETATM    4  C4  UNL     1     -14.282  61.426  37.122  1.00  0.00    -0.049 A 
HETATM    5  C3  UNL     1     -14.636  61.404  35.794  1.00  0.00     0.008 A 
HETATM    6  C2  UNL     1     -14.304  62.442  34.934  1.00  0.00     0.001 A 
HETATM    7  C1  UNL     1     -13.604  63.544  35.376  1.00  0.00     0.000 A 
HETATM    8  C20 UNL     1     -13.245  63.575  36.706  1.00  0.00     0.001 A 
HETATM    9  C19 UNL     1     -13.570  62.549  37.562  1.00  0.00     0.008 A 
ENDBRANCH   3   4
ENDBRANCH   2   3
ENDBRANCH   1   2
BRANCH   1  10
HETATM   10  C7  UNL     1     -11.649  58.119  37.010  1.00  0.00    -0.040 A 
HETATM   11  C8  UNL     1     -11.772  58.978  35.962  1.00  0.00     0.009 A 
HETATM   12  C9  UNL     1     -10.924  58.899  34.874  1.00  0.00     0.001 A 
HETATM   13  C10 UNL     1      -9.927  57.963  34.799  1.00  0.00     0.000 A 
HETATM   14  C11 UNL     1      -9.798  57.091  35.862  1.00  0.00     0.001 A 
HETATM   15  C12 UNL     1     -10.651  57.166  36.959  1.00  0.00     0.009 A 
ENDBRANCH   1  10
BRANCH   1  16
HETATM   16  C13 UNL     1     -12.700  56.992  38.953  1.00  0.00    -0.040 A 
HETATM   17  C14 UNL     1     -13.523  55.940  38.635  1.00  0.00     0.009 A 
HETATM   18  C15 UNL     1     -13.559  54.832  39.439  1.00  0.00     0.001 A 
HETATM   19  C16 UNL     1     -12.793  54.720  40.576  1.00  0.00     0.000 A 
HETATM   20  C17 UNL     1     -11.947  55.777  40.920  1.00  0.00     0.001 A 
HETATM   21  C18 UNL     1     -11.924  56.882  40.102  1.00  0.00     0.009 A 
ENDBRANCH   1  16
TORSDOF 5
ENDMDL
MODEL 5
REMARK VINA RESULT: -8.636078650      1.791      3.041
REMARK  5 active torsions:
REMARK  status: ('A' for Active; 'I' for Inactive)
REMARK    1  A    between atoms: C4_4  and  C5_5 
REMARK    2  A    between atoms: C5_5  and  S1_6 
REMARK    3  A    between atoms: S1_6  and  C6_7 
REMARK    4  A    between atoms: C6_7  and  C7_8 
REMARK    5  A    between atoms: C6_7  and  C13_14 
ROOT
HETATM    1  C6  UNL     1     -11.994  58.934  36.416  1.00  0.00     0.113 C 
ENDROOT
BRANCH   1   2
HETATM    2  S1  UNL     1     -13.732  58.759  36.962  1.00  0.00    -0.150 SA
BRANCH   2   3
HETATM    3  C5  UNL     1     -14.169  60.235  37.891  1.00  0.00     0.113 C 
BRANCH   3   4
HETATM    4  C4  UNL     1     -14.009  61.482  37.078  1.00  0.00    -0.049 A 
HETATM    5  C3  UNL     1     -13.249  62.559  37.467  1.00  0.00     0.008 A 
HETATM    6  C2  UNL     1     -13.135  63.693  36.675  1.00  0.00     0.001 A 
HETATM    7  C1  UNL     1     -13.779  63.789  35.461  1.00  0.00     0.000 A 
HETATM    8  C20 UNL     1     -14.543  62.713  35.062  1.00  0.00     0.001 A 
HETATM    9  C19 UNL     1     -14.661  61.588  35.843  1.00  0.00     0.008 A 
ENDBRANCH   3   4
ENDBRANCH   2   3
ENDBRANCH   1   2
BRANCH   1  10
HETATM   10  C7  UNL     1     -12.051  59.657  35.116  1.00  0.00    -0.040 A 
HETATM   11  C8  UNL     1     -11.165  60.657  34.859  1.00  0.00     0.009 A 
HETATM   12  C9  UNL     1     -11.201  61.350  33.664  1.00  0.00     0.001 A 
HETATM   13  C10 UNL     1     -12.120  61.066  32.690  1.00  0.00     0.000 A 
HETATM   14  C11 UNL     1     -13.020  60.050  32.947  1.00  0.00     0.001 A 
HETATM   15  C12 UNL     1     -12.988  59.351  34.149  1.00  0.00     0.009 A 
ENDBRANCH   1  10
BRANCH   1  16
HETATM   16  C13 UNL     1     -11.324  57.633  36.351  1.00  0.00    -0.040 A 
HETATM   17  C14 UNL     1     -10.286  57.335  35.502  1.00  0.00     0.009 A 
HETATM   18  C15 UNL     1      -9.725  56.086  35.519  1.00  0.00     0.001 A 
HETATM   19  C16 UNL     1     -10.161  55.092  36.364  1.00  0.00     0.000 A 
HETATM   20  C17 UNL     1     -11.215  55.371  37.238  1.00  0.00     0.001 A 
HETATM   21  C18 UNL     1     -11.766  56.630  37.208  1.00  0.00     0.009 A 
ENDBRANCH   1  16
TORSDOF 5
ENDMDL
