MODEL 1
REMARK VINA RESULT: -8.591445385      0.000      0.000
REMARK  5 active torsions:
REMARK  status: ('A' for Active; 'I' for Inactive)
REMARK    1  A    between atoms: C4_4  and  C5_5 
REMARK    2  A    between atoms: C5_5  and  S1_6 
REMARK    3  A    between atoms: S1_6  and  C6_7 
REMARK    4  A    between atoms: C6_7  and  C7_8 
REMARK    5  A    between atoms: C11_12  and  C12_13 
ROOT
HETATM    1  C7  UNL     1     -10.934  59.169  35.164  1.00  0.00    -0.048 A 
HETATM    2  C8  UNL     1      -9.986  58.445  34.485  1.00  0.00     0.008 A 
HETATM    3  C9  UNL     1      -9.696  57.161  34.953  1.00  0.00     0.001 A 
HETATM    4  C10 UNL     1     -10.344  56.669  36.040  1.00  0.00     0.012 A 
HETATM    5  C11 UNL     1     -11.309  57.382  36.745  1.00  0.00    -0.025 A 
HETATM    6  C18 UNL     1     -11.588  58.647  36.277  1.00  0.00     0.020 A 
ENDROOT
BRANCH   1   7
HETATM    7  C6  UNL     1     -11.317  60.556  34.762  1.00  0.00     0.112 C 
BRANCH   7   8
HETATM    8  S1  UNL     1     -12.588  60.529  33.487  1.00  0.00    -0.160 SA
BRANCH   8   9
HETATM    9  C5  UNL     1     -14.144  61.236  33.989  1.00  0.00     0.112 C 
BRANCH   9  10
HETATM   10  C4  UNL     1     -14.538  60.681  35.310  1.00  0.00    -0.049 A 
HETATM   11  C3  UNL     1     -15.095  59.447  35.452  1.00  0.00     0.008 A 
HETATM   12  C2  UNL     1     -15.446  58.944  36.699  1.00  0.00     0.001 A 
HETATM   13  C1  UNL     1     -15.212  59.740  37.802  1.00  0.00     0.000 A 
HETATM   14  C20 UNL     1     -14.650  60.995  37.695  1.00  0.00     0.001 A 
HETATM   15  C19 UNL     1     -14.324  61.442  36.456  1.00  0.00     0.008 A 
ENDBRANCH   9  10
ENDBRANCH   8   9
ENDBRANCH   7   8
ENDBRANCH   1   7
BRANCH   5  16
HETATM   16  C12 UNL     1     -11.964  56.791  37.903  1.00  0.00    -0.026 A 
HETATM   17  C13 UNL     1     -11.368  56.797  39.165  1.00  0.00     0.012 A 
HETATM   18  C14 UNL     1     -11.989  56.237  40.261  1.00  0.00     0.001 A 
HETATM   19  C15 UNL     1     -13.233  55.645  40.143  1.00  0.00     0.000 A 
HETATM   20  C16 UNL     1     -13.840  55.628  38.907  1.00  0.00     0.001 A 
HETATM   21  C17 UNL     1     -13.202  56.196  37.814  1.00  0.00     0.012 A 
ENDBRANCH   5  16
TORSDOF 5
ENDMDL
MODEL 2
REMARK VINA RESULT: -8.575651574      3.276      7.282
REMARK  5 active torsions:
REMARK  status: ('A' for Active; 'I' for Inactive)
REMARK    1  A    between atoms: C4_4  and  C5_5 
REMARK    2  A    between atoms: C5_5  and  S1_6 
REMARK    3  A    between atoms: S1_6  and  C6_7 
REMARK    4  A    between atoms: C6_7  and  C7_8 
REMARK    5  A    between atoms: C11_12  and  C12_13 
ROOT
HETATM    1  C7  UNL     1     -12.033  56.016  37.427  1.00  0.00    -0.048 A 
HETATM    2  C8  UNL     1     -10.871  55.640  36.800  1.00  0.00     0.008 A 
HETATM    3  C9  UNL     1     -10.185  56.615  36.072  1.00  0.00     0.001 A 
HETATM    4  C10 UNL     1     -10.671  57.881  36.003  1.00  0.00     0.012 A 
HETATM    5  C11 UNL     1     -11.846  58.288  36.628  1.00  0.00    -0.025 A 
HETATM    6  C18 UNL     1     -12.515  57.320  37.344  1.00  0.00     0.020 A 
ENDROOT
BRANCH   1   7
HETATM    7  C6  UNL     1     -12.856  55.057  38.224  1.00  0.00     0.112 C 
BRANCH   7   8
HETATM    8  S1  UNL     1     -11.911  54.393  39.606  1.00  0.00    -0.160 SA
BRANCH   8   9
HETATM    9  C5  UNL     1     -12.006  52.622  39.774  1.00  0.00     0.112 C 
BRANCH   9  10
HETATM   10  C4  UNL     1     -12.698  52.280  41.044  1.00  0.00    -0.049 A 
HETATM   11  C3  UNL     1     -12.155  52.532  42.267  1.00  0.00     0.008 A 
HETATM   12  C2  UNL     1     -12.825  52.213  43.442  1.00  0.00     0.001 A 
HETATM   13  C1  UNL     1     -14.070  51.627  43.334  1.00  0.00     0.000 A 
HETATM   14  C20 UNL     1     -14.650  51.358  42.111  1.00  0.00     0.001 A 
HETATM   15  C19 UNL     1     -13.956  51.688  40.992  1.00  0.00     0.008 A 
ENDBRANCH   9  10
ENDBRANCH   8   9
ENDBRANCH   7   8
ENDBRANCH   1   7
BRANCH   5  16
HETATM   16  C12 UNL     1     -12.307  59.663  36.511  1.00  0.00    -0.026 A 
HETATM   17  C13 UNL     1     -12.168  60.385  35.324  1.00  0.00     0.012 A 
HETATM   18  C14 UNL     1     -12.604  61.688  35.214  1.00  0.00     0.001 A 
HETATM   19  C15 UNL     1     -13.199  62.327  36.286  1.00  0.00     0.000 A 
HETATM   20  C16 UNL     1     -13.347  61.634  37.467  1.00  0.00     0.001 A 
HETATM   21  C17 UNL     1     -12.903  60.324  37.561  1.00  0.00     0.012 A 
ENDBRANCH   5  16
TORSDOF 5
ENDMDL
MODEL 3
REMARK VINA RESULT: -8.537838334      3.550      7.416
REMARK  5 active torsions:
REMARK  status: ('A' for Active; 'I' for Inactive)
REMARK    1  A    between atoms: C4_4  and  C5_5 
REMARK    2  A    between atoms: C5_5  and  S1_6 
REMARK    3  A    between atoms: S1_6  and  C6_7 
REMARK    4  A    between atoms: C6_7  and  C7_8 
REMARK    5  A    between atoms: C11_12  and  C12_13 
ROOT
HETATM    1  C7  UNL     1     -12.132  55.379  37.837  1.00  0.00    -0.048 A 
HETATM    2  C8  UNL     1     -11.028  54.831  37.234  1.00  0.00     0.008 A 
HETATM    3  C9  UNL     1     -10.251  55.665  36.428  1.00  0.00     0.001 A 
HETATM    4  C10 UNL     1     -10.596  56.967  36.263  1.00  0.00     0.012 A 
HETATM    5  C11 UNL     1     -11.709  57.548  36.861  1.00  0.00    -0.025 A 
HETATM    6  C18 UNL     1     -12.470  56.718  37.655  1.00  0.00     0.020 A 
ENDROOT
BRANCH   1   7
HETATM    7  C6  UNL     1     -13.044  54.581  38.711  1.00  0.00     0.112 C 
BRANCH   7   8
HETATM    8  S1  UNL     1     -12.319  52.980  39.104  1.00  0.00    -0.160 SA
BRANCH   8   9
HETATM    9  C5  UNL     1     -13.503  51.739  39.585  1.00  0.00     0.112 C 
BRANCH   9  10
HETATM   10  C4  UNL     1     -13.646  51.736  41.064  1.00  0.00    -0.049 A 
HETATM   11  C3  UNL     1     -12.690  52.236  41.895  1.00  0.00     0.008 A 
HETATM   12  C2  UNL     1     -12.850  52.232  43.275  1.00  0.00     0.001 A 
HETATM   13  C1  UNL     1     -14.016  51.702  43.787  1.00  0.00     0.000 A 
HETATM   14  C20 UNL     1     -15.005  51.187  42.974  1.00  0.00     0.001 A 
HETATM   15  C19 UNL     1     -14.804  51.213  41.632  1.00  0.00     0.008 A 
ENDBRANCH   9  10
ENDBRANCH   8   9
ENDBRANCH   7   8
ENDBRANCH   1   7
BRANCH   5  16
HETATM   16  C12 UNL     1     -12.018  58.953  36.640  1.00  0.00    -0.026 A 
HETATM   17  C13 UNL     1     -12.679  59.719  37.602  1.00  0.00     0.012 A 
HETATM   18  C14 UNL     1     -12.971  61.050  37.391  1.00  0.00     0.001 A 
HETATM   19  C15 UNL     1     -12.615  61.673  36.209  1.00  0.00     0.000 A 
HETATM   20  C16 UNL     1     -11.962  60.937  35.247  1.00  0.00     0.001 A 
HETATM   21  C17 UNL     1     -11.675  59.599  35.474  1.00  0.00     0.012 A 
ENDBRANCH   5  16
TORSDOF 5
ENDMDL
MODEL 4
REMARK VINA RESULT: -8.488986642      3.460      7.196
REMARK  5 active torsions:
REMARK  status: ('A' for Active; 'I' for Inactive)
REMARK    1  A    between atoms: C4_4  and  C5_5 
REMARK    2  A    between atoms: C5_5  and  S1_6 
REMARK    3  A    between atoms: S1_6  and  C6_7 
REMARK    4  A    between atoms: C6_7  and  C7_8 
REMARK    5  A    between atoms: C11_12  and  C12_13 
ROOT
HETATM    1  C7  UNL     1     -11.699  55.276  37.330  1.00  0.00    -0.048 A 
HETATM    2  C8  UNL     1     -10.492  55.502  36.717  1.00  0.00     0.008 A 
HETATM    3  C9  UNL     1     -10.207  56.808  36.314  1.00  0.00     0.001 A 
HETATM    4  C10 UNL     1     -11.107  57.801  36.533  1.00  0.00     0.012 A 
HETATM    5  C11 UNL     1     -12.337  57.598  37.151  1.00  0.00    -0.025 A 
HETATM    6  C18 UNL     1     -12.610  56.307  37.545  1.00  0.00     0.020 A 
ENDROOT
BRANCH   1   7
HETATM    7  C6  UNL     1     -12.118  53.918  37.793  1.00  0.00     0.112 C 
BRANCH   7   8
HETATM    8  S1  UNL     1     -12.613  53.953  39.524  1.00  0.00    -0.160 SA
BRANCH   8   9
HETATM    9  C5  UNL     1     -11.900  52.658  40.517  1.00  0.00     0.112 C 
BRANCH   9  10
HETATM   10  C4  UNL     1     -12.900  52.184  41.508  1.00  0.00    -0.049 A 
HETATM   11  C3  UNL     1     -14.085  51.620  41.143  1.00  0.00     0.008 A 
HETATM   12  C2  UNL     1     -15.001  51.175  42.088  1.00  0.00     0.001 A 
HETATM   13  C1  UNL     1     -14.676  51.323  43.420  1.00  0.00     0.000 A 
HETATM   14  C20 UNL     1     -13.485  51.890  43.825  1.00  0.00     0.001 A 
HETATM   15  C19 UNL     1     -12.621  52.309  42.865  1.00  0.00     0.008 A 
ENDBRANCH   9  10
ENDBRANCH   8   9
ENDBRANCH   7   8
ENDBRANCH   1   7
BRANCH   5  16
HETATM   16  C12 UNL     1     -13.254  58.711  37.352  1.00  0.00    -0.026 A 
HETATM   17  C13 UNL     1     -14.635  58.521  37.416  1.00  0.00     0.012 A 
HETATM   18  C14 UNL     1     -15.503  59.575  37.608  1.00  0.00     0.001 A 
HETATM   19  C15 UNL     1     -15.027  60.866  37.743  1.00  0.00     0.000 A 
HETATM   20  C16 UNL     1     -13.668  61.077  37.684  1.00  0.00     0.001 A 
HETATM   21  C17 UNL     1     -12.808  60.006  37.491  1.00  0.00     0.012 A 
ENDBRANCH   5  16
TORSDOF 5
ENDMDL
MODEL 5
REMARK VINA RESULT: -8.484896132      1.164      1.650
REMARK  5 active torsions:
REMARK  status: ('A' for Active; 'I' for Inactive)
REMARK    1  A    between atoms: C4_4  and  C5_5 
REMARK    2  A    between atoms: C5_5  and  S1_6 
REMARK    3  A    between atoms: S1_6  and  C6_7 
REMARK    4  A    between atoms: C6_7  and  C7_8 
REMARK    5  A    between atoms: C11_12  and  C12_13 
ROOT
HETATM    1  C7  UNL     1     -10.244  58.000  35.119  1.00  0.00    -0.048 A 
HETATM    2  C8  UNL     1      -9.748  56.864  34.531  1.00  0.00     0.008 A 
HETATM    3  C9  UNL     1      -9.794  55.680  35.271  1.00  0.00     0.001 A 
HETATM    4  C10 UNL     1     -10.316  55.680  36.524  1.00  0.00     0.012 A 
HETATM    5  C11 UNL     1     -10.825  56.817  37.143  1.00  0.00    -0.025 A 
HETATM    6  C18 UNL     1     -10.776  57.980  36.406  1.00  0.00     0.020 A 
ENDROOT
BRANCH   1   7
HETATM    7  C6  UNL     1     -10.237  59.325  34.428  1.00  0.00     0.112 C 
BRANCH   7   8
HETATM    8  S1  UNL     1     -11.678  59.502  33.362  1.00  0.00    -0.160 SA
BRANCH   8   9
HETATM    9  C5  UNL     1     -12.926  60.604  33.995  1.00  0.00     0.112 C 
BRANCH   9  10
HETATM   10  C4  UNL     1     -13.293  60.196  35.376  1.00  0.00    -0.049 A 
HETATM   11  C3  UNL     1     -14.087  59.121  35.638  1.00  0.00     0.008 A 
HETATM   12  C2  UNL     1     -14.409  58.752  36.939  1.00  0.00     0.001 A 
HETATM   13  C1  UNL     1     -13.897  59.514  37.969  1.00  0.00     0.000 A 
HETATM   14  C20 UNL     1     -13.091  60.610  37.739  1.00  0.00     0.001 A 
HETATM   15  C19 UNL     1     -12.804  60.930  36.452  1.00  0.00     0.008 A 
ENDBRANCH   9  10
ENDBRANCH   8   9
ENDBRANCH   7   8
ENDBRANCH   1   7
BRANCH   5  16
HETATM   16  C12 UNL     1     -11.371  56.743  38.491  1.00  0.00    -0.026 A 
HETATM   17  C13 UNL     1     -12.485  55.955  38.788  1.00  0.00     0.012 A 
HETATM   18  C14 UNL     1     -13.001  55.885  40.065  1.00  0.00     0.001 A 
HETATM   19  C15 UNL     1     -12.426  56.600  41.100  1.00  0.00     0.000 A 
HETATM   20  C16 UNL     1     -11.326  57.383  40.829  1.00  0.00     0.001 A 
HETATM   21  C17 UNL     1     -10.819  57.442  39.540  1.00  0.00     0.012 A 
ENDBRANCH   5  16
TORSDOF 5
ENDMDL
