MODEL 1
REMARK VINA RESULT: -8.928040054      0.000      0.000
REMARK  3 active torsions:
REMARK  status: ('A' for Active; 'I' for Inactive)
REMARK    1  A    between atoms: C3_8  and  C4_9 
REMARK       I    between atoms: C4_9  and  N4_11 
REMARK    2  A    between atoms: C10_18  and  C11_19 
REMARK    3  A    between atoms: C11_19  and  C12_20 
ROOT
HETATM    1  N1  UNL     1      19.686   2.942  11.401  1.00  0.00    -0.172 NA
HETATM    2  C1  UNL     1      19.048   3.900  11.325  1.00  0.00     0.183 C 
HETATM    3  N2  UNL     1      18.305   5.047  11.217  1.00  0.00    -0.283 N 
ATOM      4  H2  UNL     1      18.322   5.465  10.286  1.00  0.00     0.179 HD
HETATM    5  C2  UNL     1      17.607   5.684  12.046  1.00  0.00     0.092 C 
HETATM    6  N3  UNL     1      16.960   6.888  11.536  1.00  0.00    -0.357 N 
ATOM      7  H3  UNL     1      16.587   6.934  10.587  1.00  0.00     0.162 HD
HETATM    8  C3  UNL     1      16.874   8.022  12.451  1.00  0.00     0.238 C 
HETATM    9  S1  UNL     1      18.228   7.930  13.678  1.00  0.00    -0.134 SA
HETATM   10  C9  UNL     1      18.487   6.185  14.206  1.00  0.00     0.089 C 
HETATM   11  C10 UNL     1      17.371   5.427  13.467  1.00  0.00     0.067 C 
ENDROOT
BRANCH  11  12
HETATM   12  C11 UNL     1      17.115   4.062  13.938  1.00  0.00     0.050 C 
BRANCH  12  13
HETATM   13  C12 UNL     1      16.188   3.983  15.102  1.00  0.00    -0.044 C 
HETATM   14  C13 UNL     1      15.239   4.885  15.276  1.00  0.00    -0.021 C 
HETATM   15  C14 UNL     1      14.267   4.889  16.409  1.00  0.00     0.033 C 
HETATM   16  C15 UNL     1      14.034   3.408  16.737  1.00  0.00     0.086 C 
HETATM   17  C16 UNL     1      15.379   2.894  17.205  1.00  0.00     0.278 C 
HETATM   18  F1  UNL     1      15.161   1.655  17.779  1.00  0.00    -0.203 F 
HETATM   19  F2  UNL     1      15.828   3.783  18.170  1.00  0.00    -0.203 F 
HETATM   20  C17 UNL     1      16.356   2.846  16.085  1.00  0.00     0.271 C 
HETATM   21  F3  UNL     1      16.293   1.638  15.452  1.00  0.00    -0.238 F 
ENDBRANCH  12  13
ENDBRANCH  11  12
BRANCH   8  22
HETATM   22  C4  UNL     1      17.036   9.251  11.639  1.00  0.00     0.252 C 
HETATM   23  O1  UNL     1      18.165   9.803  11.514  1.00  0.00    -0.270 OA
HETATM   24  N4  UNL     1      15.921   9.836  10.984  1.00  0.00    -0.350 N 
HETATM   25  C5  UNL     1      15.947  11.013  10.179  1.00  0.00     0.126 C 
HETATM   26  C8  UNL     1      14.577   9.301  11.034  1.00  0.00     0.126 C 
HETATM   27  C6  UNL     1      14.506  11.426  10.055  1.00  0.00     0.021 C 
HETATM   28  C7  UNL     1      13.806  10.060   9.963  1.00  0.00     0.021 C 
ENDBRANCH   8  22
TORSDOF 3
ENDMDL
MODEL 2
REMARK VINA RESULT: -8.834431715      4.872      7.558
REMARK  3 active torsions:
REMARK  status: ('A' for Active; 'I' for Inactive)
REMARK    1  A    between atoms: C3_8  and  C4_9 
REMARK       I    between atoms: C4_9  and  N4_11 
REMARK    2  A    between atoms: C10_18  and  C11_19 
REMARK    3  A    between atoms: C11_19  and  C12_20 
ROOT
HETATM    1  N1  UNL     1      21.210   6.291  10.720  1.00  0.00    -0.172 NA
HETATM    2  C1  UNL     1      20.698   6.071  11.730  1.00  0.00     0.183 C 
HETATM    3  N2  UNL     1      20.095   5.785  12.928  1.00  0.00    -0.283 N 
ATOM      4  H2  UNL     1      20.531   5.015  13.436  1.00  0.00     0.179 HD
HETATM    5  C2  UNL     1      19.107   6.290  13.520  1.00  0.00     0.092 C 
HETATM    6  N3  UNL     1      18.767   5.690  14.805  1.00  0.00    -0.357 N 
ATOM      7  H3  UNL     1      19.486   5.359  15.449  1.00  0.00     0.162 HD
HETATM    8  C3  UNL     1      17.346   5.589  15.124  1.00  0.00     0.238 C 
HETATM    9  S1  UNL     1      16.370   5.518  13.578  1.00  0.00    -0.134 SA
HETATM   10  C9  UNL     1      17.076   6.674  12.330  1.00  0.00     0.089 C 
HETATM   11  C10 UNL     1      18.212   7.367  13.099  1.00  0.00     0.067 C 
ENDROOT
BRANCH  11  12
HETATM   12  C11 UNL     1      18.756   8.576  12.470  1.00  0.00     0.050 C 
BRANCH  12  13
HETATM   13  C12 UNL     1      19.120   9.653  13.433  1.00  0.00    -0.044 C 
HETATM   14  C13 UNL     1      19.037   9.454  14.736  1.00  0.00    -0.021 C 
HETATM   15  C14 UNL     1      19.378  10.470  15.775  1.00  0.00     0.033 C 
HETATM   16  C15 UNL     1      20.515  11.298  15.162  1.00  0.00     0.086 C 
HETATM   17  C16 UNL     1      19.902  11.972  13.954  1.00  0.00     0.278 C 
HETATM   18  F1  UNL     1      20.792  12.944  13.536  1.00  0.00    -0.203 F 
HETATM   19  F2  UNL     1      18.728  12.571  14.389  1.00  0.00    -0.203 F 
HETATM   20  C17 UNL     1      19.586  10.984  12.888  1.00  0.00     0.271 C 
HETATM   21  F3  UNL     1      20.657  10.825  12.057  1.00  0.00    -0.238 F 
ENDBRANCH  12  13
ENDBRANCH  11  12
BRANCH   8  22
HETATM   22  C4  UNL     1      17.156   4.328  15.877  1.00  0.00     0.252 C 
HETATM   23  O1  UNL     1      18.119   3.531  16.063  1.00  0.00    -0.270 OA
HETATM   24  N4  UNL     1      15.885   3.986  16.408  1.00  0.00    -0.350 N 
HETATM   25  C5  UNL     1      15.576   2.806  17.147  1.00  0.00     0.126 C 
HETATM   26  C8  UNL     1      14.703   4.813  16.280  1.00  0.00     0.126 C 
HETATM   27  C6  UNL     1      14.074   2.725  17.132  1.00  0.00     0.021 C 
HETATM   28  C7  UNL     1      13.690   4.210  17.242  1.00  0.00     0.021 C 
ENDBRANCH   8  22
TORSDOF 3
ENDMDL
MODEL 3
REMARK VINA RESULT: -8.674048781      3.999      7.103
REMARK  3 active torsions:
REMARK  status: ('A' for Active; 'I' for Inactive)
REMARK    1  A    between atoms: C3_8  and  C4_9 
REMARK       I    between atoms: C4_9  and  N4_11 
REMARK    2  A    between atoms: C10_18  and  C11_19 
REMARK    3  A    between atoms: C11_19  and  C12_20 
ROOT
HETATM    1  N1  UNL     1      21.607   6.268  10.951  1.00  0.00    -0.172 NA
HETATM    2  C1  UNL     1      20.791   5.993  11.718  1.00  0.00     0.183 C 
HETATM    3  N2  UNL     1      19.835   5.648  12.639  1.00  0.00    -0.283 N 
ATOM      4  H2  UNL     1      20.213   5.234  13.491  1.00  0.00     0.179 HD
HETATM    5  C2  UNL     1      18.581   5.744  12.633  1.00  0.00     0.092 C 
HETATM    6  N3  UNL     1      17.904   5.250  13.827  1.00  0.00    -0.357 N 
ATOM      7  H3  UNL     1      18.305   5.369  14.758  1.00  0.00     0.162 HD
HETATM    8  C3  UNL     1      16.624   4.578  13.622  1.00  0.00     0.238 C 
HETATM    9  S1  UNL     1      16.566   3.859  11.942  1.00  0.00    -0.134 SA
HETATM   10  C9  UNL     1      17.341   5.012  10.732  1.00  0.00     0.089 C 
HETATM   11  C10 UNL     1      17.683   6.240  11.590  1.00  0.00     0.067 C 
ENDROOT
BRANCH  11  12
HETATM   12  C11 UNL     1      18.019   7.459  10.846  1.00  0.00     0.050 C 
BRANCH  12  13
HETATM   13  C12 UNL     1      16.836   8.261  10.426  1.00  0.00    -0.044 C 
HETATM   14  C13 UNL     1      16.553   8.434   9.147  1.00  0.00    -0.021 C 
HETATM   15  C14 UNL     1      15.394   9.220   8.632  1.00  0.00     0.033 C 
HETATM   16  C15 UNL     1      14.287   9.027   9.677  1.00  0.00     0.086 C 
HETATM   17  C16 UNL     1      14.827   9.662  10.941  1.00  0.00     0.278 C 
HETATM   18  F1  UNL     1      13.769   9.770  11.824  1.00  0.00    -0.203 F 
HETATM   19  F2  UNL     1      15.272  10.927  10.588  1.00  0.00    -0.203 F 
HETATM   20  C17 UNL     1      15.962   8.876  11.495  1.00  0.00     0.271 C 
HETATM   21  F3  UNL     1      15.501   7.925  12.359  1.00  0.00    -0.238 F 
ENDBRANCH  12  13
ENDBRANCH  11  12
BRANCH   8  22
HETATM   22  C4  UNL     1      16.539   3.488  14.621  1.00  0.00     0.252 C 
HETATM   23  O1  UNL     1      17.266   2.459  14.524  1.00  0.00    -0.270 OA
HETATM   24  N4  UNL     1      15.636   3.575  15.713  1.00  0.00    -0.350 N 
HETATM   25  C5  UNL     1      15.460   2.596  16.735  1.00  0.00     0.126 C 
HETATM   26  C8  UNL     1      14.756   4.701  15.950  1.00  0.00     0.126 C 
HETATM   27  C6  UNL     1      14.159   2.960  17.396  1.00  0.00     0.021 C 
HETATM   28  C7  UNL     1      14.219   4.496  17.359  1.00  0.00     0.021 C 
ENDBRANCH   8  22
TORSDOF 3
ENDMDL
MODEL 4
REMARK VINA RESULT: -8.555005959      4.317      7.228
REMARK  3 active torsions:
REMARK  status: ('A' for Active; 'I' for Inactive)
REMARK    1  A    between atoms: C3_8  and  C4_9 
REMARK       I    between atoms: C4_9  and  N4_11 
REMARK    2  A    between atoms: C10_18  and  C11_19 
REMARK    3  A    between atoms: C11_19  and  C12_20 
ROOT
HETATM    1  N1  UNL     1      21.699   5.550  10.733  1.00  0.00    -0.172 NA
HETATM    2  C1  UNL     1      20.871   5.434  11.527  1.00  0.00     0.183 C 
HETATM    3  N2  UNL     1      19.900   5.281  12.484  1.00  0.00    -0.283 N 
ATOM      4  H2  UNL     1      20.267   5.130  13.423  1.00  0.00     0.179 HD
HETATM    5  C2  UNL     1      18.644   5.291  12.424  1.00  0.00     0.092 C 
HETATM    6  N3  UNL     1      17.950   5.085  13.690  1.00  0.00    -0.357 N 
ATOM      7  H3  UNL     1      18.307   5.469  14.565  1.00  0.00     0.162 HD
HETATM    8  C3  UNL     1      16.718   4.302  13.640  1.00  0.00     0.238 C 
HETATM    9  S1  UNL     1      16.767   3.166  12.208  1.00  0.00    -0.134 SA
HETATM   10  C9  UNL     1      17.522   4.009  10.755  1.00  0.00     0.089 C 
HETATM   11  C10 UNL     1      17.762   5.438  11.267  1.00  0.00     0.067 C 
ENDROOT
BRANCH  11  12
HETATM   12  C11 UNL     1      18.058   6.438  10.235  1.00  0.00     0.050 C 
BRANCH  12  13
HETATM   13  C12 UNL     1      16.859   6.924   9.495  1.00  0.00    -0.044 C 
HETATM   14  C13 UNL     1      16.472   6.342   8.375  1.00  0.00    -0.021 C 
HETATM   15  C14 UNL     1      15.288   6.757   7.566  1.00  0.00     0.033 C 
HETATM   16  C15 UNL     1      14.271   7.279   8.590  1.00  0.00     0.086 C 
HETATM   17  C16 UNL     1      14.929   8.491   9.213  1.00  0.00     0.278 C 
HETATM   18  F1  UNL     1      13.951   9.160   9.926  1.00  0.00    -0.203 F 
HETATM   19  F2  UNL     1      15.366   9.285   8.164  1.00  0.00    -0.203 F 
HETATM   20  C17 UNL     1      16.091   8.100  10.054  1.00  0.00     0.271 C 
HETATM   21  F3  UNL     1      15.688   7.859  11.336  1.00  0.00    -0.238 F 
ENDBRANCH  12  13
ENDBRANCH  11  12
BRANCH   8  22
HETATM   22  C4  UNL     1      16.655   3.508  14.889  1.00  0.00     0.252 C 
HETATM   23  O1  UNL     1      17.450   2.547  15.089  1.00  0.00    -0.270 OA
HETATM   24  N4  UNL     1      15.697   3.811  15.891  1.00  0.00    -0.350 N 
HETATM   25  C5  UNL     1      15.535   3.124  17.130  1.00  0.00     0.126 C 
HETATM   26  C8  UNL     1      14.736   4.890  15.795  1.00  0.00     0.126 C 
HETATM   27  C6  UNL     1      14.183   3.550  17.633  1.00  0.00     0.021 C 
HETATM   28  C7  UNL     1      14.146   5.022  17.192  1.00  0.00     0.021 C 
ENDBRANCH   8  22
TORSDOF 3
ENDMDL
MODEL 5
REMARK VINA RESULT: -8.534351434      1.182      1.717
REMARK  3 active torsions:
REMARK  status: ('A' for Active; 'I' for Inactive)
REMARK    1  A    between atoms: C3_8  and  C4_9 
REMARK       I    between atoms: C4_9  and  N4_11 
REMARK    2  A    between atoms: C10_18  and  C11_19 
REMARK    3  A    between atoms: C11_19  and  C12_20 
ROOT
HETATM    1  N1  UNL     1      19.339   2.512  11.358  1.00  0.00    -0.172 NA
HETATM    2  C1  UNL     1      18.764   3.510  11.316  1.00  0.00     0.183 C 
HETATM    3  N2  UNL     1      18.096   4.706  11.248  1.00  0.00    -0.283 N 
ATOM      4  H2  UNL     1      18.143   5.154  10.333  1.00  0.00     0.179 HD
HETATM    5  C2  UNL     1      17.437   5.356  12.099  1.00  0.00     0.092 C 
HETATM    6  N3  UNL     1      16.870   6.616  11.630  1.00  0.00    -0.357 N 
ATOM      7  H3  UNL     1      16.503   6.719  10.684  1.00  0.00     0.162 HD
HETATM    8  C3  UNL     1      16.853   7.721  12.585  1.00  0.00     0.238 C 
HETATM    9  S1  UNL     1      18.194   7.499  13.809  1.00  0.00    -0.134 SA
HETATM   10  C9  UNL     1      18.339   5.723  14.276  1.00  0.00     0.089 C 
HETATM   11  C10 UNL     1      17.181   5.065  13.509  1.00  0.00     0.067 C 
ENDROOT
BRANCH  11  12
HETATM   12  C11 UNL     1      16.836   3.703  13.931  1.00  0.00     0.050 C 
BRANCH  12  13
HETATM   13  C12 UNL     1      16.049   3.637  15.194  1.00  0.00    -0.044 C 
HETATM   14  C13 UNL     1      16.245   2.665  16.066  1.00  0.00    -0.021 C 
HETATM   15  C14 UNL     1      15.506   2.516  17.354  1.00  0.00     0.033 C 
HETATM   16  C15 UNL     1      15.208   3.952  17.809  1.00  0.00     0.086 C 
HETATM   17  C16 UNL     1      14.293   4.518  16.744  1.00  0.00     0.278 C 
HETATM   18  F1  UNL     1      13.768   5.695  17.246  1.00  0.00    -0.203 F 
HETATM   19  F2  UNL     1      13.275   3.592  16.566  1.00  0.00    -0.203 F 
HETATM   20  C17 UNL     1      15.015   4.709  15.459  1.00  0.00     0.271 C 
HETATM   21  F3  UNL     1      15.576   5.953  15.413  1.00  0.00    -0.238 F 
ENDBRANCH  12  13
ENDBRANCH  11  12
BRANCH   8  22
HETATM   22  C4  UNL     1      17.095   8.964  11.818  1.00  0.00     0.252 C 
HETATM   23  O1  UNL     1      18.258   9.446  11.711  1.00  0.00    -0.270 OA
HETATM   24  N4  UNL     1      16.022   9.644  11.184  1.00  0.00    -0.350 N 
HETATM   25  C5  UNL     1      16.125  10.845  10.422  1.00  0.00     0.126 C 
HETATM   26  C8  UNL     1      14.645   9.195  11.217  1.00  0.00     0.126 C 
HETATM   27  C6  UNL     1      14.714  11.354  10.314  1.00  0.00     0.021 C 
HETATM   28  C7  UNL     1      13.927  10.041  10.174  1.00  0.00     0.021 C 
ENDBRANCH   8  22
TORSDOF 3
ENDMDL
