MODEL 1
REMARK VINA RESULT: -8.249335858      0.000      0.000
REMARK  4 active torsions:
REMARK  status: ('A' for Active; 'I' for Inactive)
REMARK    1  A    between atoms: C2_2  and  C3_5 
REMARK    2  A    between atoms: C6_8  and  C7_9 
REMARK    3  A    between atoms: C7_9  and  N1_10 
REMARK    4  A    between atoms: C16_21  and  C17_22 
ROOT
HETATM    1  C3  UNL     1      17.257   2.985  12.166  1.00  0.00     0.007 C 
HETATM    2  C4  UNL     1      15.966   3.414  11.588  1.00  0.00     0.020 C 
HETATM    3  C5  UNL     1      18.268   4.111  12.396  1.00  0.00     0.020 C 
HETATM    4  C6  UNL     1      17.542   5.198  13.086  1.00  0.00     0.015 C 
HETATM    5  C15 UNL     1      16.631   4.796  14.198  1.00  0.00     0.022 C 
HETATM    6  C16 UNL     1      16.462   3.369  14.513  1.00  0.00     0.088 C 
HETATM    7  C18 UNL     1      17.051   2.393  13.546  1.00  0.00     0.029 C 
ENDROOT
BRANCH   4   8
HETATM    8  C7  UNL     1      18.371   6.405  13.431  1.00  0.00     0.277 C 
BRANCH   8   9
HETATM    9  N1  UNL     1      18.510   7.408  12.416  1.00  0.00     0.089 N 
HETATM   10  C8  UNL     1      17.520   8.440  12.795  1.00  0.00     0.277 C 
HETATM   11  C9  UNL     1      16.147   8.033  12.332  1.00  0.00     0.099 C 
HETATM   12  C10 UNL     1      16.093   8.514  10.868  1.00  0.00     0.167 C 
HETATM   13  C11 UNL     1      17.413   8.088  10.287  1.00  0.00     0.099 C 
HETATM   14  O1  UNL     1      15.017   8.035  10.181  1.00  0.00    -0.353 OA
HETATM   15  O2  UNL     1      15.986   9.899  10.943  1.00  0.00    -0.353 OA
HETATM   16  C12 UNL     1      18.061   6.965  11.100  1.00  0.00     0.277 C 
HETATM   17  C13 UNL     1      14.185   9.083   9.848  1.00  0.00     0.197 C 
HETATM   18  C14 UNL     1      14.652  10.193  10.754  1.00  0.00     0.197 C 
ENDBRANCH   8   9
ENDBRANCH   4   8
BRANCH   1  19
HETATM   19  C2  UNL     1      17.943   1.922  11.316  1.00  0.00     0.182 C 
HETATM   20  C1  UNL     1      19.357   2.259  10.972  1.00  0.00     0.071 C 
HETATM   21  F1  UNL     1      17.861   0.683  11.927  1.00  0.00    -0.225 F 
HETATM   22 CL1  UNL     1      17.037   1.778   9.768  1.00  0.00    -0.082 Cl
ENDBRANCH   1  19
BRANCH   6  23
HETATM   23  C17 UNL     1      16.980   3.045  15.861  1.00  0.00     0.177 C 
HETATM   24  O3  UNL     1      18.083   3.497  16.216  1.00  0.00    -0.648 OA
HETATM   25  O4  UNL     1      16.250   2.257  16.705  1.00  0.00    -0.648 OA
ENDBRANCH   6  23
TORSDOF 4
ENDMDL
MODEL 2
REMARK VINA RESULT: -7.954838721      2.546      3.472
REMARK  4 active torsions:
REMARK  status: ('A' for Active; 'I' for Inactive)
REMARK    1  A    between atoms: C2_2  and  C3_5 
REMARK    2  A    between atoms: C6_8  and  C7_9 
REMARK    3  A    between atoms: C7_9  and  N1_10 
REMARK    4  A    between atoms: C16_21  and  C17_22 
ROOT
HETATM    1  C3  UNL     1      17.142   3.179  12.146  1.00  0.00     0.007 C 
HETATM    2  C4  UNL     1      15.890   3.789  11.652  1.00  0.00     0.020 C 
HETATM    3  C5  UNL     1      18.261   4.172  12.470  1.00  0.00     0.020 C 
HETATM    4  C6  UNL     1      17.655   5.240  13.291  1.00  0.00     0.015 C 
HETATM    5  C15 UNL     1      16.726   4.807  14.377  1.00  0.00     0.022 C 
HETATM    6  C16 UNL     1      16.426   3.377  14.541  1.00  0.00     0.088 C 
HETATM    7  C18 UNL     1      16.902   2.461  13.459  1.00  0.00     0.029 C 
ENDROOT
BRANCH   4   8
HETATM    8  C7  UNL     1      18.602   6.318  13.743  1.00  0.00     0.277 C 
BRANCH   8   9
HETATM    9  N1  UNL     1      18.235   7.672  13.442  1.00  0.00     0.089 N 
HETATM   10  C8  UNL     1      19.029   7.998  12.238  1.00  0.00     0.277 C 
HETATM   11  C9  UNL     1      20.433   8.370  12.630  1.00  0.00     0.099 C 
HETATM   12  C10 UNL     1      20.336   9.869  12.977  1.00  0.00     0.167 C 
HETATM   13  C11 UNL     1      19.096   9.976  13.820  1.00  0.00     0.099 C 
HETATM   14  O1  UNL     1      21.453  10.357  13.586  1.00  0.00    -0.353 OA
HETATM   15  O2  UNL     1      20.185  10.516  11.754  1.00  0.00    -0.353 OA
HETATM   16  C12 UNL     1      18.704   8.632  14.436  1.00  0.00     0.277 C 
HETATM   17  C13 UNL     1      22.059  11.279  12.760  1.00  0.00     0.197 C 
HETATM   18  C14 UNL     1      21.431  11.002  11.418  1.00  0.00     0.197 C 
ENDBRANCH   8   9
ENDBRANCH   4   8
BRANCH   1  19
HETATM   19  C2  UNL     1      17.709   2.156  11.169  1.00  0.00     0.182 C 
HETATM   20  C1  UNL     1      17.575   0.745  11.641  1.00  0.00     0.071 C 
HETATM   21  F1  UNL     1      17.144   2.317   9.916  1.00  0.00    -0.225 F 
HETATM   22 CL1  UNL     1      19.465   2.488  10.973  1.00  0.00    -0.082 Cl
ENDBRANCH   1  19
BRANCH   6  23
HETATM   23  C17 UNL     1      16.931   2.859  15.833  1.00  0.00     0.177 C 
HETATM   24  O3  UNL     1      18.025   3.262  16.265  1.00  0.00    -0.648 OA
HETATM   25  O4  UNL     1      16.199   1.947  16.539  1.00  0.00    -0.648 OA
ENDBRANCH   6  23
TORSDOF 4
ENDMDL
MODEL 3
REMARK VINA RESULT: -7.874635487      2.173      3.113
REMARK  4 active torsions:
REMARK  status: ('A' for Active; 'I' for Inactive)
REMARK    1  A    between atoms: C2_2  and  C3_5 
REMARK    2  A    between atoms: C6_8  and  C7_9 
REMARK    3  A    between atoms: C7_9  and  N1_10 
REMARK    4  A    between atoms: C16_21  and  C17_22 
ROOT
HETATM    1  C3  UNL     1      17.252   3.049  12.166  1.00  0.00     0.007 C 
HETATM    2  C4  UNL     1      15.941   3.366  11.561  1.00  0.00     0.020 C 
HETATM    3  C5  UNL     1      18.108   4.266  12.525  1.00  0.00     0.020 C 
HETATM    4  C6  UNL     1      17.230   5.202  13.258  1.00  0.00     0.015 C 
HETATM    5  C15 UNL     1      16.333   4.608  14.294  1.00  0.00     0.022 C 
HETATM    6  C16 UNL     1      16.329   3.152  14.495  1.00  0.00     0.088 C 
HETATM    7  C18 UNL     1      17.069   2.331  13.488  1.00  0.00     0.029 C 
ENDROOT
BRANCH   4   8
HETATM    8  C7  UNL     1      17.891   6.468  13.729  1.00  0.00     0.277 C 
BRANCH   8   9
HETATM    9  N1  UNL     1      18.415   7.341  12.719  1.00  0.00     0.089 N 
HETATM   10  C8  UNL     1      19.720   7.773  13.262  1.00  0.00     0.277 C 
HETATM   11  C9  UNL     1      19.524   8.890  14.252  1.00  0.00     0.099 C 
HETATM   12  C10 UNL     1      19.465  10.156  13.375  1.00  0.00     0.167 C 
HETATM   13  C11 UNL     1      18.559   9.779  12.237  1.00  0.00     0.099 C 
HETATM   14  O1  UNL     1      19.054  11.265  14.053  1.00  0.00    -0.353 OA
HETATM   15  O2  UNL     1      20.773  10.363  12.946  1.00  0.00    -0.353 OA
HETATM   16  C12 UNL     1      17.666   8.586  12.586  1.00  0.00     0.277 C 
HETATM   17  C13 UNL     1      20.089  12.174  14.114  1.00  0.00     0.197 C 
HETATM   18  C14 UNL     1      21.297  11.341  13.765  1.00  0.00     0.197 C 
ENDBRANCH   8   9
ENDBRANCH   4   8
BRANCH   1  19
HETATM   19  C2  UNL     1      18.094   2.146  11.273  1.00  0.00     0.182 C 
HETATM   20  C1  UNL     1      19.415   2.740  10.905  1.00  0.00     0.071 C 
HETATM   21  F1  UNL     1      18.254   0.901  11.855  1.00  0.00    -0.225 F 
HETATM   22 CL1  UNL     1      17.187   1.873   9.745  1.00  0.00    -0.082 Cl
ENDBRANCH   1  19
BRANCH   6  23
HETATM   23  C17 UNL     1      16.832   2.787  15.839  1.00  0.00     0.177 C 
HETATM   24  O3  UNL     1      17.937   3.216  16.214  1.00  0.00    -0.648 OA
HETATM   25  O4  UNL     1      16.085   1.987  16.656  1.00  0.00    -0.648 OA
ENDBRANCH   6  23
TORSDOF 4
ENDMDL
MODEL 4
REMARK VINA RESULT: -7.734345247      1.974      2.325
REMARK  4 active torsions:
REMARK  status: ('A' for Active; 'I' for Inactive)
REMARK    1  A    between atoms: C2_2  and  C3_5 
REMARK    2  A    between atoms: C6_8  and  C7_9 
REMARK    3  A    between atoms: C7_9  and  N1_10 
REMARK    4  A    between atoms: C16_21  and  C17_22 
ROOT
HETATM    1  C3  UNL     1      17.192   3.060  12.039  1.00  0.00     0.007 C 
HETATM    2  C4  UNL     1      15.931   3.621  11.510  1.00  0.00     0.020 C 
HETATM    3  C5  UNL     1      18.284   4.091  12.334  1.00  0.00     0.020 C 
HETATM    4  C6  UNL     1      17.645   5.175  13.109  1.00  0.00     0.015 C 
HETATM    5  C15 UNL     1      16.717   4.761  14.202  1.00  0.00     0.022 C 
HETATM    6  C16 UNL     1      16.448   3.331  14.417  1.00  0.00     0.088 C 
HETATM    7  C18 UNL     1      16.956   2.386  13.376  1.00  0.00     0.029 C 
ENDROOT
BRANCH   4   8
HETATM    8  C7  UNL     1      18.562   6.291  13.528  1.00  0.00     0.277 C 
BRANCH   8   9
HETATM    9  N1  UNL     1      19.324   6.928  12.493  1.00  0.00     0.089 N 
HETATM   10  C8  UNL     1      19.771   8.196  13.106  1.00  0.00     0.277 C 
HETATM   11  C9  UNL     1      18.668   9.217  13.046  1.00  0.00     0.099 C 
HETATM   12  C10 UNL     1      18.815   9.839  11.643  1.00  0.00     0.167 C 
HETATM   13  C11 UNL     1      19.016   8.660  10.732  1.00  0.00     0.099 C 
HETATM   14  O1  UNL     1      17.762  10.628  11.288  1.00  0.00    -0.353 OA
HETATM   15  O2  UNL     1      19.955  10.634  11.716  1.00  0.00    -0.353 OA
HETATM   16  C12 UNL     1      18.512   7.359  11.359  1.00  0.00     0.277 C 
HETATM   17  C13 UNL     1      18.187  11.934  11.173  1.00  0.00     0.197 C 
HETATM   18  C14 UNL     1      19.512  11.928  11.893  1.00  0.00     0.197 C 
ENDBRANCH   8   9
ENDBRANCH   4   8
BRANCH   1  19
HETATM   19  C2  UNL     1      17.791   2.015  11.105  1.00  0.00     0.182 C 
HETATM   20  C1  UNL     1      17.677   0.619  11.625  1.00  0.00     0.071 C 
HETATM   21  F1  UNL     1      17.242   2.121   9.840  1.00  0.00    -0.225 F 
HETATM   22 CL1  UNL     1      19.544   2.374  10.921  1.00  0.00    -0.082 Cl
ENDBRANCH   1  19
BRANCH   6  23
HETATM   23  C17 UNL     1      16.953   2.874  15.732  1.00  0.00     0.177 C 
HETATM   24  O3  UNL     1      18.006   3.358  16.183  1.00  0.00    -0.648 OA
HETATM   25  O4  UNL     1      16.264   1.930  16.440  1.00  0.00    -0.648 OA
ENDBRANCH   6  23
TORSDOF 4
ENDMDL
MODEL 5
REMARK VINA RESULT: -7.607401791      1.161      1.711
REMARK  4 active torsions:
REMARK  status: ('A' for Active; 'I' for Inactive)
REMARK    1  A    between atoms: C2_2  and  C3_5 
REMARK    2  A    between atoms: C6_8  and  C7_9 
REMARK    3  A    between atoms: C7_9  and  N1_10 
REMARK    4  A    between atoms: C16_21  and  C17_22 
ROOT
HETATM    1  C3  UNL     1      17.216   3.045  12.189  1.00  0.00     0.007 C 
HETATM    2  C4  UNL     1      15.908   3.419  11.611  1.00  0.00     0.020 C 
HETATM    3  C5  UNL     1      18.170   4.215  12.440  1.00  0.00     0.020 C 
HETATM    4  C6  UNL     1      17.389   5.255  13.142  1.00  0.00     0.015 C 
HETATM    5  C15 UNL     1      16.494   4.793  14.244  1.00  0.00     0.022 C 
HETATM    6  C16 UNL     1      16.395   3.355  14.537  1.00  0.00     0.088 C 
HETATM    7  C18 UNL     1      17.034   2.423  13.559  1.00  0.00     0.029 C 
ENDROOT
BRANCH   4   8
HETATM    8  C7  UNL     1      18.157   6.496  13.509  1.00  0.00     0.277 C 
BRANCH   8   9
HETATM    9  N1  UNL     1      17.545   7.754  13.195  1.00  0.00     0.089 N 
HETATM   10  C8  UNL     1      16.820   7.494  11.933  1.00  0.00     0.277 C 
HETATM   11  C9  UNL     1      17.769   7.563  10.768  1.00  0.00     0.099 C 
HETATM   12  C10 UNL     1      17.830   9.066  10.428  1.00  0.00     0.167 C 
HETATM   13  C11 UNL     1      17.975   9.743  11.762  1.00  0.00     0.099 C 
HETATM   14  O1  UNL     1      18.821   9.381   9.547  1.00  0.00    -0.353 OA
HETATM   15  O2  UNL     1      16.605   9.354   9.834  1.00  0.00    -0.353 OA
HETATM   16  C12 UNL     1      18.507   8.790  12.834  1.00  0.00     0.277 C 
HETATM   17  C13 UNL     1      18.261   9.828   8.369  1.00  0.00     0.197 C 
HETATM   18  C14 UNL     1      16.830   9.363   8.473  1.00  0.00     0.197 C 
ENDBRANCH   8   9
ENDBRANCH   4   8
BRANCH   1  19
HETATM   19  C2  UNL     1      17.956   2.030  11.326  1.00  0.00     0.182 C 
HETATM   20  C1  UNL     1      19.339   2.459  10.958  1.00  0.00     0.071 C 
HETATM   21  F1  UNL     1      17.967   0.788  11.937  1.00  0.00    -0.225 F 
HETATM   22 CL1  UNL     1      17.036   1.825   9.794  1.00  0.00    -0.082 Cl
ENDBRANCH   1  19
BRANCH   6  23
HETATM   23  C17 UNL     1      16.923   3.036  15.883  1.00  0.00     0.177 C 
HETATM   24  O3  UNL     1      18.034   3.478  16.223  1.00  0.00    -0.648 OA
HETATM   25  O4  UNL     1      16.192   2.263  16.741  1.00  0.00    -0.648 OA
ENDBRANCH   6  23
TORSDOF 4
ENDMDL
