MODEL 1
REMARK VINA RESULT: -8.024767941      0.000      0.000
REMARK  4 active torsions:
REMARK  status: ('A' for Active; 'I' for Inactive)
REMARK       I    between atoms: N1_8  and  C6_9 
REMARK    1  A    between atoms: C6_9  and  O3_11 
REMARK    2  A    between atoms: O3_11  and  C7_12 
REMARK    3  A    between atoms: C9_14  and  C10_15 
REMARK    4  A    between atoms: C10_15  and  C11_16 
ROOT
HETATM    1  C7  UNL     1      17.439   4.782  13.883  1.00  0.00     0.103 A 
HETATM    2  C8  UNL     1      16.931   3.785  13.092  1.00  0.00     0.048 A 
HETATM    3  C9  UNL     1      16.653   4.026  11.733  1.00  0.00    -0.024 A 
HETATM    4  C12 UNL     1      16.889   5.258  11.194  1.00  0.00     0.042 A 
HETATM    5 CL2  UNL     1      16.584   5.543   9.508  1.00  0.00    -0.084 Cl
HETATM    6  C13 UNL     1      17.408   6.280  12.003  1.00  0.00     0.051 A 
HETATM    7  C14 UNL     1      17.664   6.007  13.318  1.00  0.00     0.069 A 
HETATM    8 CL3  UNL     1      18.319   7.314  14.292  1.00  0.00    -0.081 Cl
ENDROOT
BRANCH   1   9
HETATM    9  O3  UNL     1      17.719   4.556  15.203  1.00  0.00    -0.259 OA
BRANCH   9  10
HETATM   10  C6  UNL     1      16.870   3.813  16.028  1.00  0.00     0.376 C 
HETATM   11  N1  UNL     1      15.615   4.176  16.488  1.00  0.00    -0.240 N 
HETATM   12  C2  UNL     1      14.750   3.380  17.383  1.00  0.00     0.119 C 
HETATM   13  C5  UNL     1      14.821   5.339  16.258  1.00  0.00     0.230 C 
HETATM   14  C1  UNL     1      13.473   3.066  16.677  1.00  0.00     0.057 C 
HETATM   15 CL1  UNL     1      15.578   2.006  18.067  1.00  0.00    -0.095 Cl
HETATM   16  C3  UNL     1      14.483   4.494  18.423  1.00  0.00     0.057 C 
HETATM   17  C4  UNL     1      14.018   5.611  17.504  1.00  0.00     0.107 C 
HETATM   18  O1  UNL     1      14.827   5.997  15.175  1.00  0.00    -0.273 OA
HETATM   19  O2  UNL     1      17.351   2.681  16.364  1.00  0.00    -0.237 OA
ENDBRANCH   9  10
ENDBRANCH   1   9
BRANCH   3  20
HETATM   20  C10 UNL     1      16.072   2.900  10.972  1.00  0.00     0.153 C 
BRANCH  20  21
HETATM   21  C11 UNL     1      17.013   1.797  10.757  1.00  0.00     0.177 C 
HETATM   22  O4  UNL     1      17.875   1.858   9.849  1.00  0.00    -0.648 OA
HETATM   23  O5  UNL     1      16.979   0.659  11.536  1.00  0.00    -0.648 OA
ENDBRANCH  20  21
ENDBRANCH   3  20
TORSDOF 4
ENDMDL
MODEL 2
REMARK VINA RESULT: -7.905977248      1.635      2.063
REMARK  4 active torsions:
REMARK  status: ('A' for Active; 'I' for Inactive)
REMARK       I    between atoms: N1_8  and  C6_9 
REMARK    1  A    between atoms: C6_9  and  O3_11 
REMARK    2  A    between atoms: O3_11  and  C7_12 
REMARK    3  A    between atoms: C9_14  and  C10_15 
REMARK    4  A    between atoms: C10_15  and  C11_16 
ROOT
HETATM    1  C7  UNL     1      17.368   3.273  13.313  1.00  0.00     0.103 A 
HETATM    2  C8  UNL     1      17.230   1.924  13.114  1.00  0.00     0.048 A 
HETATM    3  C9  UNL     1      17.048   1.411  11.816  1.00  0.00    -0.024 A 
HETATM    4  C12 UNL     1      17.009   2.257  10.744  1.00  0.00     0.042 A 
HETATM    5 CL2  UNL     1      16.825   1.619   9.139  1.00  0.00    -0.084 Cl
HETATM    6  C13 UNL     1      17.149   3.638  10.947  1.00  0.00     0.051 A 
HETATM    7  C14 UNL     1      17.322   4.097  12.223  1.00  0.00     0.069 A 
HETATM    8 CL3  UNL     1      17.499   5.833  12.428  1.00  0.00    -0.081 Cl
ENDROOT
BRANCH   1   9
HETATM    9  O3  UNL     1      17.551   3.781  14.570  1.00  0.00    -0.259 OA
BRANCH   9  10
HETATM   10  C6  UNL     1      16.765   3.385  15.655  1.00  0.00     0.376 C 
HETATM   11  N1  UNL     1      15.579   3.955  16.087  1.00  0.00    -0.240 N 
HETATM   12  C2  UNL     1      14.782   3.530  17.256  1.00  0.00     0.119 C 
HETATM   13  C5  UNL     1      14.808   5.041  15.575  1.00  0.00     0.230 C 
HETATM   14  C1  UNL     1      13.429   3.101  16.797  1.00  0.00     0.057 C 
HETATM   15 CL1  UNL     1      15.625   2.380  18.260  1.00  0.00    -0.095 Cl
HETATM   16  C3  UNL     1      14.665   4.925  17.917  1.00  0.00     0.057 C 
HETATM   17  C4  UNL     1      14.147   5.735  16.739  1.00  0.00     0.107 C 
HETATM   18  O1  UNL     1      14.726   5.333  14.345  1.00  0.00    -0.273 OA
HETATM   19  O2  UNL     1      17.238   2.382  16.284  1.00  0.00    -0.237 OA
ENDBRANCH   9  10
ENDBRANCH   1   9
BRANCH   3  20
HETATM   20  C10 UNL     1      16.872  -0.052  11.707  1.00  0.00     0.153 C 
BRANCH  20  21
HETATM   21  C11 UNL     1      18.123  -0.773  11.458  1.00  0.00     0.177 C 
HETATM   22  O4  UNL     1      19.214  -0.159  11.398  1.00  0.00    -0.648 OA
HETATM   23  O5  UNL     1      18.144  -2.140  11.280  1.00  0.00    -0.648 OA
ENDBRANCH  20  21
ENDBRANCH   3  20
TORSDOF 4
ENDMDL
MODEL 3
REMARK VINA RESULT: -7.611109062      1.833      2.703
REMARK  4 active torsions:
REMARK  status: ('A' for Active; 'I' for Inactive)
REMARK       I    between atoms: N1_8  and  C6_9 
REMARK    1  A    between atoms: C6_9  and  O3_11 
REMARK    2  A    between atoms: O3_11  and  C7_12 
REMARK    3  A    between atoms: C9_14  and  C10_15 
REMARK    4  A    between atoms: C10_15  and  C11_16 
ROOT
HETATM    1  C7  UNL     1      17.203   4.035  13.203  1.00  0.00     0.103 A 
HETATM    2  C8  UNL     1      17.187   2.664  13.193  1.00  0.00     0.048 A 
HETATM    3  C9  UNL     1      16.996   1.963  11.987  1.00  0.00    -0.024 A 
HETATM    4  C12 UNL     1      16.827   2.646  10.816  1.00  0.00     0.042 A 
HETATM    5 CL2  UNL     1      16.633   1.779   9.324  1.00  0.00    -0.084 Cl
HETATM    6  C13 UNL     1      16.844   4.049  10.826  1.00  0.00     0.051 A 
HETATM    7  C14 UNL     1      17.030   4.693  12.017  1.00  0.00     0.069 A 
HETATM    8 CL3  UNL     1      17.048   6.449  11.979  1.00  0.00    -0.081 Cl
ENDROOT
BRANCH   1   9
HETATM    9  O3  UNL     1      17.394   4.725  14.368  1.00  0.00    -0.259 OA
BRANCH   9  10
HETATM   10  C6  UNL     1      16.350   4.984  15.260  1.00  0.00     0.376 C 
HETATM   11  N1  UNL     1      15.800   4.113  16.186  1.00  0.00    -0.240 N 
HETATM   12  C2  UNL     1      14.676   4.407  17.100  1.00  0.00     0.119 C 
HETATM   13  C5  UNL     1      16.123   2.766  16.528  1.00  0.00     0.230 C 
HETATM   14  C1  UNL     1      15.145   4.276  18.510  1.00  0.00     0.057 C 
HETATM   15 CL1  UNL     1      13.878   5.910  16.718  1.00  0.00    -0.095 Cl
HETATM   16  C3  UNL     1      13.819   3.169  16.742  1.00  0.00     0.057 C 
HETATM   17  C4  UNL     1      14.849   2.067  16.930  1.00  0.00     0.107 C 
HETATM   18  O1  UNL     1      17.295   2.287  16.485  1.00  0.00    -0.273 OA
HETATM   19  O2  UNL     1      15.888   6.169  15.171  1.00  0.00    -0.237 OA
ENDBRANCH   9  10
ENDBRANCH   1   9
BRANCH   3  20
HETATM   20  C10 UNL     1      16.956   0.489  12.084  1.00  0.00     0.153 C 
BRANCH  20  21
HETATM   21  C11 UNL     1      18.167  -0.161  11.575  1.00  0.00     0.177 C 
HETATM   22  O4  UNL     1      19.182   0.513  11.286  1.00  0.00    -0.648 OA
HETATM   23  O5  UNL     1      18.229  -1.527  11.393  1.00  0.00    -0.648 OA
ENDBRANCH  20  21
ENDBRANCH   3  20
TORSDOF 4
ENDMDL
MODEL 4
REMARK VINA RESULT: -7.534531228      3.248      6.200
REMARK  4 active torsions:
REMARK  status: ('A' for Active; 'I' for Inactive)
REMARK       I    between atoms: N1_8  and  C6_9 
REMARK    1  A    between atoms: C6_9  and  O3_11 
REMARK    2  A    between atoms: O3_11  and  C7_12 
REMARK    3  A    between atoms: C9_14  and  C10_15 
REMARK    4  A    between atoms: C10_15  and  C11_16 
ROOT
HETATM    1  C7  UNL     1      17.188   5.932  12.733  1.00  0.00     0.103 A 
HETATM    2  C8  UNL     1      17.064   4.716  12.113  1.00  0.00     0.048 A 
HETATM    3  C9  UNL     1      16.922   3.540  12.873  1.00  0.00    -0.024 A 
HETATM    4  C12 UNL     1      16.905   3.603  14.237  1.00  0.00     0.042 A 
HETATM    5 CL2  UNL     1      16.688   2.156  15.173  1.00  0.00    -0.084 Cl
HETATM    6  C13 UNL     1      17.032   4.847  14.873  1.00  0.00     0.051 A 
HETATM    7  C14 UNL     1      17.170   5.966  14.100  1.00  0.00     0.069 A 
HETATM    8 CL3  UNL     1      17.321   7.502  14.940  1.00  0.00    -0.081 Cl
ENDROOT
BRANCH   1   9
HETATM    9  O3  UNL     1      17.321   7.081  12.004  1.00  0.00    -0.259 OA
BRANCH   9  10
HETATM   10  C6  UNL     1      16.251   7.647  11.305  1.00  0.00     0.376 C 
HETATM   11  N1  UNL     1      16.052   7.655   9.934  1.00  0.00    -0.240 N 
HETATM   12  C2  UNL     1      14.923   8.286   9.220  1.00  0.00     0.119 C 
HETATM   13  C5  UNL     1      16.811   7.095   8.863  1.00  0.00     0.230 C 
HETATM   14  C1  UNL     1      14.167   7.237   8.476  1.00  0.00     0.057 C 
HETATM   15 CL1  UNL     1      13.958   9.302  10.258  1.00  0.00    -0.095 Cl
HETATM   16  C3  UNL     1      15.771   9.098   8.213  1.00  0.00     0.057 C 
HETATM   17  C4  UNL     1      16.661   7.995   7.663  1.00  0.00     0.107 C 
HETATM   18  O1  UNL     1      17.480   6.023   8.955  1.00  0.00    -0.273 OA
HETATM   19  O2  UNL     1      15.390   8.206  12.061  1.00  0.00    -0.237 OA
ENDBRANCH   9  10
ENDBRANCH   1   9
BRANCH   3  20
HETATM   20  C10 UNL     1      16.833   2.275  12.114  1.00  0.00     0.153 C 
BRANCH  20  21
HETATM   21  C11 UNL     1      17.785   2.195  11.003  1.00  0.00     0.177 C 
HETATM   22  O4  UNL     1      17.382   2.073   9.823  1.00  0.00    -0.648 OA
HETATM   23  O5  UNL     1      19.147   2.246  11.215  1.00  0.00    -0.648 OA
ENDBRANCH  20  21
ENDBRANCH   3  20
TORSDOF 4
ENDMDL
MODEL 5
REMARK VINA RESULT: -7.267430315      2.414      3.966
REMARK  4 active torsions:
REMARK  status: ('A' for Active; 'I' for Inactive)
REMARK       I    between atoms: N1_8  and  C6_9 
REMARK    1  A    between atoms: C6_9  and  O3_11 
REMARK    2  A    between atoms: O3_11  and  C7_12 
REMARK    3  A    between atoms: C9_14  and  C10_15 
REMARK    4  A    between atoms: C10_15  and  C11_16 
ROOT
HETATM    1  C7  UNL     1      17.070   5.232  13.115  1.00  0.00     0.103 A 
HETATM    2  C8  UNL     1      17.038   6.508  12.617  1.00  0.00     0.048 A 
HETATM    3  C9  UNL     1      16.822   6.731  11.245  1.00  0.00    -0.024 A 
HETATM    4  C12 UNL     1      16.641   5.675  10.398  1.00  0.00     0.042 A 
HETATM    5 CL2  UNL     1      16.335   5.953   8.711  1.00  0.00    -0.084 Cl
HETATM    6  C13 UNL     1      16.675   4.368  10.907  1.00  0.00     0.051 A 
HETATM    7  C14 UNL     1      16.888   4.192  12.246  1.00  0.00     0.069 A 
HETATM    8 CL3  UNL     1      16.916   2.538  12.838  1.00  0.00    -0.081 Cl
ENDROOT
BRANCH   1   9
HETATM    9  O3  UNL     1      17.273   5.004  14.449  1.00  0.00    -0.259 OA
BRANCH   9  10
HETATM   10  C6  UNL     1      16.253   5.153  15.393  1.00  0.00     0.376 C 
HETATM   11  N1  UNL     1      15.774   4.196  16.272  1.00  0.00    -0.240 N 
HETATM   12  C2  UNL     1      14.675   4.375  17.243  1.00  0.00     0.119 C 
HETATM   13  C5  UNL     1      16.164   2.843  16.504  1.00  0.00     0.230 C 
HETATM   14  C1  UNL     1      15.202   4.165  18.623  1.00  0.00     0.057 C 
HETATM   15 CL1  UNL     1      13.803   5.866  17.000  1.00  0.00    -0.095 Cl
HETATM   16  C3  UNL     1      13.856   3.130  16.827  1.00  0.00     0.057 C 
HETATM   17  C4  UNL     1      14.936   2.064  16.899  1.00  0.00     0.107 C 
HETATM   18  O1  UNL     1      17.352   2.419  16.385  1.00  0.00    -0.273 OA
HETATM   19  O2  UNL     1      15.741   6.321  15.407  1.00  0.00    -0.237 OA
ENDBRANCH   9  10
ENDBRANCH   1   9
BRANCH   3  20
HETATM   20  C10 UNL     1      16.842   8.140  10.797  1.00  0.00     0.153 C 
BRANCH  20  21
HETATM   21  C11 UNL     1      15.506   8.716  10.628  1.00  0.00     0.177 C 
HETATM   22  O4  UNL     1      15.171   9.250   9.546  1.00  0.00    -0.648 OA
HETATM   23  O5  UNL     1      14.578   8.695  11.649  1.00  0.00    -0.648 OA
ENDBRANCH  20  21
ENDBRANCH   3  20
TORSDOF 4
ENDMDL
