MODEL 1
REMARK VINA RESULT: -6.428816830      0.000      0.000
REMARK  3 active torsions:
REMARK  status: ('A' for Active; 'I' for Inactive)
REMARK    1  A    between atoms: C8_12  and  N2_13 
REMARK       I    between atoms: N2_13  and  C9_15 
REMARK    2  A    between atoms: C9_15  and  C10_17 
REMARK    3  A    between atoms: C10_17  and  N3_18 
ROOT
HETATM    1  C1  UNL     1      14.971   7.174  14.903  1.00  0.00     0.052 C 
HETATM    2  C2  UNL     1      15.508   5.809  14.786  1.00  0.00    -0.010 A 
HETATM    3  C3  UNL     1      15.282   4.848  15.749  1.00  0.00     0.064 A 
HETATM    4 CL1  UNL     1      14.319   5.238  17.174  1.00  0.00    -0.082 Cl
HETATM    5  C4  UNL     1      15.783   3.555  15.662  1.00  0.00     0.090 A 
HETATM    6  C5  UNL     1      15.513   2.604  16.700  1.00  0.00     0.103 C 
HETATM    7  N1  UNL     1      15.278   1.834  17.522  1.00  0.00    -0.191 NA
HETATM    8  C6  UNL     1      16.533   3.249  14.554  1.00  0.00     0.080 A 
HETATM    9 CL2  UNL     1      17.176   1.632  14.407  1.00  0.00    -0.081 Cl
HETATM   10  C7  UNL     1      16.760   4.206  13.588  1.00  0.00     0.084 A 
HETATM   11 CL3  UNL     1      17.731   3.748  12.193  1.00  0.00    -0.080 Cl
HETATM   12  C8  UNL     1      16.273   5.487  13.658  1.00  0.00     0.066 A 
ENDROOT
BRANCH  12  13
HETATM   13  N2  UNL     1      16.509   6.459  12.653  1.00  0.00    -0.324 N 
HETATM   14  C9  UNL     1      17.710   7.200  12.648  1.00  0.00     0.250 C 
HETATM   15  O1  UNL     1      18.545   6.958  13.572  1.00  0.00    -0.271 OA
ATOM     16  H2  UNL     1      15.808   6.625  11.931  1.00  0.00     0.169 HD
BRANCH  14  17
HETATM   17  C10 UNL     1      18.084   8.224  11.679  1.00  0.00     0.375 C 
BRANCH  17  18
HETATM   18  N3  UNL     1      19.147   7.740  10.826  1.00  0.00     0.100 N 
HETATM   19  C11 UNL     1      18.674   6.667   9.956  1.00  0.00     0.303 C 
HETATM   20  C12 UNL     1      17.605   7.067   9.007  1.00  0.00     0.302 C 
HETATM   21  N4  UNL     1      17.691   8.418   8.558  1.00  0.00     0.087 N 
HETATM   22  C13 UNL     1      17.333   8.449   7.153  1.00  0.00     0.310 C 
HETATM   23  C14 UNL     1      18.941   9.056   8.731  1.00  0.00     0.302 C 
HETATM   24  C15 UNL     1      19.676   8.826   9.997  1.00  0.00     0.303 C 
ENDBRANCH  17  18
ENDBRANCH  14  17
ENDBRANCH  12  13
TORSDOF 3
ENDMDL
MODEL 2
REMARK VINA RESULT: -6.375160797      3.481      7.848
REMARK  3 active torsions:
REMARK  status: ('A' for Active; 'I' for Inactive)
REMARK    1  A    between atoms: C8_12  and  N2_13 
REMARK       I    between atoms: N2_13  and  C9_15 
REMARK    2  A    between atoms: C9_15  and  C10_17 
REMARK    3  A    between atoms: C10_17  and  N3_18 
ROOT
HETATM    1  C1  UNL     1      19.301   4.917  11.367  1.00  0.00     0.052 C 
HETATM    2  C2  UNL     1      20.065   6.150  11.618  1.00  0.00    -0.010 A 
HETATM    3  C3  UNL     1      21.250   6.422  10.968  1.00  0.00     0.064 A 
HETATM    4 CL1  UNL     1      21.892   5.275   9.791  1.00  0.00    -0.082 Cl
HETATM    5  C4  UNL     1      21.991   7.576  11.191  1.00  0.00     0.090 A 
HETATM    6  C5  UNL     1      23.218   7.796  10.483  1.00  0.00     0.103 C 
HETATM    7  N1  UNL     1      24.190   7.984   9.899  1.00  0.00    -0.191 NA
HETATM    8  C6  UNL     1      21.493   8.469  12.107  1.00  0.00     0.080 A 
HETATM    9 CL2  UNL     1      22.393   9.934  12.411  1.00  0.00    -0.081 Cl
HETATM   10  C7  UNL     1      20.308   8.203  12.758  1.00  0.00     0.084 A 
HETATM   11 CL3  UNL     1      19.726   9.389  13.920  1.00  0.00    -0.080 Cl
HETATM   12  C8  UNL     1      19.564   7.068  12.549  1.00  0.00     0.066 A 
ENDROOT
BRANCH  12  13
HETATM   13  N2  UNL     1      18.343   6.810  13.221  1.00  0.00    -0.324 N 
HETATM   14  C9  UNL     1      18.346   6.201  14.494  1.00  0.00     0.250 C 
HETATM   15  O1  UNL     1      19.474   5.898  14.989  1.00  0.00    -0.271 OA
ATOM     16  H2  UNL     1      17.458   7.066  12.783  1.00  0.00     0.169 HD
BRANCH  14  17
HETATM   17  C10 UNL     1      17.171   5.880  15.296  1.00  0.00     0.375 C 
BRANCH  17  18
HETATM   18  N3  UNL     1      16.238   5.093  14.521  1.00  0.00     0.100 N 
HETATM   19  C11 UNL     1      16.642   3.690  14.480  1.00  0.00     0.303 C 
HETATM   20  C12 UNL     1      16.668   3.017  15.804  1.00  0.00     0.302 C 
HETATM   21  N4  UNL     1      15.692   3.493  16.727  1.00  0.00     0.087 N 
HETATM   22  C13 UNL     1      15.178   2.356  17.465  1.00  0.00     0.310 C 
HETATM   23  C14 UNL     1      14.607   4.214  16.175  1.00  0.00     0.302 C 
HETATM   24  C15 UNL     1      14.891   5.184  15.090  1.00  0.00     0.303 C 
ENDBRANCH  17  18
ENDBRANCH  14  17
ENDBRANCH  12  13
TORSDOF 3
ENDMDL
MODEL 3
REMARK VINA RESULT: -6.346714329      3.181      7.573
REMARK  3 active torsions:
REMARK  status: ('A' for Active; 'I' for Inactive)
REMARK    1  A    between atoms: C8_12  and  N2_13 
REMARK       I    between atoms: N2_13  and  C9_15 
REMARK    2  A    between atoms: C9_15  and  C10_17 
REMARK    3  A    between atoms: C10_17  and  N3_18 
ROOT
HETATM    1  C1  UNL     1      19.683   9.344  13.708  1.00  0.00     0.052 C 
HETATM    2  C2  UNL     1      20.294   8.364  12.795  1.00  0.00    -0.010 A 
HETATM    3  C3  UNL     1      21.487   8.609  12.149  1.00  0.00     0.064 A 
HETATM    4 CL1  UNL     1      22.333  10.135  12.412  1.00  0.00    -0.082 Cl
HETATM    5  C4  UNL     1      22.080   7.703  11.279  1.00  0.00     0.090 A 
HETATM    6  C5  UNL     1      23.322   8.021  10.638  1.00  0.00     0.103 C 
HETATM    7  N1  UNL     1      24.329   8.267  10.141  1.00  0.00    -0.191 NA
HETATM    8  C6  UNL     1      21.423   6.515  11.073  1.00  0.00     0.080 A 
HETATM    9 CL2  UNL     1      22.138   5.348   9.990  1.00  0.00    -0.081 Cl
HETATM   10  C7  UNL     1      20.230   6.265  11.717  1.00  0.00     0.084 A 
HETATM   11 CL3  UNL     1      19.439   4.723  11.408  1.00  0.00    -0.080 Cl
HETATM   12  C8  UNL     1      19.632   7.149  12.579  1.00  0.00     0.066 A 
ENDROOT
BRANCH  12  13
HETATM   13  N2  UNL     1      18.408   6.875  13.240  1.00  0.00    -0.324 N 
HETATM   14  C9  UNL     1      18.404   6.209  14.484  1.00  0.00     0.250 C 
HETATM   15  O1  UNL     1      19.529   5.871  14.964  1.00  0.00    -0.271 OA
ATOM     16  H2  UNL     1      17.525   7.161  12.816  1.00  0.00     0.169 HD
BRANCH  14  17
HETATM   17  C10 UNL     1      17.226   5.866  15.272  1.00  0.00     0.375 C 
BRANCH  17  18
HETATM   18  N3  UNL     1      16.310   5.074  14.481  1.00  0.00     0.100 N 
HETATM   19  C11 UNL     1      16.709   3.669  14.465  1.00  0.00     0.303 C 
HETATM   20  C12 UNL     1      16.699   3.010  15.796  1.00  0.00     0.302 C 
HETATM   21  N4  UNL     1      15.701   3.500  16.689  1.00  0.00     0.087 N 
HETATM   22  C13 UNL     1      15.163   2.372  17.425  1.00  0.00     0.310 C 
HETATM   23  C14 UNL     1      14.634   4.218  16.101  1.00  0.00     0.302 C 
HETATM   24  C15 UNL     1      14.949   5.176  15.014  1.00  0.00     0.303 C 
ENDBRANCH  17  18
ENDBRANCH  14  17
ENDBRANCH  12  13
TORSDOF 3
ENDMDL
MODEL 4
REMARK VINA RESULT: -6.341490161      0.911      1.798
REMARK  3 active torsions:
REMARK  status: ('A' for Active; 'I' for Inactive)
REMARK    1  A    between atoms: C8_12  and  N2_13 
REMARK       I    between atoms: N2_13  and  C9_15 
REMARK    2  A    between atoms: C9_15  and  C10_17 
REMARK    3  A    between atoms: C10_17  and  N3_18 
ROOT
HETATM    1  C1  UNL     1      15.184   7.175  14.852  1.00  0.00     0.052 C 
HETATM    2  C2  UNL     1      15.663   5.787  14.738  1.00  0.00    -0.010 A 
HETATM    3  C3  UNL     1      15.398   4.840  15.704  1.00  0.00     0.064 A 
HETATM    4 CL1  UNL     1      14.454   5.275  17.129  1.00  0.00    -0.082 Cl
HETATM    5  C4  UNL     1      15.843   3.527  15.621  1.00  0.00     0.090 A 
HETATM    6  C5  UNL     1      15.535   2.591  16.662  1.00  0.00     0.103 C 
HETATM    7  N1  UNL     1      15.269   1.834  17.486  1.00  0.00    -0.191 NA
HETATM    8  C6  UNL     1      16.579   3.186  14.512  1.00  0.00     0.080 A 
HETATM    9 CL2  UNL     1      17.152   1.543  14.370  1.00  0.00    -0.081 Cl
HETATM   10  C7  UNL     1      16.845   4.130  13.544  1.00  0.00     0.084 A 
HETATM   11 CL3  UNL     1      17.793   3.627  12.149  1.00  0.00    -0.080 Cl
HETATM   12  C8  UNL     1      16.412   5.430  13.611  1.00  0.00     0.066 A 
ENDROOT
BRANCH  12  13
HETATM   13  N2  UNL     1      16.688   6.389  12.602  1.00  0.00    -0.324 N 
HETATM   14  C9  UNL     1      17.927   7.063  12.582  1.00  0.00     0.250 C 
HETATM   15  O1  UNL     1      18.758   6.777  13.496  1.00  0.00    -0.271 OA
ATOM     16  H2  UNL     1      15.988   6.592  11.889  1.00  0.00     0.169 HD
BRANCH  14  17
HETATM   17  C10 UNL     1      18.343   8.066  11.609  1.00  0.00     0.375 C 
BRANCH  17  18
HETATM   18  N3  UNL     1      18.302   7.513  10.273  1.00  0.00     0.100 N 
HETATM   19  C11 UNL     1      18.731   8.497   9.284  1.00  0.00     0.303 C 
HETATM   20  C12 UNL     1      20.134   8.958   9.440  1.00  0.00     0.302 C 
HETATM   21  N4  UNL     1      21.025   7.971   9.955  1.00  0.00     0.087 N 
HETATM   22  C13 UNL     1      22.291   8.101   9.261  1.00  0.00     0.310 C 
HETATM   23  C14 UNL     1      20.587   6.629   9.871  1.00  0.00     0.302 C 
HETATM   24  C15 UNL     1      19.167   6.334  10.177  1.00  0.00     0.303 C 
ENDBRANCH  17  18
ENDBRANCH  14  17
ENDBRANCH  12  13
TORSDOF 3
ENDMDL
MODEL 5
REMARK VINA RESULT: -6.337763578      4.236      7.355
REMARK  3 active torsions:
REMARK  status: ('A' for Active; 'I' for Inactive)
REMARK    1  A    between atoms: C8_12  and  N2_13 
REMARK       I    between atoms: N2_13  and  C9_15 
REMARK    2  A    between atoms: C9_15  and  C10_17 
REMARK    3  A    between atoms: C10_17  and  N3_18 
ROOT
HETATM    1  C1  UNL     1      14.176   7.333   8.638  1.00  0.00     0.052 C 
HETATM    2  C2  UNL     1      15.074   8.339   9.229  1.00  0.00    -0.010 A 
HETATM    3  C3  UNL     1      14.701   9.658   9.373  1.00  0.00     0.064 A 
HETATM    4 CL1  UNL     1      13.102  10.185   8.845  1.00  0.00    -0.082 Cl
HETATM    5  C4  UNL     1      15.533  10.626   9.922  1.00  0.00     0.090 A 
HETATM    6  C5  UNL     1      15.084  11.982  10.042  1.00  0.00     0.103 C 
HETATM    7  N1  UNL     1      14.716  13.066  10.157  1.00  0.00    -0.191 NA
HETATM    8  C6  UNL     1      16.778  10.218  10.334  1.00  0.00     0.080 A 
HETATM    9 CL2  UNL     1      17.850  11.405  11.034  1.00  0.00    -0.081 Cl
HETATM   10  C7  UNL     1      17.154   8.900  10.193  1.00  0.00     0.084 A 
HETATM   11 CL3  UNL     1      18.764   8.445  10.739  1.00  0.00    -0.080 Cl
HETATM   12  C8  UNL     1      16.345   7.932   9.652  1.00  0.00     0.066 A 
ENDROOT
BRANCH  12  13
HETATM   13  N2  UNL     1      16.744   6.578   9.520  1.00  0.00    -0.324 N 
HETATM   14  C9  UNL     1      16.653   5.699  10.621  1.00  0.00     0.250 C 
HETATM   15  O1  UNL     1      16.211   6.177  11.709  1.00  0.00    -0.271 OA
ATOM     16  H2  UNL     1      17.097   6.237   8.626  1.00  0.00     0.169 HD
BRANCH  14  17
HETATM   17  C10 UNL     1      17.023   4.289  10.627  1.00  0.00     0.375 C 
BRANCH  17  18
HETATM   18  N3  UNL     1      17.886   4.005  11.752  1.00  0.00     0.100 N 
HETATM   19  C11 UNL     1      17.257   3.059  12.670  1.00  0.00     0.303 C 
HETATM   20  C12 UNL     1      16.977   1.724  12.085  1.00  0.00     0.302 C 
HETATM   21  N4  UNL     1      17.917   1.304  11.099  1.00  0.00     0.087 N 
HETATM   22  C13 UNL     1      18.149  -0.117  11.275  1.00  0.00     0.310 C 
HETATM   23  C14 UNL     1      19.160   1.978  11.092  1.00  0.00     0.302 C 
HETATM   24  C15 UNL     1      19.161   3.446  11.295  1.00  0.00     0.303 C 
ENDBRANCH  17  18
ENDBRANCH  14  17
ENDBRANCH  12  13
TORSDOF 3
ENDMDL
