MODEL 1
REMARK VINA RESULT: -4.824835714      0.000      0.000
REMARK  8 active torsions:
REMARK  status: ('A' for Active; 'I' for Inactive)
REMARK    1  A    between atoms: C3_3  and  C4_4 
REMARK    2  A    between atoms: C4_4  and  N2_8 
REMARK    3  A    between atoms: C15_26  and  C16_27 
REMARK    4  A    between atoms: C18_34  and  C19_35 
REMARK    5  A    between atoms: C19_35  and  C20_36 
REMARK    6  A    between atoms: C20_36  and  C21_37 
REMARK    7  A    between atoms: C21_37  and  N6_38 
REMARK    8  A    between atoms: C22_44  and  O7_45 
ROOT
HETATM    1  C1  UNL     1      26.097  44.653  32.633  1.00  0.00     0.097 C 
HETATM    2  C2  UNL     1      24.871  44.661  32.699  1.00  0.00    -0.180 C 
HETATM    3  C3  UNL     1      23.408  44.701  32.775  1.00  0.00     0.155 C 
ENDROOT
BRANCH   3   4
HETATM    4  C4  UNL     1      22.902  43.373  33.106  1.00  0.00     0.094 C 
HETATM    5  N1  UNL     1      21.722  43.005  32.759  1.00  0.00    -0.388 N 
ATOM      6  H12 UNL     1      21.182  43.686  32.226  1.00  0.00     0.157 HD
ATOM      7  H11 UNL     1      21.368  42.076  32.991  1.00  0.00     0.157 HD
BRANCH   4   8
HETATM    8  N2  UNL     1      23.665  42.409  33.861  1.00  0.00    -0.272 N 
HETATM    9  C5  UNL     1      24.608  41.599  33.196  1.00  0.00     0.175 C 
HETATM   10  C6  UNL     1      24.355  41.183  31.824  1.00  0.00     0.257 C 
HETATM   11  O1  UNL     1      25.166  41.624  30.956  1.00  0.00    -0.267 OA
HETATM   12  N3  UNL     1      23.335  40.354  31.314  1.00  0.00    -0.354 N 
HETATM   13  C7  UNL     1      22.303  39.658  32.055  1.00  0.00     0.149 C 
ATOM     14  H3  UNL     1      23.322  40.229  30.301  1.00  0.00     0.162 HD
HETATM   15  C8  UNL     1      22.609  38.177  31.982  1.00  0.00     0.188 C 
HETATM   16  O2  UNL     1      22.298  37.738  30.699  1.00  0.00    -0.380 OA
HETATM   17  C9  UNL     1      20.923  37.669  30.571  1.00  0.00     0.270 C 
HETATM   18  C10 UNL     1      20.577  36.335  30.004  1.00  0.00     0.241 C 
HETATM   19  O3  UNL     1      20.817  36.169  28.763  1.00  0.00    -0.271 OA
HETATM   20  N4  UNL     1      20.021  35.308  30.775  1.00  0.00    -0.359 N 
HETATM   21  C11 UNL     1      20.400  34.951  32.121  1.00  0.00     0.122 C 
ATOM     22  H4  UNL     1      19.277  34.759  30.345  1.00  0.00     0.162 HD
HETATM   23  C12 UNL     1      19.464  35.478  33.163  1.00  0.00     0.020 C 
HETATM   24  C13 UNL     1      20.137  35.704  34.490  1.00  0.00     0.004 C 
HETATM   25  C14 UNL     1      19.908  37.094  34.989  1.00  0.00     0.036 C 
HETATM   26  C15 UNL     1      20.926  37.562  35.997  1.00  0.00     0.185 C 
HETATM   27  N5  UNL     1      20.784  38.990  36.180  1.00  0.00    -0.345 N 
HETATM   28  C17 UNL     1      21.765  39.883  36.642  1.00  0.00     0.241 C 
ATOM     29  H5  UNL     1      19.874  39.390  35.950  1.00  0.00     0.163 HD
HETATM   30  O6  UNL     1      21.518  40.687  37.577  1.00  0.00    -0.271 OA
HETATM   31  C18 UNL     1      23.179  39.966  36.080  1.00  0.00     0.177 C 
HETATM   32  N7  UNL     1      23.609  41.361  36.175  1.00  0.00    -0.343 N 
HETATM   33  C22 UNL     1      23.376  42.386  35.249  1.00  0.00     0.225 C 
ATOM     34  H7  UNL     1      24.137  41.616  37.010  1.00  0.00     0.164 HD
BRANCH  26  35
HETATM   35  C16 UNL     1      20.639  36.842  37.279  1.00  0.00     0.196 C 
HETATM   36  O4  UNL     1      19.739  37.322  38.010  1.00  0.00    -0.646 OA
HETATM   37  O5  UNL     1      21.323  35.714  37.638  1.00  0.00    -0.646 OA
ENDBRANCH  26  35
BRANCH  31  38
HETATM   38  C19 UNL     1      23.999  39.122  37.009  1.00  0.00     0.036 C 
BRANCH  38  39
HETATM   39  C20 UNL     1      25.278  38.572  36.526  1.00  0.00     0.030 C 
BRANCH  39  40
HETATM   40  C21 UNL     1      25.937  39.215  35.364  1.00  0.00     0.230 C 
BRANCH  40  41
HETATM   41  N6  UNL     1      25.798  38.375  34.150  1.00  0.00    -0.079 N 
ATOM     42  H63 UNL     1      26.693  37.981  33.859  1.00  0.00     0.274 HD
ATOM     43  H62 UNL     1      25.303  37.506  34.347  1.00  0.00     0.274 HD
ATOM     44  H61 UNL     1      25.354  38.900  33.396  1.00  0.00     0.274 HD
ENDBRANCH  40  41
ENDBRANCH  39  40
ENDBRANCH  38  39
ENDBRANCH  31  38
BRANCH  33  45
HETATM   45  O7  UNL     1      22.818  43.446  35.780  1.00  0.00    -0.332 OA
ATOM     46  H7  UNL     1      22.052  43.811  35.351  1.00  0.00     0.221 HD
ENDBRANCH  33  45
ENDBRANCH   4   8
ENDBRANCH   3   4
TORSDOF 8
ENDMDL
MODEL 2
REMARK VINA RESULT: -4.166661322      2.269      7.867
REMARK  8 active torsions:
REMARK  status: ('A' for Active; 'I' for Inactive)
REMARK    1  A    between atoms: C3_3  and  C4_4 
REMARK    2  A    between atoms: C4_4  and  N2_8 
REMARK    3  A    between atoms: C15_26  and  C16_27 
REMARK    4  A    between atoms: C18_34  and  C19_35 
REMARK    5  A    between atoms: C19_35  and  C20_36 
REMARK    6  A    between atoms: C20_36  and  C21_37 
REMARK    7  A    between atoms: C21_37  and  N6_38 
REMARK    8  A    between atoms: C22_44  and  O7_45 
ROOT
HETATM    1  C1  UNL     1      17.855  33.602  33.225  1.00  0.00     0.097 C 
HETATM    2  C2  UNL     1      18.921  33.741  33.818  1.00  0.00    -0.180 C 
HETATM    3  C3  UNL     1      20.188  33.881  34.541  1.00  0.00     0.155 C 
ENDROOT
BRANCH   3   4
HETATM    4  C4  UNL     1      20.798  35.165  34.209  1.00  0.00     0.094 C 
HETATM    5  N1  UNL     1      20.187  36.021  33.473  1.00  0.00    -0.388 N 
ATOM      6  H12 UNL     1      19.254  35.754  33.161  1.00  0.00     0.157 HD
ATOM      7  H11 UNL     1      20.613  36.919  33.241  1.00  0.00     0.157 HD
BRANCH   4   8
HETATM    8  N2  UNL     1      22.118  35.544  34.650  1.00  0.00    -0.272 N 
HETATM    9  C5  UNL     1      22.340  35.822  36.014  1.00  0.00     0.175 C 
HETATM   10  C6  UNL     1      21.276  36.427  36.804  1.00  0.00     0.257 C 
HETATM   11  O1  UNL     1      20.817  35.715  37.746  1.00  0.00    -0.267 OA
HETATM   12  N3  UNL     1      20.679  37.698  36.677  1.00  0.00    -0.354 N 
HETATM   13  C7  UNL     1      21.024  38.751  35.744  1.00  0.00     0.149 C 
ATOM     14  H3  UNL     1      19.912  37.900  37.318  1.00  0.00     0.162 HD
HETATM   15  C8  UNL     1      21.653  39.876  36.538  1.00  0.00     0.188 C 
HETATM   16  O2  UNL     1      20.641  40.522  37.241  1.00  0.00    -0.380 OA
HETATM   17  C9  UNL     1      19.899  41.285  36.357  1.00  0.00     0.270 C 
HETATM   18  C10 UNL     1      19.766  42.655  36.929  1.00  0.00     0.241 C 
HETATM   19  O3  UNL     1      18.954  42.785  37.903  1.00  0.00    -0.271 OA
HETATM   20  N4  UNL     1      20.485  43.751  36.438  1.00  0.00    -0.359 N 
HETATM   21  C11 UNL     1      21.870  43.749  36.031  1.00  0.00     0.122 C 
ATOM     22  H4  UNL     1      19.983  44.635  36.360  1.00  0.00     0.162 HD
HETATM   23  C12 UNL     1      22.055  43.678  34.548  1.00  0.00     0.020 C 
HETATM   24  C13 UNL     1      23.355  43.028  34.154  1.00  0.00     0.004 C 
HETATM   25  C14 UNL     1      23.135  41.905  33.193  1.00  0.00     0.036 C 
HETATM   26  C15 UNL     1      24.260  40.902  33.150  1.00  0.00     0.185 C 
HETATM   27  N5  UNL     1      23.817  39.731  32.426  1.00  0.00    -0.345 N 
HETATM   28  C17 UNL     1      24.334  38.429  32.531  1.00  0.00     0.241 C 
ATOM     29  H5  UNL     1      23.048  39.865  31.768  1.00  0.00     0.163 HD
HETATM   30  O6  UNL     1      24.666  37.781  31.506  1.00  0.00    -0.271 OA
HETATM   31  C18 UNL     1      24.539  37.694  33.850  1.00  0.00     0.177 C 
HETATM   32  N7  UNL     1      24.315  36.271  33.600  1.00  0.00    -0.343 N 
HETATM   33  C22 UNL     1      23.092  35.588  33.620  1.00  0.00     0.225 C 
ATOM     34  H7  UNL     1      25.142  35.713  33.387  1.00  0.00     0.164 HD
BRANCH  26  35
HETATM   35  C16 UNL     1      25.404  41.554  32.435  1.00  0.00     0.196 C 
HETATM   36  O4  UNL     1      26.465  41.710  33.086  1.00  0.00    -0.646 OA
HETATM   37  O5  UNL     1      25.299  41.962  31.134  1.00  0.00    -0.646 OA
ENDBRANCH  26  35
BRANCH  31  38
HETATM   38  C19 UNL     1      25.983  37.926  34.184  1.00  0.00     0.036 C 
BRANCH  38  39
HETATM   39  C20 UNL     1      26.318  38.829  35.300  1.00  0.00     0.030 C 
BRANCH  39  40
HETATM   40  C21 UNL     1      25.217  39.381  36.124  1.00  0.00     0.230 C 
BRANCH  40  41
HETATM   41  N6  UNL     1      25.220  40.863  36.081  1.00  0.00    -0.079 N 
ATOM     42  H63 UNL     1      24.342  41.232  35.714  1.00  0.00     0.274 HD
ATOM     43  H62 UNL     1      25.178  41.268  37.017  1.00  0.00     0.274 HD
ATOM     44  H61 UNL     1      26.023  41.208  35.557  1.00  0.00     0.274 HD
ENDBRANCH  40  41
ENDBRANCH  39  40
ENDBRANCH  38  39
ENDBRANCH  31  38
BRANCH  33  45
HETATM   45  O7  UNL     1      22.860  34.912  32.522  1.00  0.00    -0.332 OA
ATOM     46  H7  UNL     1      23.250  35.223  31.714  1.00  0.00     0.221 HD
ENDBRANCH  33  45
ENDBRANCH   4   8
ENDBRANCH   3   4
TORSDOF 8
ENDMDL
MODEL 3
REMARK VINA RESULT: -4.102013145      1.035      1.651
REMARK  8 active torsions:
REMARK  status: ('A' for Active; 'I' for Inactive)
REMARK    1  A    between atoms: C3_3  and  C4_4 
REMARK    2  A    between atoms: C4_4  and  N2_8 
REMARK    3  A    between atoms: C15_26  and  C16_27 
REMARK    4  A    between atoms: C18_34  and  C19_35 
REMARK    5  A    between atoms: C19_35  and  C20_36 
REMARK    6  A    between atoms: C20_36  and  C21_37 
REMARK    7  A    between atoms: C21_37  and  N6_38 
REMARK    8  A    between atoms: C22_44  and  O7_45 
ROOT
HETATM    1  C1  UNL     1      20.257  41.724  35.078  1.00  0.00     0.097 C 
HETATM    2  C2  UNL     1      20.821  42.275  34.139  1.00  0.00    -0.180 C 
HETATM    3  C3  UNL     1      21.471  42.930  32.999  1.00  0.00     0.155 C 
ENDROOT
BRANCH   3   4
HETATM    4  C4  UNL     1      22.850  43.255  33.347  1.00  0.00     0.094 C 
HETATM    5  N1  UNL     1      23.326  44.432  33.152  1.00  0.00    -0.388 N 
ATOM      6  H12 UNL     1      22.676  45.115  32.765  1.00  0.00     0.157 HD
ATOM      7  H11 UNL     1      24.291  44.658  33.396  1.00  0.00     0.157 HD
BRANCH   4   8
HETATM    8  N2  UNL     1      23.770  42.288  33.895  1.00  0.00    -0.272 N 
HETATM    9  C5  UNL     1      24.637  41.588  33.031  1.00  0.00     0.175 C 
HETATM   10  C6  UNL     1      24.192  41.257  31.685  1.00  0.00     0.257 C 
HETATM   11  O1  UNL     1      24.833  41.808  30.742  1.00  0.00    -0.267 OA
HETATM   12  N3  UNL     1      23.147  40.404  31.272  1.00  0.00    -0.354 N 
HETATM   13  C7  UNL     1      22.281  39.595  32.104  1.00  0.00     0.149 C 
ATOM     14  H3  UNL     1      22.982  40.352  30.267  1.00  0.00     0.162 HD
HETATM   15  C8  UNL     1      22.646  38.144  31.866  1.00  0.00     0.188 C 
HETATM   16  O2  UNL     1      22.160  37.779  30.615  1.00  0.00    -0.380 OA
HETATM   17  C9  UNL     1      20.787  37.635  30.694  1.00  0.00     0.270 C 
HETATM   18  C10 UNL     1      20.424  36.326  30.081  1.00  0.00     0.241 C 
HETATM   19  O3  UNL     1      20.473  36.265  28.808  1.00  0.00    -0.271 OA
HETATM   20  N4  UNL     1      20.049  35.213  30.842  1.00  0.00    -0.359 N 
HETATM   21  C11 UNL     1      20.652  34.786  32.081  1.00  0.00     0.122 C 
ATOM     22  H4  UNL     1      19.274  34.651  30.488  1.00  0.00     0.162 HD
HETATM   23  C12 UNL     1      19.866  35.177  33.294  1.00  0.00     0.020 C 
HETATM   24  C13 UNL     1      20.728  35.349  34.516  1.00  0.00     0.004 C 
HETATM   25  C14 UNL     1      20.510  36.683  35.154  1.00  0.00     0.036 C 
HETATM   26  C15 UNL     1      21.649  37.140  36.029  1.00  0.00     0.185 C 
HETATM   27  N5  UNL     1      21.466  38.539  36.346  1.00  0.00    -0.345 N 
HETATM   28  C17 UNL     1      22.461  39.456  36.723  1.00  0.00     0.241 C 
ATOM     29  H5  UNL     1      20.512  38.898  36.291  1.00  0.00     0.163 HD
HETATM   30  O6  UNL     1      22.324  40.174  37.746  1.00  0.00    -0.271 OA
HETATM   31  C18 UNL     1      23.763  39.667  35.959  1.00  0.00     0.177 C 
HETATM   32  N7  UNL     1      24.131  41.076  36.099  1.00  0.00    -0.343 N 
HETATM   33  C22 UNL     1      23.705  42.148  35.305  1.00  0.00     0.225 C 
ATOM     34  H7  UNL     1      24.771  41.303  36.861  1.00  0.00     0.164 HD
BRANCH  26  35
HETATM   35  C16 UNL     1      21.604  36.313  37.277  1.00  0.00     0.196 C 
HETATM   36  O4  UNL     1      20.724  36.610  38.123  1.00  0.00    -0.646 OA
HETATM   37  O5  UNL     1      22.478  35.283  37.490  1.00  0.00    -0.646 OA
ENDBRANCH  26  35
BRANCH  31  38
HETATM   38  C19 UNL     1      24.761  38.811  36.681  1.00  0.00     0.036 C 
BRANCH  38  39
HETATM   39  C20 UNL     1      26.010  38.442  35.992  1.00  0.00     0.030 C 
BRANCH  39  40
HETATM   40  C21 UNL     1      26.208  38.884  34.590  1.00  0.00     0.230 C 
BRANCH  40  41
HETATM   41  N6  UNL     1      25.859  37.799  33.642  1.00  0.00    -0.079 N 
ATOM     42  H63 UNL     1      26.669  37.495  33.101  1.00  0.00     0.274 HD
ATOM     43  H62 UNL     1      25.659  36.924  34.127  1.00  0.00     0.274 HD
ATOM     44  H61 UNL     1      25.087  38.080  33.038  1.00  0.00     0.274 HD
ENDBRANCH  40  41
ENDBRANCH  39  40
ENDBRANCH  38  39
ENDBRANCH  31  38
BRANCH  33  45
HETATM   45  O7  UNL     1      23.185  43.130  35.999  1.00  0.00    -0.332 OA
ATOM     46  H7  UNL     1      22.408  42.950  36.517  1.00  0.00     0.221 HD
ENDBRANCH  33  45
ENDBRANCH   4   8
ENDBRANCH   3   4
TORSDOF 8
ENDMDL
MODEL 4
REMARK VINA RESULT: -2.882095473      2.340      5.610
REMARK  8 active torsions:
REMARK  status: ('A' for Active; 'I' for Inactive)
REMARK    1  A    between atoms: C3_3  and  C4_4 
REMARK    2  A    between atoms: C4_4  and  N2_8 
REMARK    3  A    between atoms: C15_26  and  C16_27 
REMARK    4  A    between atoms: C18_34  and  C19_35 
REMARK    5  A    between atoms: C19_35  and  C20_36 
REMARK    6  A    between atoms: C20_36  and  C21_37 
REMARK    7  A    between atoms: C21_37  and  N6_38 
REMARK    8  A    between atoms: C22_44  and  O7_45 
ROOT
HETATM    1  C1  UNL     1      28.475  44.819  31.163  1.00  0.00     0.097 C 
HETATM    2  C2  UNL     1      27.484  44.753  31.885  1.00  0.00    -0.180 C 
HETATM    3  C3  UNL     1      26.302  44.703  32.750  1.00  0.00     0.155 C 
ENDROOT
BRANCH   3   4
HETATM    4  C4  UNL     1      25.951  43.312  33.013  1.00  0.00     0.094 C 
HETATM    5  N1  UNL     1      26.520  42.648  33.954  1.00  0.00    -0.388 N 
ATOM      6  H12 UNL     1      27.207  43.160  34.506  1.00  0.00     0.157 HD
ATOM      7  H11 UNL     1      26.274  41.675  34.137  1.00  0.00     0.157 HD
BRANCH   4   8
HETATM    8  N2  UNL     1      24.979  42.586  32.231  1.00  0.00    -0.272 N 
HETATM    9  C5  UNL     1      23.680  43.113  32.078  1.00  0.00     0.175 C 
HETATM   10  C6  UNL     1      23.085  43.879  33.164  1.00  0.00     0.257 C 
HETATM   11  O1  UNL     1      22.851  45.098  32.913  1.00  0.00    -0.267 OA
HETATM   12  N3  UNL     1      22.726  43.461  34.462  1.00  0.00    -0.354 N 
HETATM   13  C7  UNL     1      22.815  42.128  35.021  1.00  0.00     0.149 C 
ATOM     14  H3  UNL     1      22.360  44.185  35.081  1.00  0.00     0.162 HD
HETATM   15  C8  UNL     1      21.402  41.613  35.199  1.00  0.00     0.188 C 
HETATM   16  O2  UNL     1      20.838  42.275  36.285  1.00  0.00    -0.380 OA
HETATM   17  C9  UNL     1      21.387  41.771  37.450  1.00  0.00     0.270 C 
HETATM   18  C10 UNL     1      20.272  41.440  38.381  1.00  0.00     0.241 C 
HETATM   19  O3  UNL     1      19.693  42.427  38.944  1.00  0.00    -0.271 OA
HETATM   20  N4  UNL     1      19.866  40.125  38.636  1.00  0.00    -0.359 N 
HETATM   21  C11 UNL     1      19.744  39.067  37.663  1.00  0.00     0.122 C 
ATOM     22  H4  UNL     1      19.636  39.892  39.602  1.00  0.00     0.162 HD
HETATM   23  C12 UNL     1      20.900  38.116  37.667  1.00  0.00     0.020 C 
HETATM   24  C13 UNL     1      21.126  37.469  36.326  1.00  0.00     0.004 C 
HETATM   25  C14 UNL     1      22.539  37.642  35.869  1.00  0.00     0.036 C 
HETATM   26  C15 UNL     1      22.726  37.502  34.380  1.00  0.00     0.185 C 
HETATM   27  N5  UNL     1      24.046  37.973  34.026  1.00  0.00    -0.345 N 
HETATM   28  C17 UNL     1      24.465  38.442  32.769  1.00  0.00     0.241 C 
ATOM     29  H5  UNL     1      24.748  37.964  34.766  1.00  0.00     0.163 HD
HETATM   30  O6  UNL     1      25.505  37.992  32.226  1.00  0.00    -0.271 OA
HETATM   31  C18 UNL     1      23.728  39.506  31.964  1.00  0.00     0.177 C 
HETATM   32  N7  UNL     1      24.731  40.268  31.221  1.00  0.00    -0.343 N 
HETATM   33  C22 UNL     1      25.461  41.375  31.671  1.00  0.00     0.225 C 
ATOM     34  H7  UNL     1      24.920  39.958  30.267  1.00  0.00     0.164 HD
BRANCH  26  35
HETATM   35  C16 UNL     1      22.590  36.045  34.056  1.00  0.00     0.196 C 
HETATM   36  O4  UNL     1      23.638  35.356  34.089  1.00  0.00    -0.646 OA
HETATM   37  O5  UNL     1      21.381  35.489  33.739  1.00  0.00    -0.646 OA
ENDBRANCH  26  35
BRANCH  31  38
HETATM   38  C19 UNL     1      22.877  38.725  31.006  1.00  0.00     0.036 C 
BRANCH  38  39
HETATM   39  C20 UNL     1      21.632  38.112  31.500  1.00  0.00     0.030 C 
BRANCH  39  40
HETATM   40  C21 UNL     1      21.010  37.024  30.709  1.00  0.00     0.230 C 
BRANCH  40  41
HETATM   41  N6  UNL     1      19.709  36.623  31.296  1.00  0.00    -0.079 N 
ATOM     42  H63 UNL     1      19.441  37.231  32.070  1.00  0.00     0.274 HD
ATOM     43  H62 UNL     1      18.933  36.824  30.666  1.00  0.00     0.274 HD
ATOM     44  H61 UNL     1      19.725  35.642  31.575  1.00  0.00     0.274 HD
ENDBRANCH  40  41
ENDBRANCH  39  40
ENDBRANCH  38  39
ENDBRANCH  31  38
BRANCH  33  45
HETATM   45  O7  UNL     1      26.756  41.231  31.536  1.00  0.00    -0.332 OA
ATOM     46  H7  UNL     1      27.114  40.351  31.569  1.00  0.00     0.221 HD
ENDBRANCH  33  45
ENDBRANCH   4   8
ENDBRANCH   3   4
TORSDOF 8
ENDMDL
MODEL 5
REMARK VINA RESULT: -2.222732571      2.118      3.172
REMARK  8 active torsions:
REMARK  status: ('A' for Active; 'I' for Inactive)
REMARK    1  A    between atoms: C3_3  and  C4_4 
REMARK    2  A    between atoms: C4_4  and  N2_8 
REMARK    3  A    between atoms: C15_26  and  C16_27 
REMARK    4  A    between atoms: C18_34  and  C19_35 
REMARK    5  A    between atoms: C19_35  and  C20_36 
REMARK    6  A    between atoms: C20_36  and  C21_37 
REMARK    7  A    between atoms: C21_37  and  N6_38 
REMARK    8  A    between atoms: C22_44  and  O7_45 
ROOT
HETATM    1  C1  UNL     1      23.368  43.731  32.850  1.00  0.00     0.097 C 
HETATM    2  C2  UNL     1      23.060  43.246  33.935  1.00  0.00    -0.180 C 
HETATM    3  C3  UNL     1      22.704  42.690  35.244  1.00  0.00     0.155 C 
ENDROOT
BRANCH   3   4
HETATM    4  C4  UNL     1      22.112  41.368  35.066  1.00  0.00     0.094 C 
HETATM    5  N1  UNL     1      20.948  41.225  34.544  1.00  0.00    -0.388 N 
ATOM      6  H12 UNL     1      20.485  42.084  34.248  1.00  0.00     0.157 HD
ATOM      7  H11 UNL     1      20.534  40.301  34.420  1.00  0.00     0.157 HD
BRANCH   4   8
HETATM    8  N2  UNL     1      22.767  40.152  35.485  1.00  0.00    -0.272 N 
HETATM    9  C5  UNL     1      23.823  39.632  34.709  1.00  0.00     0.175 C 
HETATM   10  C6  UNL     1      23.802  39.803  33.264  1.00  0.00     0.257 C 
HETATM   11  O1  UNL     1      24.731  40.516  32.780  1.00  0.00    -0.267 OA
HETATM   12  N3  UNL     1      22.896  39.287  32.314  1.00  0.00    -0.354 N 
HETATM   13  C7  UNL     1      21.775  38.400  32.548  1.00  0.00     0.149 C 
ATOM     14  H3  UNL     1      23.048  39.573  31.347  1.00  0.00     0.162 HD
HETATM   15  C8  UNL     1      22.123  37.056  31.942  1.00  0.00     0.188 C 
HETATM   16  O2  UNL     1      22.031  37.173  30.559  1.00  0.00    -0.380 OA
HETATM   17  C9  UNL     1      20.696  37.219  30.202  1.00  0.00     0.270 C 
HETATM   18  C10 UNL     1      20.477  36.234  29.106  1.00  0.00     0.241 C 
HETATM   19  O3  UNL     1      20.915  36.562  27.955  1.00  0.00    -0.271 OA
HETATM   20  N4  UNL     1      19.828  35.010  29.309  1.00  0.00    -0.359 N 
HETATM   21  C11 UNL     1      19.995  34.135  30.444  1.00  0.00     0.122 C 
ATOM     22  H4  UNL     1      19.175  34.708  28.586  1.00  0.00     0.162 HD
HETATM   23  C12 UNL     1      18.892  34.247  31.450  1.00  0.00     0.020 C 
HETATM   24  C13 UNL     1      19.340  33.901  32.845  1.00  0.00     0.004 C 
HETATM   25  C14 UNL     1      19.002  34.990  33.812  1.00  0.00     0.036 C 
HETATM   26  C15 UNL     1      19.835  34.978  35.068  1.00  0.00     0.185 C 
HETATM   27  N5  UNL     1      19.632  36.221  35.778  1.00  0.00    -0.345 N 
HETATM   28  C17 UNL     1      20.505  36.817  36.703  1.00  0.00     0.241 C 
ATOM     29  H5  UNL     1      18.761  36.719  35.587  1.00  0.00     0.163 HD
HETATM   30  O6  UNL     1      20.094  37.196  37.829  1.00  0.00    -0.271 OA
HETATM   31  C18 UNL     1      21.989  37.055  36.448  1.00  0.00     0.177 C 
HETATM   32  N7  UNL     1      22.366  38.279  37.154  1.00  0.00    -0.343 N 
HETATM   33  C22 UNL     1      22.260  39.595  36.687  1.00  0.00     0.225 C 
ATOM     34  H7  UNL     1      22.747  38.161  38.093  1.00  0.00     0.164 HD
BRANCH  26  35
HETATM   35  C16 UNL     1      19.362  33.823  35.898  1.00  0.00     0.196 C 
HETATM   36  O4  UNL     1      18.132  33.573  35.875  1.00  0.00    -0.646 OA
HETATM   37  O5  UNL     1      20.228  33.073  36.646  1.00  0.00    -0.646 OA
ENDBRANCH  26  35
BRANCH  31  38
HETATM   38  C19 UNL     1      22.669  35.878  37.082  1.00  0.00     0.036 C 
BRANCH  38  39
HETATM   39  C20 UNL     1      21.955  35.122  38.125  1.00  0.00     0.030 C 
BRANCH  39  40
HETATM   40  C21 UNL     1      22.708  34.673  39.321  1.00  0.00     0.230 C 
BRANCH  40  41
HETATM   41  N6  UNL     1      23.897  33.879  38.928  1.00  0.00    -0.079 N 
ATOM     42  H63 UNL     1      23.891  32.953  39.357  1.00  0.00     0.274 HD
ATOM     43  H62 UNL     1      23.854  33.596  37.949  1.00  0.00     0.274 HD
ATOM     44  H61 UNL     1      24.756  34.387  39.137  1.00  0.00     0.274 HD
ENDBRANCH  40  41
ENDBRANCH  39  40
ENDBRANCH  38  39
ENDBRANCH  31  38
BRANCH  33  45
HETATM   45  O7  UNL     1      21.600  40.382  37.501  1.00  0.00    -0.332 OA
ATOM     46  H7  UNL     1      20.809  40.797  37.178  1.00  0.00     0.221 HD
ENDBRANCH  33  45
ENDBRANCH   4   8
ENDBRANCH   3   4
TORSDOF 8
ENDMDL
