MODEL 1
REMARK VINA RESULT: -10.210235264      0.000      0.000
REMARK  7 active torsions:
REMARK  status: ('A' for Active; 'I' for Inactive)
REMARK    1  A    between atoms: C2_2  and  C4_16 
REMARK    2  A    between atoms: N1_3  and  N2_5 
REMARK       I    between atoms: N2_5  and  C3_7 
REMARK       I    between atoms: C3_7  and  N4_11 
REMARK    3  A    between atoms: N4_11  and  N5_13 
REMARK       I    between atoms: C4_16  and  N6_18 
REMARK       I    between atoms: C5_20  and  N8_22 
REMARK    4  A    between atoms: N8_22  and  N9_24 
REMARK       I    between atoms: N9_24  and  C6_26 
REMARK       I    between atoms: C6_26  and  N10_28 
REMARK    5  A    between atoms: N11_31  and  C9_32 
REMARK    6  A    between atoms: C9_32  and  N12_34 
REMARK    7  A    between atoms: N12_34  and  C10_36 
ROOT
HETATM    1  C4  UNL     1      26.888  42.962  32.885  1.00  0.00     0.271 C 
HETATM    2  O3  UNL     1      27.341  41.992  33.582  1.00  0.00    -0.266 OA
HETATM    3  N6  UNL     1      25.514  43.154  32.718  1.00  0.00    -0.295 N 
ATOM      4  H6  UNL     1      25.233  43.765  31.951  1.00  0.00     0.171 HD
HETATM    5  C5  UNL     1      24.577  42.658  33.411  1.00  0.00     0.210 C 
HETATM    6  N7  UNL     1      23.234  42.981  33.076  1.00  0.00    -0.062 NA
HETATM    7  N8  UNL     1      24.794  41.792  34.503  1.00  0.00    -0.269 N 
ATOM      8  H8  UNL     1      25.555  41.943  35.165  1.00  0.00     0.190 HD
ENDROOT
BRANCH   7   9
HETATM    9  N9  UNL     1      23.893  40.698  34.631  1.00  0.00    -0.249 N 
HETATM   10  C6  UNL     1      24.363  39.444  34.198  1.00  0.00     0.337 C 
HETATM   11  O4  UNL     1      25.516  39.282  33.727  1.00  0.00    -0.245 OA
HETATM   12  N10 UNL     1      23.464  38.304  34.306  1.00  0.00    -0.330 N 
HETATM   13  C7  UNL     1      24.002  37.040  33.904  1.00  0.00     0.147 C 
HETATM   14  C16 UNL     1      22.126  38.513  34.780  1.00  0.00     0.147 C 
HETATM   15  C8  UNL     1      23.075  35.911  33.871  1.00  0.00     0.145 C 
HETATM   16  N11 UNL     1      21.792  36.194  34.452  1.00  0.00    -0.355 N 
HETATM   17  C15 UNL     1      21.178  37.457  34.216  1.00  0.00     0.145 C 
ATOM     18  H9  UNL     1      22.956  40.816  35.016  1.00  0.00     0.192 HD
BRANCH  16  19
HETATM   19  C9  UNL     1      21.174  35.186  35.243  1.00  0.00     0.170 C 
HETATM   20  S1  UNL     1      21.508  35.197  36.858  1.00  0.00    -0.041 SA
BRANCH  19  21
HETATM   21  N12 UNL     1      20.285  34.240  34.695  1.00  0.00    -0.354 N 
ATOM     22  H12 UNL     1      20.668  33.440  34.191  1.00  0.00     0.162 HD
BRANCH  21  23
HETATM   23  C10 UNL     1      18.850  34.363  34.820  1.00  0.00     0.176 C 
HETATM   24  C11 UNL     1      18.297  34.627  33.416  1.00  0.00     0.036 C 
HETATM   25  C12 UNL     1      18.097  33.272  32.733  1.00  0.00     0.022 C 
HETATM   26  C13 UNL     1      16.826  32.684  33.364  1.00  0.00     0.122 C 
HETATM   27  N13 UNL     1      17.168  32.454  34.748  1.00  0.00    -0.359 N 
HETATM   28  C14 UNL     1      18.338  33.034  35.284  1.00  0.00     0.240 C 
ATOM     29  H13 UNL     1      16.568  31.875  35.336  1.00  0.00     0.162 HD
HETATM   30  O5  UNL     1      18.967  32.427  36.168  1.00  0.00    -0.271 OA
ENDBRANCH  21  23
ENDBRANCH  19  21
ENDBRANCH  16  19
ENDBRANCH   7   9
BRANCH   1  31
HETATM   31  C2  UNL     1      27.830  43.874  32.257  1.00  0.00     0.090 C 
HETATM   32  C1  UNL     1      27.242  44.957  31.367  1.00  0.00     0.076 C 
HETATM   33  N1  UNL     1      29.079  43.881  32.347  1.00  0.00    -0.285 N 
ATOM     34  H1  UNL     1      29.514  44.625  31.801  1.00  0.00     0.187 HD
BRANCH  33  35
HETATM   35  N2  UNL     1      29.983  43.112  33.015  1.00  0.00    -0.131 N 
HETATM   36  C3  UNL     1      30.698  43.644  34.136  1.00  0.00     0.709 C 
HETATM   37  N3  UNL     1      30.085  44.038  35.187  1.00  0.00    -0.232 N 
HETATM   38  N4  UNL     1      32.104  43.732  34.070  1.00  0.00    -0.071 N 
ATOM     39  H32 UNL     1      29.068  43.975  35.235  1.00  0.00     0.174 HD
ATOM     40  H31 UNL     1      30.595  44.417  35.986  1.00  0.00     0.174 HD
ATOM     41  H4  UNL     1      32.584  43.750  33.171  1.00  0.00     0.212 HD
ATOM     42  H2  UNL     1      30.152  42.151  32.715  1.00  0.00     0.205 HD
BRANCH  38  43
HETATM   43  N5  UNL     1      32.820  43.794  35.258  1.00  0.00    -0.024 N 
HETATM   44  O1  UNL     1      33.938  44.316  35.272  1.00  0.00    -0.516 OA
HETATM   45  O2  UNL     1      32.286  43.280  36.400  1.00  0.00    -0.516 OA
ENDBRANCH  38  43
ENDBRANCH  33  35
ENDBRANCH   1  31
TORSDOF 7
ENDMDL
MODEL 2
REMARK VINA RESULT: -10.191058456      3.988     12.011
REMARK  7 active torsions:
REMARK  status: ('A' for Active; 'I' for Inactive)
REMARK    1  A    between atoms: C2_2  and  C4_16 
REMARK    2  A    between atoms: N1_3  and  N2_5 
REMARK       I    between atoms: N2_5  and  C3_7 
REMARK       I    between atoms: C3_7  and  N4_11 
REMARK    3  A    between atoms: N4_11  and  N5_13 
REMARK       I    between atoms: C4_16  and  N6_18 
REMARK       I    between atoms: C5_20  and  N8_22 
REMARK    4  A    between atoms: N8_22  and  N9_24 
REMARK       I    between atoms: N9_24  and  C6_26 
REMARK       I    between atoms: C6_26  and  N10_28 
REMARK    5  A    between atoms: N11_31  and  C9_32 
REMARK    6  A    between atoms: C9_32  and  N12_34 
REMARK    7  A    between atoms: N12_34  and  C10_36 
ROOT
HETATM    1  C4  UNL     1      20.339  35.689  33.283  1.00  0.00     0.271 C 
HETATM    2  O3  UNL     1      19.943  36.451  32.337  1.00  0.00    -0.266 OA
HETATM    3  N6  UNL     1      21.457  36.016  34.054  1.00  0.00    -0.295 N 
ATOM      4  H6  UNL     1      21.870  35.257  34.596  1.00  0.00     0.171 HD
HETATM    5  C5  UNL     1      22.017  37.148  34.159  1.00  0.00     0.210 C 
HETATM    6  N7  UNL     1      23.154  37.273  35.004  1.00  0.00    -0.062 NA
HETATM    7  N8  UNL     1      21.575  38.298  33.474  1.00  0.00    -0.269 N 
ATOM      8  H8  UNL     1      20.584  38.509  33.361  1.00  0.00     0.190 HD
ENDROOT
BRANCH   7   9
HETATM    9  N9  UNL     1      22.588  39.150  32.950  1.00  0.00    -0.249 N 
HETATM   10  C6  UNL     1      22.699  40.426  33.535  1.00  0.00     0.337 C 
HETATM   11  O4  UNL     1      21.956  40.804  34.473  1.00  0.00    -0.245 OA
HETATM   12  N10 UNL     1      23.719  41.327  33.017  1.00  0.00    -0.330 N 
HETATM   13  C7  UNL     1      23.831  42.592  33.675  1.00  0.00     0.147 C 
HETATM   14  C16 UNL     1      24.515  40.911  31.898  1.00  0.00     0.147 C 
HETATM   15  C8  UNL     1      24.748  43.563  33.082  1.00  0.00     0.145 C 
HETATM   16  N11 UNL     1      25.567  43.026  32.033  1.00  0.00    -0.355 N 
HETATM   17  C15 UNL     1      24.998  42.117  31.094  1.00  0.00     0.145 C 
ATOM     18  H9  UNL     1      23.200  38.853  32.190  1.00  0.00     0.192 HD
BRANCH  16  19
HETATM   19  C9  UNL     1      26.928  43.433  31.963  1.00  0.00     0.170 C 
HETATM   20  S1  UNL     1      28.025  42.508  32.777  1.00  0.00    -0.041 SA
BRANCH  19  21
HETATM   21  N12 UNL     1      27.342  44.548  31.207  1.00  0.00    -0.354 N 
ATOM     22  H12 UNL     1      27.383  44.464  30.191  1.00  0.00     0.162 HD
BRANCH  21  23
HETATM   23  C10 UNL     1      27.709  45.805  31.819  1.00  0.00     0.176 C 
HETATM   24  C11 UNL     1      29.175  46.069  31.459  1.00  0.00     0.036 C 
HETATM   25  C12 UNL     1      29.200  46.755  30.090  1.00  0.00     0.022 C 
HETATM   26  C13 UNL     1      28.774  48.206  30.357  1.00  0.00     0.122 C 
HETATM   27  N13 UNL     1      27.402  48.116  30.800  1.00  0.00    -0.359 N 
HETATM   28  C14 UNL     1      26.869  46.865  31.175  1.00  0.00     0.240 C 
ATOM     29  H13 UNL     1      26.820  48.954  30.841  1.00  0.00     0.162 HD
HETATM   30  O5  UNL     1      25.667  46.628  30.966  1.00  0.00    -0.271 OA
ENDBRANCH  21  23
ENDBRANCH  19  21
ENDBRANCH  16  19
ENDBRANCH   7   9
BRANCH   1  31
HETATM   31  C2  UNL     1      19.606  34.462  33.550  1.00  0.00     0.090 C 
HETATM   32  C1  UNL     1      18.127  34.461  33.200  1.00  0.00     0.076 C 
HETATM   33  N1  UNL     1      20.036  33.396  34.045  1.00  0.00    -0.285 N 
ATOM     34  H1  UNL     1      19.314  32.680  34.137  1.00  0.00     0.187 HD
BRANCH  33  35
HETATM   35  N2  UNL     1      21.256  32.983  34.488  1.00  0.00    -0.131 N 
HETATM   36  C3  UNL     1      21.587  33.065  35.879  1.00  0.00     0.709 C 
HETATM   37  N3  UNL     1      20.922  32.417  36.759  1.00  0.00    -0.232 N 
HETATM   38  N4  UNL     1      22.669  33.878  36.277  1.00  0.00    -0.071 N 
ATOM     39  H32 UNL     1      20.139  31.828  36.471  1.00  0.00     0.174 HD
ATOM     40  H31 UNL     1      21.158  32.475  37.750  1.00  0.00     0.174 HD
ATOM     41  H4  UNL     1      22.995  34.640  35.683  1.00  0.00     0.212 HD
ATOM     42  H2  UNL     1      21.937  32.613  33.825  1.00  0.00     0.205 HD
BRANCH  38  43
HETATM   43  N5  UNL     1      23.280  33.617  37.496  1.00  0.00    -0.024 N 
HETATM   44  O1  UNL     1      24.151  32.745  37.569  1.00  0.00    -0.516 OA
HETATM   45  O2  UNL     1      22.917  34.321  38.602  1.00  0.00    -0.516 OA
ENDBRANCH  38  43
ENDBRANCH  33  35
ENDBRANCH   1  31
TORSDOF 7
ENDMDL
MODEL 3
REMARK VINA RESULT: -10.169560573      3.188     11.546
REMARK  7 active torsions:
REMARK  status: ('A' for Active; 'I' for Inactive)
REMARK    1  A    between atoms: C2_2  and  C4_16 
REMARK    2  A    between atoms: N1_3  and  N2_5 
REMARK       I    between atoms: N2_5  and  C3_7 
REMARK       I    between atoms: C3_7  and  N4_11 
REMARK    3  A    between atoms: N4_11  and  N5_13 
REMARK       I    between atoms: C4_16  and  N6_18 
REMARK       I    between atoms: C5_20  and  N8_22 
REMARK    4  A    between atoms: N8_22  and  N9_24 
REMARK       I    between atoms: N9_24  and  C6_26 
REMARK       I    between atoms: C6_26  and  N10_28 
REMARK    5  A    between atoms: N11_31  and  C9_32 
REMARK    6  A    between atoms: C9_32  and  N12_34 
REMARK    7  A    between atoms: N12_34  and  C10_36 
ROOT
HETATM    1  C4  UNL     1      20.655  35.641  33.672  1.00  0.00     0.271 C 
HETATM    2  O3  UNL     1      20.100  36.778  33.851  1.00  0.00    -0.266 OA
HETATM    3  N6  UNL     1      22.036  35.533  33.482  1.00  0.00    -0.295 N 
ATOM      4  H6  UNL     1      22.369  34.654  33.085  1.00  0.00     0.171 HD
HETATM    5  C5  UNL     1      22.920  36.399  33.747  1.00  0.00     0.210 C 
HETATM    6  N7  UNL     1      24.282  36.091  33.478  1.00  0.00    -0.062 NA
HETATM    7  N8  UNL     1      22.627  37.665  34.295  1.00  0.00    -0.269 N 
ATOM      8  H8  UNL     1      21.920  37.786  35.019  1.00  0.00     0.190 HD
ENDROOT
BRANCH   7   9
HETATM    9  N9  UNL     1      23.373  38.764  33.782  1.00  0.00    -0.249 N 
HETATM   10  C6  UNL     1      22.747  40.024  33.831  1.00  0.00     0.337 C 
HETATM   11  O4  UNL     1      21.595  40.187  34.304  1.00  0.00    -0.245 OA
HETATM   12  N10 UNL     1      23.477  41.169  33.307  1.00  0.00    -0.330 N 
HETATM   13  C7  UNL     1      22.825  42.437  33.425  1.00  0.00     0.147 C 
HETATM   14  C16 UNL     1      24.763  40.961  32.704  1.00  0.00     0.147 C 
HETATM   15  C8  UNL     1      23.477  43.575  32.779  1.00  0.00     0.145 C 
HETATM   16  N11 UNL     1      24.797  43.290  32.291  1.00  0.00    -0.355 N 
HETATM   17  C15 UNL     1      25.058  42.038  31.663  1.00  0.00     0.145 C 
ATOM     18  H9  UNL     1      24.311  38.645  33.399  1.00  0.00     0.192 HD
BRANCH  16  19
HETATM   19  C9  UNL     1      25.803  44.284  32.448  1.00  0.00     0.170 C 
HETATM   20  S1  UNL     1      25.482  45.774  31.818  1.00  0.00    -0.041 SA
BRANCH  19  21
HETATM   21  N12 UNL     1      27.004  44.034  33.141  1.00  0.00    -0.354 N 
ATOM     22  H12 UNL     1      26.961  43.812  34.136  1.00  0.00     0.162 HD
BRANCH  21  23
HETATM   23  C10 UNL     1      28.296  44.082  32.493  1.00  0.00     0.176 C 
HETATM   24  C11 UNL     1      29.050  45.279  33.082  1.00  0.00     0.036 C 
HETATM   25  C12 UNL     1      29.738  44.808  34.366  1.00  0.00     0.022 C 
HETATM   26  C13 UNL     1      30.952  43.991  33.899  1.00  0.00     0.122 C 
HETATM   27  N13 UNL     1      30.391  42.839  33.230  1.00  0.00    -0.359 N 
HETATM   28  C14 UNL     1      29.024  42.832  32.880  1.00  0.00     0.240 C 
ATOM     29  H13 UNL     1      30.980  42.036  33.011  1.00  0.00     0.162 HD
HETATM   30  O5  UNL     1      28.399  41.757  32.894  1.00  0.00    -0.271 OA
ENDBRANCH  21  23
ENDBRANCH  19  21
ENDBRANCH  16  19
ENDBRANCH   7   9
BRANCH   1  31
HETATM   31  C2  UNL     1      19.825  34.447  33.667  1.00  0.00     0.090 C 
HETATM   32  C1  UNL     1      18.420  34.597  33.108  1.00  0.00     0.076 C 
HETATM   33  N1  UNL     1      20.116  33.300  34.074  1.00  0.00    -0.285 N 
ATOM     34  H1  UNL     1      19.352  32.633  33.965  1.00  0.00     0.187 HD
BRANCH  33  35
HETATM   35  N2  UNL     1      21.231  32.748  34.631  1.00  0.00    -0.131 N 
HETATM   36  C3  UNL     1      21.571  33.025  35.995  1.00  0.00     0.709 C 
HETATM   37  N3  UNL     1      20.790  32.696  36.953  1.00  0.00    -0.232 N 
HETATM   38  N4  UNL     1      22.792  33.672  36.276  1.00  0.00    -0.071 N 
ATOM     39  H32 UNL     1      19.907  32.227  36.750  1.00  0.00     0.174 HD
ATOM     40  H31 UNL     1      21.033  32.892  37.925  1.00  0.00     0.174 HD
ATOM     41  H4  UNL     1      23.262  34.231  35.565  1.00  0.00     0.212 HD
ATOM     42  H2  UNL     1      21.826  32.135  34.074  1.00  0.00     0.205 HD
BRANCH  38  43
HETATM   43  N5  UNL     1      23.339  33.531  37.544  1.00  0.00    -0.024 N 
HETATM   44  O1  UNL     1      22.889  34.196  38.482  1.00  0.00    -0.516 OA
HETATM   45  O2  UNL     1      24.366  32.662  37.748  1.00  0.00    -0.516 OA
ENDBRANCH  38  43
ENDBRANCH  33  35
ENDBRANCH   1  31
TORSDOF 7
ENDMDL
MODEL 4
REMARK VINA RESULT: -10.140071668      3.202     12.688
REMARK  7 active torsions:
REMARK  status: ('A' for Active; 'I' for Inactive)
REMARK    1  A    between atoms: C2_2  and  C4_16 
REMARK    2  A    between atoms: N1_3  and  N2_5 
REMARK       I    between atoms: N2_5  and  C3_7 
REMARK       I    between atoms: C3_7  and  N4_11 
REMARK    3  A    between atoms: N4_11  and  N5_13 
REMARK       I    between atoms: C4_16  and  N6_18 
REMARK       I    between atoms: C5_20  and  N8_22 
REMARK    4  A    between atoms: N8_22  and  N9_24 
REMARK       I    between atoms: N9_24  and  C6_26 
REMARK       I    between atoms: C6_26  and  N10_28 
REMARK    5  A    between atoms: N11_31  and  C9_32 
REMARK    6  A    between atoms: C9_32  and  N12_34 
REMARK    7  A    between atoms: N12_34  and  C10_36 
ROOT
HETATM    1  C4  UNL     1      22.083  35.522  34.202  1.00  0.00     0.271 C 
HETATM    2  O3  UNL     1      21.722  35.923  33.044  1.00  0.00    -0.266 OA
HETATM    3  N6  UNL     1      22.806  36.354  35.062  1.00  0.00    -0.295 N 
ATOM      4  H6  UNL     1      23.284  35.895  35.838  1.00  0.00     0.171 HD
HETATM    5  C5  UNL     1      22.934  37.612  34.990  1.00  0.00     0.210 C 
HETATM    6  N7  UNL     1      23.717  38.277  35.973  1.00  0.00    -0.062 NA
HETATM    7  N8  UNL     1      22.342  38.396  33.978  1.00  0.00    -0.269 N 
ATOM      8  H8  UNL     1      21.398  38.211  33.639  1.00  0.00     0.190 HD
ENDROOT
BRANCH   7   9
HETATM    9  N9  UNL     1      23.133  39.458  33.458  1.00  0.00    -0.249 N 
HETATM   10  C6  UNL     1      22.697  40.765  33.746  1.00  0.00     0.337 C 
HETATM   11  O4  UNL     1      21.669  40.997  34.431  1.00  0.00    -0.245 OA
HETATM   12  N10 UNL     1      23.476  41.877  33.221  1.00  0.00    -0.330 N 
HETATM   13  C7  UNL     1      23.027  43.186  33.584  1.00  0.00     0.147 C 
HETATM   14  C16 UNL     1      24.607  41.601  32.382  1.00  0.00     0.147 C 
HETATM   15  C8  UNL     1      23.709  44.314  32.953  1.00  0.00     0.145 C 
HETATM   16  N11 UNL     1      24.882  43.944  32.212  1.00  0.00    -0.355 N 
HETATM   17  C15 UNL     1      24.868  42.759  31.421  1.00  0.00     0.145 C 
ATOM     18  H9  UNL     1      23.971  39.283  32.904  1.00  0.00     0.192 HD
BRANCH  16  19
HETATM   19  C9  UNL     1      26.023  44.791  32.289  1.00  0.00     0.170 C 
HETATM   20  S1  UNL     1      25.938  46.231  31.489  1.00  0.00    -0.041 SA
BRANCH  19  21
HETATM   21  N12 UNL     1      27.163  44.448  33.042  1.00  0.00    -0.354 N 
ATOM     22  H12 UNL     1      27.064  44.306  34.047  1.00  0.00     0.162 HD
BRANCH  21  23
HETATM   23  C10 UNL     1      28.469  44.290  32.441  1.00  0.00     0.176 C 
HETATM   24  C11 UNL     1      29.378  45.360  33.055  1.00  0.00     0.036 C 
HETATM   25  C12 UNL     1      29.939  44.798  34.364  1.00  0.00     0.022 C 
HETATM   26  C13 UNL     1      31.027  43.799  33.942  1.00  0.00     0.122 C 
HETATM   27  N13 UNL     1      30.319  42.743  33.255  1.00  0.00    -0.359 N 
HETATM   28  C14 UNL     1      28.980  42.945  32.856  1.00  0.00     0.240 C 
ATOM     29  H13 UNL     1      30.784  41.857  33.059  1.00  0.00     0.162 HD
HETATM   30  O5  UNL     1      28.196  41.980  32.849  1.00  0.00    -0.271 OA
ENDBRANCH  21  23
ENDBRANCH  19  21
ENDBRANCH  16  19
ENDBRANCH   7   9
BRANCH   1  31
HETATM   31  C2  UNL     1      21.732  34.175  34.620  1.00  0.00     0.090 C 
HETATM   32  C1  UNL     1      22.772  33.419  35.430  1.00  0.00     0.076 C 
HETATM   33  N1  UNL     1      20.676  33.544  34.390  1.00  0.00    -0.285 N 
ATOM     34  H1  UNL     1      20.677  32.605  34.790  1.00  0.00     0.187 HD
BRANCH  33  35
HETATM   35  N2  UNL     1      19.524  33.837  33.723  1.00  0.00    -0.131 N 
HETATM   36  C3  UNL     1      18.364  33.013  33.884  1.00  0.00     0.709 C 
HETATM   37  N3  UNL     1      17.802  32.874  35.024  1.00  0.00    -0.232 N 
HETATM   38  N4  UNL     1      17.839  32.345  32.758  1.00  0.00    -0.071 N 
ATOM     39  H32 UNL     1      18.182  33.357  35.839  1.00  0.00     0.174 HD
ATOM     40  H31 UNL     1      16.975  32.288  35.139  1.00  0.00     0.174 HD
ATOM     41  H4  UNL     1      18.422  32.161  31.942  1.00  0.00     0.212 HD
ATOM     42  H2  UNL     1      19.489  34.648  33.105  1.00  0.00     0.205 HD
BRANCH  38  43
HETATM   43  N5  UNL     1      16.510  31.945  32.786  1.00  0.00    -0.024 N 
HETATM   44  O1  UNL     1      15.638  32.743  33.142  1.00  0.00    -0.516 OA
HETATM   45  O2  UNL     1      16.175  30.677  32.422  1.00  0.00    -0.516 OA
ENDBRANCH  38  43
ENDBRANCH  33  35
ENDBRANCH   1  31
TORSDOF 7
ENDMDL
MODEL 5
REMARK VINA RESULT: -10.105230227      3.125     11.802
REMARK  7 active torsions:
REMARK  status: ('A' for Active; 'I' for Inactive)
REMARK    1  A    between atoms: C2_2  and  C4_16 
REMARK    2  A    between atoms: N1_3  and  N2_5 
REMARK       I    between atoms: N2_5  and  C3_7 
REMARK       I    between atoms: C3_7  and  N4_11 
REMARK    3  A    between atoms: N4_11  and  N5_13 
REMARK       I    between atoms: C4_16  and  N6_18 
REMARK       I    between atoms: C5_20  and  N8_22 
REMARK    4  A    between atoms: N8_22  and  N9_24 
REMARK       I    between atoms: N9_24  and  C6_26 
REMARK       I    between atoms: C6_26  and  N10_28 
REMARK    5  A    between atoms: N11_31  and  C9_32 
REMARK    6  A    between atoms: C9_32  and  N12_34 
REMARK    7  A    between atoms: N12_34  and  C10_36 
ROOT
HETATM    1  C4  UNL     1      21.019  35.291  33.892  1.00  0.00     0.271 C 
HETATM    2  O3  UNL     1      20.537  36.329  34.459  1.00  0.00    -0.266 OA
HETATM    3  N6  UNL     1      22.364  35.231  33.517  1.00  0.00    -0.295 N 
ATOM      4  H6  UNL     1      22.613  34.505  32.844  1.00  0.00     0.171 HD
HETATM    5  C5  UNL     1      23.309  35.972  33.917  1.00  0.00     0.210 C 
HETATM    6  N7  UNL     1      24.618  35.744  33.410  1.00  0.00    -0.062 NA
HETATM    7  N8  UNL     1      23.134  37.023  34.841  1.00  0.00    -0.269 N 
ATOM      8  H8  UNL     1      22.517  36.932  35.648  1.00  0.00     0.190 HD
ENDROOT
BRANCH   7   9
HETATM    9  N9  UNL     1      23.866  38.217  34.587  1.00  0.00    -0.249 N 
HETATM   10  C6  UNL     1      23.572  38.890  33.387  1.00  0.00     0.337 C 
HETATM   11  O4  UNL     1      22.708  38.474  32.575  1.00  0.00    -0.245 OA
HETATM   12  N10 UNL     1      24.308  40.111  33.090  1.00  0.00    -0.330 N 
HETATM   13  C7  UNL     1      23.939  40.790  31.886  1.00  0.00     0.147 C 
HETATM   14  C16 UNL     1      25.341  40.538  33.989  1.00  0.00     0.147 C 
HETATM   15  C8  UNL     1      24.760  41.935  31.499  1.00  0.00     0.145 C 
HETATM   16  N11 UNL     1      25.700  42.344  32.504  1.00  0.00    -0.355 N 
HETATM   17  C15 UNL     1      26.401  41.354  33.253  1.00  0.00     0.145 C 
ATOM     18  H9  UNL     1      24.567  38.567  35.240  1.00  0.00     0.192 HD
BRANCH  16  19
HETATM   19  C9  UNL     1      25.906  43.736  32.709  1.00  0.00     0.170 C 
HETATM   20  S1  UNL     1      24.631  44.732  32.391  1.00  0.00    -0.041 SA
BRANCH  19  21
HETATM   21  N12 UNL     1      27.122  44.252  33.198  1.00  0.00    -0.354 N 
ATOM     22  H12 UNL     1      27.169  44.565  34.169  1.00  0.00     0.162 HD
BRANCH  21  23
HETATM   23  C10 UNL     1      28.307  44.355  32.376  1.00  0.00     0.176 C 
HETATM   24  C11 UNL     1      27.900  45.084  31.091  1.00  0.00     0.036 C 
HETATM   25  C12 UNL     1      27.988  46.589  31.363  1.00  0.00     0.022 C 
HETATM   26  C13 UNL     1      29.488  46.918  31.338  1.00  0.00     0.122 C 
HETATM   27  N13 UNL     1      30.043  46.213  32.470  1.00  0.00    -0.359 N 
HETATM   28  C14 UNL     1      29.279  45.219  33.118  1.00  0.00     0.240 C 
ATOM     29  H13 UNL     1      30.984  46.433  32.800  1.00  0.00     0.162 HD
HETATM   30  O5  UNL     1      29.412  45.052  34.343  1.00  0.00    -0.271 OA
ENDBRANCH  21  23
ENDBRANCH  19  21
ENDBRANCH  16  19
ENDBRANCH   7   9
BRANCH   1  31
HETATM   31  C2  UNL     1      20.142  34.160  33.637  1.00  0.00     0.090 C 
HETATM   32  C1  UNL     1      18.866  34.447  32.862  1.00  0.00     0.076 C 
HETATM   33  N1  UNL     1      20.297  32.967  33.983  1.00  0.00    -0.285 N 
ATOM     34  H1  UNL     1      19.530  32.363  33.684  1.00  0.00     0.187 HD
BRANCH  33  35
HETATM   35  N2  UNL     1      21.265  32.299  34.670  1.00  0.00    -0.131 N 
HETATM   36  C3  UNL     1      21.658  32.735  35.976  1.00  0.00     0.709 C 
HETATM   37  N3  UNL     1      20.824  32.756  36.946  1.00  0.00    -0.232 N 
HETATM   38  N4  UNL     1      22.990  33.147  36.187  1.00  0.00    -0.071 N 
ATOM     39  H32 UNL     1      19.860  32.458  36.794  1.00  0.00     0.174 HD
ATOM     40  H31 UNL     1      21.104  33.067  37.877  1.00  0.00     0.174 HD
ATOM     41  H4  UNL     1      23.570  33.457  35.408  1.00  0.00     0.212 HD
ATOM     42  H2  UNL     1      21.713  31.484  34.251  1.00  0.00     0.205 HD
BRANCH  38  43
HETATM   43  N5  UNL     1      23.493  33.122  37.481  1.00  0.00    -0.024 N 
HETATM   44  O1  UNL     1      24.254  32.212  37.824  1.00  0.00    -0.516 OA
HETATM   45  O2  UNL     1      23.147  34.098  38.364  1.00  0.00    -0.516 OA
ENDBRANCH  38  43
ENDBRANCH  33  35
ENDBRANCH   1  31
TORSDOF 7
ENDMDL
