MODEL 1
REMARK VINA RESULT: -8.222559446      0.000      0.000
REMARK  9 active torsions:
REMARK  status: ('A' for Active; 'I' for Inactive)
REMARK    1  A    between atoms: C1_2  and  C2_4 
REMARK    2  A    between atoms: C5_9  and  N2_10 
REMARK    3  A    between atoms: C7_17  and  C8_18 
REMARK    4  A    between atoms: C8_18  and  N4_19 
REMARK       I    between atoms: N4_19  and  C9_21 
REMARK       I    between atoms: C9_21  and  N6_31 
REMARK       I    between atoms: N5_22  and  C10_24 
REMARK    5  A    between atoms: C10_24  and  C11_26 
REMARK    6  A    between atoms: C12_27  and  C13_28 
REMARK       I    between atoms: N6_31  and  C16_33 
REMARK    7  A    between atoms: N8_35  and  C17_37 
REMARK    8  A    between atoms: C17_37  and  C18_38 
REMARK    9  A    between atoms: C18_38  and  O3_39 
ROOT
HETATM    1  C8  UNL     1      21.110  37.650  35.139  1.00  0.00     0.172 C 
ENDROOT
BRANCH   1   2
HETATM    2  C7  UNL     1      21.034  38.712  34.057  1.00  0.00     0.191 C 
HETATM    3  N3  UNL     1      20.551  39.964  34.546  1.00  0.00    -0.386 N 
HETATM    4  C6  UNL     1      21.487  40.990  34.779  1.00  0.00     0.089 C 
ATOM      5  H3  UNL     1      19.557  40.110  34.721  1.00  0.00     0.159 HD
HETATM    6  C5  UNL     1      21.476  41.570  36.164  1.00  0.00     0.231 C 
HETATM    7  C4  UNL     1      22.913  41.567  36.638  1.00  0.00     0.124 C 
HETATM    8  S2  UNL     1      24.090  41.920  35.343  1.00  0.00    -0.095 SA
HETATM    9  S1  UNL     1      25.313  40.333  34.780  1.00  0.00    -0.095 SA
HETATM   10  C3  UNL     1      24.857  38.727  35.407  1.00  0.00     0.120 C 
HETATM   11  C2  UNL     1      24.302  37.798  34.315  1.00  0.00     0.183 C 
HETATM   12  N9  UNL     1      23.555  38.647  33.432  1.00  0.00    -0.346 N 
HETATM   13  C19 UNL     1      22.201  38.758  33.165  1.00  0.00     0.242 C 
ATOM     14  H9  UNL     1      24.134  39.295  32.897  1.00  0.00     0.163 HD
HETATM   15  O4  UNL     1      21.931  38.935  31.910  1.00  0.00    -0.271 OA
BRANCH   6  16
HETATM   16  N2  UNL     1      20.730  40.709  37.068  1.00  0.00    -0.070 N 
ATOM     17  H23 UNL     1      20.942  39.718  36.945  1.00  0.00     0.275 HD
ATOM     18  H22 UNL     1      21.033  40.787  38.038  1.00  0.00     0.275 HD
ATOM     19  H21 UNL     1      19.742  40.926  36.938  1.00  0.00     0.275 HD
ENDBRANCH   6  16
BRANCH  11  20
HETATM   20  C1  UNL     1      25.411  37.118  33.608  1.00  0.00     0.254 C 
HETATM   21  N1  UNL     1      25.201  35.897  32.950  1.00  0.00    -0.060 NA
HETATM   22  O1  UNL     1      26.532  37.651  33.607  1.00  0.00    -0.275 OA
ENDBRANCH  11  20
ENDBRANCH   1   2
BRANCH   1  23
HETATM   23  N4  UNL     1      20.433  36.434  34.748  1.00  0.00    -0.223 N 
HETATM   24  C9  UNL     1      21.093  35.204  34.508  1.00  0.00     0.683 C 
HETATM   25  N5  UNL     1      20.609  34.352  33.692  1.00  0.00    -0.149 N 
HETATM   26  N6  UNL     1      22.311  34.842  35.154  1.00  0.00    -0.164 N 
HETATM   27  C10 UNL     1      19.424  34.483  32.950  1.00  0.00     0.314 C 
ATOM     28  H5  UNL     1      21.136  33.488  33.566  1.00  0.00     0.188 HD
HETATM   29  O2  UNL     1      19.275  35.356  32.062  1.00  0.00    -0.257 OA
HETATM   30  C16 UNL     1      22.386  33.927  36.235  1.00  0.00     0.202 C 
ATOM     31  H6  UNL     1      23.177  35.265  34.819  1.00  0.00     0.187 HD
HETATM   32  N7  UNL     1      21.320  33.793  37.137  1.00  0.00    -0.063 NA
HETATM   33  N8  UNL     1      23.447  33.211  36.388  1.00  0.00    -0.362 N 
ATOM     34  H8  UNL     1      24.203  33.333  35.714  1.00  0.00     0.162 HD
ATOM     35  H4  UNL     1      19.420  36.464  34.637  1.00  0.00     0.177 HD
BRANCH  27  36
HETATM   36  C11 UNL     1      18.276  33.613  33.151  1.00  0.00    -0.004 C 
HETATM   37  C12 UNL     1      17.336  32.875  33.322  1.00  0.00    -0.092 C 
BRANCH  37  38
HETATM   38  C13 UNL     1      16.211  31.962  33.540  1.00  0.00     0.065 A 
HETATM   39  C14 UNL     1      15.165  31.925  32.431  1.00  0.00     0.018 A 
HETATM   40  C15 UNL     1      16.091  30.780  32.578  1.00  0.00     0.018 A 
ENDBRANCH  37  38
ENDBRANCH  27  36
BRANCH  33  41
HETATM   41  C17 UNL     1      23.639  32.260  37.435  1.00  0.00     0.148 C 
BRANCH  41  42
HETATM   42  C18 UNL     1      24.528  32.768  38.555  1.00  0.00     0.183 C 
BRANCH  42  43
HETATM   43  O3  UNL     1      24.016  33.979  38.978  1.00  0.00    -0.399 OA
ATOM     44  H3  UNL     1      23.278  33.795  39.548  1.00  0.00     0.209 HD
ENDBRANCH  42  43
ENDBRANCH  41  42
ENDBRANCH  33  41
ENDBRANCH   1  23
TORSDOF 9
ENDMDL
MODEL 2
REMARK VINA RESULT: -7.941313048      2.061      3.655
REMARK  9 active torsions:
REMARK  status: ('A' for Active; 'I' for Inactive)
REMARK    1  A    between atoms: C1_2  and  C2_4 
REMARK    2  A    between atoms: C5_9  and  N2_10 
REMARK    3  A    between atoms: C7_17  and  C8_18 
REMARK    4  A    between atoms: C8_18  and  N4_19 
REMARK       I    between atoms: N4_19  and  C9_21 
REMARK       I    between atoms: C9_21  and  N6_31 
REMARK       I    between atoms: N5_22  and  C10_24 
REMARK    5  A    between atoms: C10_24  and  C11_26 
REMARK    6  A    between atoms: C12_27  and  C13_28 
REMARK       I    between atoms: N6_31  and  C16_33 
REMARK    7  A    between atoms: N8_35  and  C17_37 
REMARK    8  A    between atoms: C17_37  and  C18_38 
REMARK    9  A    between atoms: C18_38  and  O3_39 
ROOT
HETATM    1  C8  UNL     1      21.384  38.254  33.741  1.00  0.00     0.172 C 
ENDROOT
BRANCH   1   2
HETATM    2  C7  UNL     1      22.743  38.081  34.396  1.00  0.00     0.191 C 
HETATM    3  N3  UNL     1      23.824  38.317  33.493  1.00  0.00    -0.386 N 
HETATM    4  C6  UNL     1      24.503  39.549  33.580  1.00  0.00     0.089 C 
ATOM      5  H3  UNL     1      24.097  37.616  32.806  1.00  0.00     0.159 HD
HETATM    6  C5  UNL     1      24.568  40.339  32.305  1.00  0.00     0.231 C 
HETATM    7  C4  UNL     1      24.119  41.743  32.651  1.00  0.00     0.124 C 
HETATM    8  S2  UNL     1      24.649  42.280  34.269  1.00  0.00    -0.095 SA
HETATM    9  S1  UNL     1      23.138  42.514  35.681  1.00  0.00    -0.095 SA
HETATM   10  C3  UNL     1      21.539  41.860  35.238  1.00  0.00     0.120 C 
HETATM   11  C2  UNL     1      21.166  40.605  36.046  1.00  0.00     0.183 C 
HETATM   12  N9  UNL     1      22.395  39.888  36.230  1.00  0.00    -0.346 N 
HETATM   13  C19 UNL     1      22.857  38.681  35.732  1.00  0.00     0.242 C 
ATOM     14  H9  UNL     1      23.057  40.358  36.848  1.00  0.00     0.163 HD
HETATM   15  O4  UNL     1      23.499  37.970  36.605  1.00  0.00    -0.271 OA
BRANCH   6  16
HETATM   16  N2  UNL     1      23.618  39.817  31.336  1.00  0.00    -0.070 N 
ATOM     17  H23 UNL     1      22.753  39.483  31.762  1.00  0.00     0.275 HD
ATOM     18  H22 UNL     1      23.202  40.542  30.751  1.00  0.00     0.275 HD
ATOM     19  H21 UNL     1      24.105  39.100  30.800  1.00  0.00     0.275 HD
ENDBRANCH   6  16
BRANCH  11  20
HETATM   20  C1  UNL     1      20.561  40.991  37.340  1.00  0.00     0.254 C 
HETATM   21  N1  UNL     1      19.809  42.169  37.459  1.00  0.00    -0.060 NA
HETATM   22  O1  UNL     1      20.729  40.249  38.321  1.00  0.00    -0.275 OA
ENDBRANCH  11  20
ENDBRANCH   1   2
BRANCH   1  23
HETATM   23  N4  UNL     1      20.622  37.025  33.755  1.00  0.00    -0.223 N 
HETATM   24  C9  UNL     1      21.084  35.814  34.326  1.00  0.00     0.683 C 
HETATM   25  N5  UNL     1      20.682  34.689  33.883  1.00  0.00    -0.149 N 
HETATM   26  N6  UNL     1      22.005  35.775  35.413  1.00  0.00    -0.164 N 
HETATM   27  C10 UNL     1      19.775  34.478  32.831  1.00  0.00     0.314 C 
ATOM     28  H5  UNL     1      21.056  33.856  34.339  1.00  0.00     0.188 HD
HETATM   29  O2  UNL     1      20.025  34.809  31.647  1.00  0.00    -0.257 OA
HETATM   30  C16 UNL     1      21.626  35.506  36.754  1.00  0.00     0.202 C 
ATOM     31  H6  UNL     1      22.990  35.949  35.216  1.00  0.00     0.187 HD
HETATM   32  N7  UNL     1      20.357  35.866  37.228  1.00  0.00    -0.063 NA
HETATM   33  N8  UNL     1      22.462  34.921  37.544  1.00  0.00    -0.362 N 
ATOM     34  H8  UNL     1      23.376  34.671  37.166  1.00  0.00     0.162 HD
ATOM     35  H4  UNL     1      19.695  37.031  33.329  1.00  0.00     0.177 HD
BRANCH  27  36
HETATM   36  C11 UNL     1      18.475  33.859  33.032  1.00  0.00    -0.004 C 
HETATM   37  C12 UNL     1      17.388  33.356  33.182  1.00  0.00    -0.092 C 
BRANCH  37  38
HETATM   38  C13 UNL     1      16.062  32.754  33.341  1.00  0.00     0.065 A 
HETATM   39  C14 UNL     1      15.689  31.692  32.311  1.00  0.00     0.018 A 
HETATM   40  C15 UNL     1      16.021  31.266  33.689  1.00  0.00     0.018 A 
ENDBRANCH  37  38
ENDBRANCH  27  36
BRANCH  33  41
HETATM   41  C17 UNL     1      22.197  34.600  38.909  1.00  0.00     0.148 C 
BRANCH  41  42
HETATM   42  C18 UNL     1      23.441  34.229  39.693  1.00  0.00     0.183 C 
BRANCH  42  43
HETATM   43  O3  UNL     1      24.407  33.839  38.785  1.00  0.00    -0.399 OA
ATOM     44  H3  UNL     1      24.960  33.196  39.213  1.00  0.00     0.209 HD
ENDBRANCH  42  43
ENDBRANCH  41  42
ENDBRANCH  33  41
ENDBRANCH   1  23
TORSDOF 9
ENDMDL
MODEL 3
REMARK VINA RESULT: -7.357508180      3.564      6.667
REMARK  9 active torsions:
REMARK  status: ('A' for Active; 'I' for Inactive)
REMARK    1  A    between atoms: C1_2  and  C2_4 
REMARK    2  A    between atoms: C5_9  and  N2_10 
REMARK    3  A    between atoms: C7_17  and  C8_18 
REMARK    4  A    between atoms: C8_18  and  N4_19 
REMARK       I    between atoms: N4_19  and  C9_21 
REMARK       I    between atoms: C9_21  and  N6_31 
REMARK       I    between atoms: N5_22  and  C10_24 
REMARK    5  A    between atoms: C10_24  and  C11_26 
REMARK    6  A    between atoms: C12_27  and  C13_28 
REMARK       I    between atoms: N6_31  and  C16_33 
REMARK    7  A    between atoms: N8_35  and  C17_37 
REMARK    8  A    between atoms: C17_37  and  C18_38 
REMARK    9  A    between atoms: C18_38  and  O3_39 
ROOT
HETATM    1  C8  UNL     1      24.117  39.415  33.038  1.00  0.00     0.172 C 
ENDROOT
BRANCH   1   2
HETATM    2  C7  UNL     1      25.199  40.187  33.772  1.00  0.00     0.191 C 
HETATM    3  N3  UNL     1      26.175  40.742  32.891  1.00  0.00    -0.386 N 
HETATM    4  C6  UNL     1      26.099  42.118  32.601  1.00  0.00     0.089 C 
ATOM      5  H3  UNL     1      26.906  40.160  32.484  1.00  0.00     0.159 HD
HETATM    6  C5  UNL     1      26.027  42.466  31.142  1.00  0.00     0.231 C 
HETATM    7  C4  UNL     1      24.867  43.426  30.989  1.00  0.00     0.124 C 
HETATM    8  S2  UNL     1      24.689  44.550  32.364  1.00  0.00    -0.095 SA
HETATM    9  S1  UNL     1      23.006  44.262  33.553  1.00  0.00    -0.095 SA
HETATM   10  C3  UNL     1      22.098  42.752  33.278  1.00  0.00     0.120 C 
HETATM   11  C2  UNL     1      22.248  41.749  34.434  1.00  0.00     0.183 C 
HETATM   12  N9  UNL     1      23.598  41.897  34.898  1.00  0.00    -0.346 N 
HETATM   13  C19 UNL     1      24.702  41.063  34.843  1.00  0.00     0.242 C 
ATOM     14  H9  UNL     1      23.780  42.790  35.356  1.00  0.00     0.163 HD
HETATM   15  O4  UNL     1      25.411  41.066  35.928  1.00  0.00    -0.271 OA
BRANCH   6  16
HETATM   16  N2  UNL     1      25.706  41.285  30.355  1.00  0.00    -0.070 N 
ATOM     17  H23 UNL     1      24.743  41.275  30.021  1.00  0.00     0.275 HD
ATOM     18  H22 UNL     1      26.160  41.276  29.442  1.00  0.00     0.275 HD
ATOM     19  H21 UNL     1      25.941  40.474  30.927  1.00  0.00     0.275 HD
ENDBRANCH   6  16
BRANCH  11  20
HETATM   20  C1  UNL     1      21.270  42.048  35.503  1.00  0.00     0.254 C 
HETATM   21  N1  UNL     1      20.023  41.405  35.537  1.00  0.00    -0.060 NA
HETATM   22  O1  UNL     1      21.573  42.881  36.373  1.00  0.00    -0.275 OA
ENDBRANCH  11  20
ENDBRANCH   1   2
BRANCH   1  23
HETATM   23  N4  UNL     1      23.398  38.525  33.921  1.00  0.00    -0.223 N 
HETATM   24  C9  UNL     1      22.046  38.148  33.733  1.00  0.00     0.683 C 
HETATM   25  N5  UNL     1      21.310  37.838  34.728  1.00  0.00    -0.149 N 
HETATM   26  N6  UNL     1      21.432  38.084  32.449  1.00  0.00    -0.164 N 
HETATM   27  C10 UNL     1      21.693  37.820  36.079  1.00  0.00     0.314 C 
ATOM     28  H5  UNL     1      20.346  37.578  34.522  1.00  0.00     0.188 HD
HETATM   29  O2  UNL     1      22.028  38.857  36.702  1.00  0.00    -0.257 OA
HETATM   30  C16 UNL     1      21.190  36.872  31.753  1.00  0.00     0.202 C 
ATOM     31  H6  UNL     1      21.152  38.959  32.005  1.00  0.00     0.187 HD
HETATM   32  N7  UNL     1      22.033  35.764  31.925  1.00  0.00    -0.063 NA
HETATM   33  N8  UNL     1      20.181  36.790  30.953  1.00  0.00    -0.362 N 
ATOM     34  H8  UNL     1      19.588  37.614  30.852  1.00  0.00     0.162 HD
ATOM     35  H4  UNL     1      23.894  38.147  34.728  1.00  0.00     0.177 HD
BRANCH  27  36
HETATM   36  C11 UNL     1      21.731  36.597  36.864  1.00  0.00    -0.004 C 
HETATM   37  C12 UNL     1      21.777  35.590  37.529  1.00  0.00    -0.092 C 
BRANCH  37  38
HETATM   38  C13 UNL     1      21.846  34.381  38.353  1.00  0.00     0.065 A 
HETATM   39  C14 UNL     1      23.119  34.213  39.177  1.00  0.00     0.018 A 
HETATM   40  C15 UNL     1      21.863  34.583  39.868  1.00  0.00     0.018 A 
ENDBRANCH  37  38
ENDBRANCH  27  36
BRANCH  33  41
HETATM   41  C17 UNL     1      19.837  35.627  30.200  1.00  0.00     0.148 C 
BRANCH  41  42
HETATM   42  C18 UNL     1      20.305  35.684  28.757  1.00  0.00     0.183 C 
BRANCH  42  43
HETATM   43  O3  UNL     1      19.300  36.274  28.015  1.00  0.00    -0.399 OA
ATOM     44  H3  UNL     1      19.071  35.675  27.315  1.00  0.00     0.209 HD
ENDBRANCH  42  43
ENDBRANCH  41  42
ENDBRANCH  33  41
ENDBRANCH   1  23
TORSDOF 9
ENDMDL
MODEL 4
REMARK VINA RESULT: -7.348701717      3.621      6.511
REMARK  9 active torsions:
REMARK  status: ('A' for Active; 'I' for Inactive)
REMARK    1  A    between atoms: C1_2  and  C2_4 
REMARK    2  A    between atoms: C5_9  and  N2_10 
REMARK    3  A    between atoms: C7_17  and  C8_18 
REMARK    4  A    between atoms: C8_18  and  N4_19 
REMARK       I    between atoms: N4_19  and  C9_21 
REMARK       I    between atoms: C9_21  and  N6_31 
REMARK       I    between atoms: N5_22  and  C10_24 
REMARK    5  A    between atoms: C10_24  and  C11_26 
REMARK    6  A    between atoms: C12_27  and  C13_28 
REMARK       I    between atoms: N6_31  and  C16_33 
REMARK    7  A    between atoms: N8_35  and  C17_37 
REMARK    8  A    between atoms: C17_37  and  C18_38 
REMARK    9  A    between atoms: C18_38  and  O3_39 
ROOT
HETATM    1  C8  UNL     1      23.877  39.361  32.786  1.00  0.00     0.172 C 
ENDROOT
BRANCH   1   2
HETATM    2  C7  UNL     1      24.953  40.032  33.620  1.00  0.00     0.191 C 
HETATM    3  N3  UNL     1      25.984  40.617  32.824  1.00  0.00    -0.386 N 
HETATM    4  C6  UNL     1      25.968  42.013  32.640  1.00  0.00     0.089 C 
ATOM      5  H3  UNL     1      26.711  40.040  32.401  1.00  0.00     0.159 HD
HETATM    6  C5  UNL     1      25.970  42.474  31.211  1.00  0.00     0.231 C 
HETATM    7  C4  UNL     1      24.851  43.486  31.089  1.00  0.00     0.124 C 
HETATM    8  S2  UNL     1      24.655  44.507  32.541  1.00  0.00    -0.095 SA
HETATM    9  S1  UNL     1      22.914  44.192  33.637  1.00  0.00    -0.095 SA
HETATM   10  C3  UNL     1      21.967  42.744  33.208  1.00  0.00     0.120 C 
HETATM   11  C2  UNL     1      22.033  41.650  34.287  1.00  0.00     0.183 C 
HETATM   12  N9  UNL     1      23.367  41.710  34.813  1.00  0.00    -0.346 N 
HETATM   13  C19 UNL     1      24.442  40.841  34.736  1.00  0.00     0.242 C 
ATOM     14  H9  UNL     1      23.560  42.557  35.347  1.00  0.00     0.163 HD
HETATM   15  O4  UNL     1      25.105  40.734  35.845  1.00  0.00    -0.271 OA
BRANCH   6  16
HETATM   16  N2  UNL     1      25.641  41.371  30.322  1.00  0.00    -0.070 N 
ATOM     17  H23 UNL     1      26.360  40.647  30.298  1.00  0.00     0.275 HD
ATOM     18  H22 UNL     1      24.882  40.787  30.671  1.00  0.00     0.275 HD
ATOM     19  H21 UNL     1      25.447  41.775  29.407  1.00  0.00     0.275 HD
ENDBRANCH   6  16
BRANCH  11  20
HETATM   20  C1  UNL     1      21.022  41.903  35.337  1.00  0.00     0.254 C 
HETATM   21  N1  UNL     1      21.206  42.925  36.281  1.00  0.00    -0.060 NA
HETATM   22  O1  UNL     1      20.003  41.193  35.367  1.00  0.00    -0.275 OA
ENDBRANCH  11  20
ENDBRANCH   1   2
BRANCH   1  23
HETATM   23  N4  UNL     1      23.160  38.357  33.540  1.00  0.00    -0.223 N 
HETATM   24  C9  UNL     1      21.826  37.968  33.268  1.00  0.00     0.683 C 
HETATM   25  N5  UNL     1      21.073  37.527  34.198  1.00  0.00    -0.149 N 
HETATM   26  N6  UNL     1      21.250  38.036  31.966  1.00  0.00    -0.164 N 
HETATM   27  C10 UNL     1      21.419  37.364  35.550  1.00  0.00     0.314 C 
ATOM     28  H5  UNL     1      20.122  37.266  33.934  1.00  0.00     0.188 HD
HETATM   29  O2  UNL     1      21.705  38.330  36.296  1.00  0.00    -0.257 OA
HETATM   30  C16 UNL     1      21.063  36.905  31.130  1.00  0.00     0.202 C 
ATOM     31  H6  UNL     1      20.956  38.948  31.617  1.00  0.00     0.187 HD
HETATM   32  N7  UNL     1      21.934  35.808  31.200  1.00  0.00    -0.063 NA
HETATM   33  N8  UNL     1      20.080  36.889  30.295  1.00  0.00    -0.362 N 
ATOM     34  H8  UNL     1      19.465  37.703  30.271  1.00  0.00     0.162 HD
ATOM     35  H4  UNL     1      23.645  37.902  34.313  1.00  0.00     0.177 HD
BRANCH  27  36
HETATM   36  C11 UNL     1      21.471  36.060  36.191  1.00  0.00    -0.004 C 
HETATM   37  C12 UNL     1      21.514  34.968  36.704  1.00  0.00    -0.092 C 
BRANCH  37  38
HETATM   38  C13 UNL     1      21.572  33.632  37.304  1.00  0.00     0.065 A 
HETATM   39  C14 UNL     1      21.502  32.464  36.326  1.00  0.00     0.018 A 
HETATM   40  C15 UNL     1      22.797  32.782  36.968  1.00  0.00     0.018 A 
ENDBRANCH  37  38
ENDBRANCH  27  36
BRANCH  33  41
HETATM   41  C17 UNL     1      19.792  35.812  29.404  1.00  0.00     0.148 C 
BRANCH  41  42
HETATM   42  C18 UNL     1      19.880  36.202  27.940  1.00  0.00     0.183 C 
BRANCH  42  43
HETATM   43  O3  UNL     1      18.624  36.614  27.541  1.00  0.00    -0.399 OA
ATOM     44  H3  UNL     1      18.511  36.354  26.635  1.00  0.00     0.209 HD
ENDBRANCH  42  43
ENDBRANCH  41  42
ENDBRANCH  33  41
ENDBRANCH   1  23
TORSDOF 9
ENDMDL
MODEL 5
REMARK VINA RESULT: -7.333456477      3.410      5.742
REMARK  9 active torsions:
REMARK  status: ('A' for Active; 'I' for Inactive)
REMARK    1  A    between atoms: C1_2  and  C2_4 
REMARK    2  A    between atoms: C5_9  and  N2_10 
REMARK    3  A    between atoms: C7_17  and  C8_18 
REMARK    4  A    between atoms: C8_18  and  N4_19 
REMARK       I    between atoms: N4_19  and  C9_21 
REMARK       I    between atoms: C9_21  and  N6_31 
REMARK       I    between atoms: N5_22  and  C10_24 
REMARK    5  A    between atoms: C10_24  and  C11_26 
REMARK    6  A    between atoms: C12_27  and  C13_28 
REMARK       I    between atoms: N6_31  and  C16_33 
REMARK    7  A    between atoms: N8_35  and  C17_37 
REMARK    8  A    between atoms: C17_37  and  C18_38 
REMARK    9  A    between atoms: C18_38  and  O3_39 
ROOT
HETATM    1  C8  UNL     1      20.612  38.013  33.883  1.00  0.00     0.172 C 
ENDROOT
BRANCH   1   2
HETATM    2  C7  UNL     1      21.971  37.628  34.440  1.00  0.00     0.191 C 
HETATM    3  N3  UNL     1      23.016  37.745  33.473  1.00  0.00    -0.386 N 
HETATM    4  C6  UNL     1      23.866  38.865  33.548  1.00  0.00     0.089 C 
ATOM      5  H3  UNL     1      23.143  37.037  32.750  1.00  0.00     0.159 HD
HETATM    6  C5  UNL     1      23.964  39.685  32.294  1.00  0.00     0.231 C 
HETATM    7  C4  UNL     1      23.740  41.124  32.707  1.00  0.00     0.124 C 
HETATM    8  S2  UNL     1      24.441  41.522  34.300  1.00  0.00    -0.095 SA
HETATM    9  S1  UNL     1      23.070  41.913  35.816  1.00  0.00    -0.095 SA
HETATM   10  C3  UNL     1      21.371  41.506  35.464  1.00  0.00     0.120 C 
HETATM   11  C2  UNL     1      20.874  40.287  36.260  1.00  0.00     0.183 C 
HETATM   12  N9  UNL     1      21.998  39.398  36.342  1.00  0.00    -0.346 N 
HETATM   13  C19 UNL     1      22.252  38.158  35.782  1.00  0.00     0.242 C 
ATOM     14  H9  UNL     1      22.758  39.749  36.926  1.00  0.00     0.163 HD
HETATM   15  O4  UNL     1      22.840  37.333  36.590  1.00  0.00    -0.271 OA
BRANCH   6  16
HETATM   16  N2  UNL     1      22.890  39.336  31.377  1.00  0.00    -0.070 N 
ATOM     17  H23 UNL     1      22.248  38.640  31.756  1.00  0.00     0.275 HD
ATOM     18  H22 UNL     1      22.210  40.086  31.252  1.00  0.00     0.275 HD
ATOM     19  H21 UNL     1      23.328  39.044  30.504  1.00  0.00     0.275 HD
ENDBRANCH   6  16
BRANCH  11  20
HETATM   20  C1  UNL     1      20.412  40.705  37.602  1.00  0.00     0.254 C 
HETATM   21  N1  UNL     1      20.045  42.036  37.853  1.00  0.00    -0.060 NA
HETATM   22  O1  UNL     1      20.353  39.854  38.504  1.00  0.00    -0.275 OA
ENDBRANCH  11  20
ENDBRANCH   1   2
BRANCH   1  23
HETATM   23  N4  UNL     1      20.362  37.393  32.601  1.00  0.00    -0.223 N 
HETATM   24  C9  UNL     1      20.381  35.993  32.384  1.00  0.00     0.683 C 
HETATM   25  N5  UNL     1      20.687  35.514  31.242  1.00  0.00    -0.149 N 
HETATM   26  N6  UNL     1      20.060  35.049  33.401  1.00  0.00    -0.164 N 
HETATM   27  C10 UNL     1      21.030  36.244  30.092  1.00  0.00     0.314 C 
ATOM     28  H5  UNL     1      20.683  34.498  31.155  1.00  0.00     0.188 HD
HETATM   29  O2  UNL     1      22.062  36.955  30.025  1.00  0.00    -0.257 OA
HETATM   30  C16 UNL     1      18.818  34.366  33.477  1.00  0.00     0.202 C 
ATOM     31  H6  UNL     1      20.762  34.853  34.115  1.00  0.00     0.187 HD
HETATM   32  N7  UNL     1      17.641  34.962  33.003  1.00  0.00    -0.063 NA
HETATM   33  N8  UNL     1      18.776  33.182  33.987  1.00  0.00    -0.362 N 
ATOM     34  H8  UNL     1      19.650  32.777  34.320  1.00  0.00     0.162 HD
ATOM     35  H4  UNL     1      20.160  37.999  31.806  1.00  0.00     0.177 HD
BRANCH  27  36
HETATM   36  C11 UNL     1      20.217  36.232  28.887  1.00  0.00    -0.004 C 
HETATM   37  C12 UNL     1      19.554  36.207  27.878  1.00  0.00    -0.092 C 
BRANCH  37  38
HETATM   38  C13 UNL     1      18.761  36.155  26.648  1.00  0.00     0.065 A 
HETATM   39  C14 UNL     1      18.778  37.420  25.795  1.00  0.00     0.018 A 
HETATM   40  C15 UNL     1      19.533  36.234  25.331  1.00  0.00     0.018 A 
ENDBRANCH  37  38
ENDBRANCH  27  36
BRANCH  33  41
HETATM   41  C17 UNL     1      17.589  32.399  34.117  1.00  0.00     0.148 C 
BRANCH  41  42
HETATM   42  C18 UNL     1      17.178  31.710  32.829  1.00  0.00     0.183 C 
BRANCH  42  43
HETATM   43  O3  UNL     1      16.009  32.302  32.393  1.00  0.00    -0.399 OA
ATOM     44  H3  UNL     1      15.954  32.171  31.454  1.00  0.00     0.209 HD
ENDBRANCH  42  43
ENDBRANCH  41  42
ENDBRANCH  33  41
ENDBRANCH   1  23
TORSDOF 9
ENDMDL
