MODEL 1
REMARK VINA RESULT: -9.538815493      0.000      0.000
REMARK  6 active torsions:
REMARK  status: ('A' for Active; 'I' for Inactive)
REMARK    1  A    between atoms: C1_2  and  C2_4 
REMARK    2  A    between atoms: C4_7  and  C5_8 
REMARK    3  A    between atoms: C6_9  and  C7_10 
REMARK    4  A    between atoms: C9_16  and  C10_17 
REMARK    5  A    between atoms: C13_20  and  N3_21 
REMARK    6  A    between atoms: N3_21  and  C14_23 
ROOT
HETATM    1  C7  UNL     1      41.305  12.097  52.304  1.00  0.00     0.021 A 
HETATM    2  C8  UNL     1      40.514  11.078  52.858  1.00  0.00     0.121 A 
HETATM    3  N1  UNL     1      39.430  10.895  52.081  1.00  0.00    -0.310 N 
ATOM      4  H1  UNL     1      38.682  10.220  52.240  1.00  0.00     0.186 HD
HETATM    5  N2  UNL     1      39.510  11.747  51.076  1.00  0.00    -0.299 N 
ATOM      6  H2  UNL     1      38.820  11.829  50.328  1.00  0.00     0.187 HD
HETATM    7  C9  UNL     1      40.636  12.500  51.171  1.00  0.00     0.070 A 
ENDROOT
BRANCH   1   8
HETATM    8  C6  UNL     1      42.528  12.607  52.878  1.00  0.00    -0.008 A 
HETATM    9  C5  UNL     1      42.535  13.499  53.919  1.00  0.00     0.020 A 
HETATM   10  C28 UNL     1      43.740  13.926  54.476  1.00  0.00    -0.012 A 
HETATM   11  C23 UNL     1      44.957  13.447  53.975  1.00  0.00    -0.025 A 
HETATM   12  C27 UNL     1      43.794  14.828  55.506  1.00  0.00     0.013 A 
HETATM   13  C22 UNL     1      44.928  12.551  52.925  1.00  0.00     0.013 A 
HETATM   14  C24 UNL     1      46.185  13.846  54.479  1.00  0.00     0.012 A 
HETATM   15  C21 UNL     1      43.758  12.128  52.374  1.00  0.00     0.014 A 
HETATM   16  C25 UNL     1      46.234  14.752  55.515  1.00  0.00     0.001 A 
HETATM   17  C26 UNL     1      45.050  15.230  56.014  1.00  0.00     0.001 A 
BRANCH   9  18
HETATM   18  C4  UNL     1      41.251  14.035  54.360  1.00  0.00     0.086 A 
HETATM   19  S1  UNL     1      40.283  13.682  55.703  1.00  0.00    -0.081 SA
HETATM   20  C3  UNL     1      39.034  14.815  55.495  1.00  0.00     0.088 A 
HETATM   21  C2  UNL     1      39.450  15.447  54.332  1.00  0.00     0.117 A 
HETATM   22  N5  UNL     1      40.549  15.025  53.810  1.00  0.00    -0.344 N 
ATOM     23  H5  UNL     1      40.891  15.460  52.953  1.00  0.00     0.167 HD
BRANCH  21  24
HETATM   24  C1  UNL     1      38.656  16.551  53.743  1.00  0.00     0.227 C 
HETATM   25  O1  UNL     1      39.120  17.702  53.682  1.00  0.00    -0.643 OA
HETATM   26  O2  UNL     1      37.401  16.294  53.263  1.00  0.00    -0.643 OA
ENDBRANCH  21  24
ENDBRANCH   9  18
ENDBRANCH   1   8
BRANCH   7  27
HETATM   27  C10 UNL     1      41.087  13.550  50.280  1.00  0.00    -0.007 A 
HETATM   28  C11 UNL     1      41.982  13.384  49.246  1.00  0.00     0.016 A 
HETATM   29  C12 UNL     1      42.369  14.427  48.443  1.00  0.00     0.030 A 
HETATM   30  C13 UNL     1      41.860  15.716  48.651  1.00  0.00     0.032 A 
HETATM   31  C19 UNL     1      40.965  15.896  49.678  1.00  0.00     0.030 A 
HETATM   32  C20 UNL     1      40.602  14.826  50.459  1.00  0.00     0.016 A 
BRANCH  30  33
HETATM   33  N3  UNL     1      42.241  16.775  47.793  1.00  0.00    -0.355 N 
ATOM     34  H3  UNL     1      42.980  17.407  48.100  1.00  0.00     0.166 HD
BRANCH  33  35
HETATM   35  C14 UNL     1      41.655  16.996  46.549  1.00  0.00     0.048 A 
HETATM   36  C15 UNL     1      40.281  16.773  46.450  1.00  0.00     0.032 A 
HETATM   37  C16 UNL     1      39.651  16.942  45.244  1.00  0.00     0.019 A 
HETATM   38  C17 UNL     1      40.341  17.328  44.118  1.00  0.00     0.088 A 
HETATM   39  N4  UNL     1      41.663  17.541  44.216  1.00  0.00    -0.373 N 
HETATM   40  C18 UNL     1      42.293  17.379  45.391  1.00  0.00     0.117 A 
ATOM     41  H4  UNL     1      42.192  17.827  43.392  1.00  0.00     0.164 HD
ENDBRANCH  33  35
ENDBRANCH  30  33
ENDBRANCH   7  27
TORSDOF 6
ENDMDL
MODEL 2
REMARK VINA RESULT: -8.938963069      3.011      4.369
REMARK  6 active torsions:
REMARK  status: ('A' for Active; 'I' for Inactive)
REMARK    1  A    between atoms: C1_2  and  C2_4 
REMARK    2  A    between atoms: C4_7  and  C5_8 
REMARK    3  A    between atoms: C6_9  and  C7_10 
REMARK    4  A    between atoms: C9_16  and  C10_17 
REMARK    5  A    between atoms: C13_20  and  N3_21 
REMARK    6  A    between atoms: N3_21  and  C14_23 
ROOT
HETATM    1  C7  UNL     1      42.075  11.142  51.201  1.00  0.00     0.021 A 
HETATM    2  C8  UNL     1      42.373   9.772  51.273  1.00  0.00     0.121 A 
HETATM    3  N1  UNL     1      42.882   9.372  50.093  1.00  0.00    -0.310 N 
ATOM      4  H1  UNL     1      43.187   8.428  49.857  1.00  0.00     0.186 HD
HETATM    5  N2  UNL     1      42.914  10.424  49.295  1.00  0.00    -0.299 N 
ATOM      6  H2  UNL     1      43.255  10.412  48.333  1.00  0.00     0.187 HD
HETATM    7  C9  UNL     1      42.432  11.524  49.928  1.00  0.00     0.070 A 
ENDROOT
BRANCH   1   8
HETATM    8  C6  UNL     1      41.473  11.920  52.258  1.00  0.00    -0.008 A 
HETATM    9  C5  UNL     1      42.214  12.699  53.110  1.00  0.00     0.020 A 
HETATM   10  C28 UNL     1      41.587  13.475  54.084  1.00  0.00    -0.012 A 
HETATM   11  C23 UNL     1      40.190  13.466  54.201  1.00  0.00    -0.025 A 
HETATM   12  C27 UNL     1      42.288  14.255  54.966  1.00  0.00     0.013 A 
HETATM   13  C22 UNL     1      39.464  12.675  53.335  1.00  0.00     0.013 A 
HETATM   14  C24 UNL     1      39.514  14.205  55.158  1.00  0.00     0.012 A 
HETATM   15  C21 UNL     1      40.065  11.913  52.381  1.00  0.00     0.014 A 
HETATM   16  C25 UNL     1      40.223  14.988  56.042  1.00  0.00     0.001 A 
HETATM   17  C26 UNL     1      41.590  15.005  55.939  1.00  0.00     0.001 A 
BRANCH   9  18
HETATM   18  C4  UNL     1      43.668  12.620  53.008  1.00  0.00     0.086 A 
HETATM   19  S1  UNL     1      44.798  11.618  53.772  1.00  0.00    -0.081 SA
HETATM   20  C3  UNL     1      46.230  12.128  53.014  1.00  0.00     0.088 A 
HETATM   21  C2  UNL     1      45.737  13.103  52.159  1.00  0.00     0.117 A 
HETATM   22  N5  UNL     1      44.466  13.309  52.194  1.00  0.00    -0.344 N 
ATOM     23  H5  UNL     1      44.061  14.018  51.583  1.00  0.00     0.167 HD
BRANCH  21  24
HETATM   24  C1  UNL     1      46.644  13.852  51.257  1.00  0.00     0.227 C 
HETATM   25  O1  UNL     1      47.597  14.504  51.716  1.00  0.00    -0.643 OA
HETATM   26  O2  UNL     1      46.426  13.820  49.907  1.00  0.00    -0.643 OA
ENDBRANCH  21  24
ENDBRANCH   9  18
ENDBRANCH   1   8
BRANCH   7  27
HETATM   27  C10 UNL     1      42.289  12.867  49.403  1.00  0.00    -0.007 A 
HETATM   28  C11 UNL     1      41.239  13.718  49.671  1.00  0.00     0.016 A 
HETATM   29  C12 UNL     1      41.165  14.977  49.132  1.00  0.00     0.030 A 
HETATM   30  C13 UNL     1      42.171  15.448  48.278  1.00  0.00     0.032 A 
HETATM   31  C19 UNL     1      43.225  14.611  48.001  1.00  0.00     0.030 A 
HETATM   32  C20 UNL     1      43.262  13.357  48.561  1.00  0.00     0.016 A 
BRANCH  30  33
HETATM   33  N3  UNL     1      42.100  16.763  47.758  1.00  0.00    -0.355 N 
ATOM     34  H3  UNL     1      42.371  17.538  48.361  1.00  0.00     0.166 HD
BRANCH  33  35
HETATM   35  C14 UNL     1      41.678  17.048  46.461  1.00  0.00     0.048 A 
HETATM   36  C15 UNL     1      40.322  16.867  46.185  1.00  0.00     0.032 A 
HETATM   37  C16 UNL     1      39.851  17.099  44.919  1.00  0.00     0.019 A 
HETATM   38  C17 UNL     1      40.683  17.510  43.903  1.00  0.00     0.088 A 
HETATM   39  N4  UNL     1      41.987  17.682  44.172  1.00  0.00    -0.373 N 
HETATM   40  C18 UNL     1      42.463  17.458  45.408  1.00  0.00     0.117 A 
ATOM     41  H4  UNL     1      42.621  17.985  43.432  1.00  0.00     0.164 HD
ENDBRANCH  33  35
ENDBRANCH  30  33
ENDBRANCH   7  27
TORSDOF 6
ENDMDL
MODEL 3
REMARK VINA RESULT: -8.836040782      0.886      1.052
REMARK  6 active torsions:
REMARK  status: ('A' for Active; 'I' for Inactive)
REMARK    1  A    between atoms: C1_2  and  C2_4 
REMARK    2  A    between atoms: C4_7  and  C5_8 
REMARK    3  A    between atoms: C6_9  and  C7_10 
REMARK    4  A    between atoms: C9_16  and  C10_17 
REMARK    5  A    between atoms: C13_20  and  N3_21 
REMARK    6  A    between atoms: N3_21  and  C14_23 
ROOT
HETATM    1  C7  UNL     1      41.429  12.092  52.194  1.00  0.00     0.021 A 
HETATM    2  C8  UNL     1      40.616  11.090  52.749  1.00  0.00     0.121 A 
HETATM    3  N1  UNL     1      39.529  10.929  51.974  1.00  0.00    -0.310 N 
ATOM      4  H1  UNL     1      38.766  10.271  52.134  1.00  0.00     0.186 HD
HETATM    5  N2  UNL     1      39.626  11.779  50.967  1.00  0.00    -0.299 N 
ATOM      6  H2  UNL     1      38.938  11.874  50.220  1.00  0.00     0.187 HD
HETATM    7  C9  UNL     1      40.768  12.507  51.060  1.00  0.00     0.070 A 
ENDROOT
BRANCH   1   8
HETATM    8  C6  UNL     1      42.663  12.576  52.766  1.00  0.00    -0.008 A 
HETATM    9  C5  UNL     1      42.691  13.494  53.784  1.00  0.00     0.020 A 
HETATM   10  C28 UNL     1      43.903  13.895  54.342  1.00  0.00    -0.012 A 
HETATM   11  C23 UNL     1      45.109  13.363  53.865  1.00  0.00    -0.025 A 
HETATM   12  C27 UNL     1      43.979  14.822  55.349  1.00  0.00     0.013 A 
HETATM   13  C22 UNL     1      45.059  12.442  52.839  1.00  0.00     0.013 A 
HETATM   14  C24 UNL     1      46.344  13.735  54.371  1.00  0.00     0.012 A 
HETATM   15  C21 UNL     1      43.881  12.043  52.287  1.00  0.00     0.014 A 
HETATM   16  C25 UNL     1      46.414  14.665  55.383  1.00  0.00     0.001 A 
HETATM   17  C26 UNL     1      45.242  15.195  55.859  1.00  0.00     0.001 A 
BRANCH   9  18
HETATM   18  C4  UNL     1      41.421  14.083  54.198  1.00  0.00     0.086 A 
HETATM   19  S1  UNL     1      40.421  13.785  55.532  1.00  0.00    -0.081 SA
HETATM   20  C3  UNL     1      39.219  14.960  55.289  1.00  0.00     0.088 A 
HETATM   21  C2  UNL     1      39.674  15.560  54.124  1.00  0.00     0.117 A 
HETATM   22  N5  UNL     1      40.764  15.091  53.624  1.00  0.00    -0.344 N 
ATOM     23  H5  UNL     1      41.135  15.500  52.767  1.00  0.00     0.167 HD
BRANCH  21  24
HETATM   24  C1  UNL     1      38.930  16.684  53.508  1.00  0.00     0.227 C 
HETATM   25  O1  UNL     1      38.893  17.797  54.059  1.00  0.00    -0.643 OA
HETATM   26  O2  UNL     1      38.281  16.489  52.320  1.00  0.00    -0.643 OA
ENDBRANCH  21  24
ENDBRANCH   9  18
ENDBRANCH   1   8
BRANCH   7  27
HETATM   27  C10 UNL     1      41.241  13.546  50.167  1.00  0.00    -0.007 A 
HETATM   28  C11 UNL     1      42.237  13.393  49.228  1.00  0.00     0.016 A 
HETATM   29  C12 UNL     1      42.639  14.425  48.418  1.00  0.00     0.030 A 
HETATM   30  C13 UNL     1      42.041  15.688  48.520  1.00  0.00     0.032 A 
HETATM   31  C19 UNL     1      41.045  15.855  49.452  1.00  0.00     0.030 A 
HETATM   32  C20 UNL     1      40.671  14.797  50.244  1.00  0.00     0.016 A 
BRANCH  30  33
HETATM   33  N3  UNL     1      42.441  16.733  47.653  1.00  0.00    -0.355 N 
ATOM     34  H3  UNL     1      42.482  17.682  48.024  1.00  0.00     0.166 HD
BRANCH  33  35
HETATM   35  C14 UNL     1      42.780  16.528  46.318  1.00  0.00     0.048 A 
HETATM   36  C15 UNL     1      41.748  16.624  45.384  1.00  0.00     0.032 A 
HETATM   37  C16 UNL     1      42.012  16.401  44.057  1.00  0.00     0.019 A 
HETATM   38  C17 UNL     1      43.276  16.081  43.616  1.00  0.00     0.088 A 
HETATM   39  N4  UNL     1      44.265  15.988  44.518  1.00  0.00    -0.373 N 
HETATM   40  C18 UNL     1      44.022  16.204  45.821  1.00  0.00     0.117 A 
ATOM     41  H4  UNL     1      45.209  15.751  44.211  1.00  0.00     0.164 HD
ENDBRANCH  33  35
ENDBRANCH  30  33
ENDBRANCH   7  27
TORSDOF 6
ENDMDL
MODEL 4
REMARK VINA RESULT: -8.364144717      1.339      1.699
REMARK  6 active torsions:
REMARK  status: ('A' for Active; 'I' for Inactive)
REMARK    1  A    between atoms: C1_2  and  C2_4 
REMARK    2  A    between atoms: C4_7  and  C5_8 
REMARK    3  A    between atoms: C6_9  and  C7_10 
REMARK    4  A    between atoms: C9_16  and  C10_17 
REMARK    5  A    between atoms: C13_20  and  N3_21 
REMARK    6  A    between atoms: N3_21  and  C14_23 
ROOT
HETATM    1  C7  UNL     1      41.366  11.819  52.167  1.00  0.00     0.021 A 
HETATM    2  C8  UNL     1      40.349  11.029  52.728  1.00  0.00     0.121 A 
HETATM    3  N1  UNL     1      39.353  10.899  51.833  1.00  0.00    -0.310 N 
ATOM      4  H1  UNL     1      38.486  10.379  51.968  1.00  0.00     0.186 HD
HETATM    5  N2  UNL     1      39.700  11.567  50.748  1.00  0.00    -0.299 N 
ATOM      6  H2  UNL     1      39.130  11.640  49.904  1.00  0.00     0.187 HD
HETATM    7  C9  UNL     1      40.919  12.143  50.907  1.00  0.00     0.070 A 
ENDROOT
BRANCH   1   8
HETATM    8  C6  UNL     1      42.580  12.216  52.841  1.00  0.00    -0.008 A 
HETATM    9  C5  UNL     1      42.693  13.407  53.511  1.00  0.00     0.020 A 
HETATM   10  C28 UNL     1      43.867  13.727  54.190  1.00  0.00    -0.012 A 
HETATM   11  C23 UNL     1      44.945  12.832  54.195  1.00  0.00    -0.025 A 
HETATM   12  C27 UNL     1      44.029  14.913  54.859  1.00  0.00     0.013 A 
HETATM   13  C22 UNL     1      44.811  11.640  53.514  1.00  0.00     0.013 A 
HETATM   14  C24 UNL     1      46.141  13.103  54.842  1.00  0.00     0.012 A 
HETATM   15  C21 UNL     1      43.670  11.317  52.846  1.00  0.00     0.014 A 
HETATM   16  C25 UNL     1      46.298  14.295  55.513  1.00  0.00     0.001 A 
HETATM   17  C26 UNL     1      45.251  15.181  55.515  1.00  0.00     0.001 A 
BRANCH   9  18
HETATM   18  C4  UNL     1      41.578  14.345  53.415  1.00  0.00     0.086 A 
HETATM   19  S1  UNL     1      41.386  15.782  52.540  1.00  0.00    -0.081 SA
HETATM   20  C3  UNL     1      39.778  16.171  52.928  1.00  0.00     0.088 A 
HETATM   21  C2  UNL     1      39.450  15.112  53.762  1.00  0.00     0.117 A 
HETATM   22  N5  UNL     1      40.373  14.238  53.972  1.00  0.00    -0.344 N 
ATOM     23  H5  UNL     1      40.175  13.443  54.580  1.00  0.00     0.167 HD
BRANCH  21  24
HETATM   24  C1  UNL     1      38.100  15.010  54.364  1.00  0.00     0.227 C 
HETATM   25  O1  UNL     1      37.697  13.935  54.838  1.00  0.00    -0.643 OA
HETATM   26  O2  UNL     1      37.294  16.115  54.396  1.00  0.00    -0.643 OA
ENDBRANCH  21  24
ENDBRANCH   9  18
ENDBRANCH   1   8
BRANCH   7  27
HETATM   27  C10 UNL     1      41.649  12.964  49.961  1.00  0.00    -0.007 A 
HETATM   28  C11 UNL     1      42.859  12.633  49.390  1.00  0.00     0.016 A 
HETATM   29  C12 UNL     1      43.497  13.464  48.505  1.00  0.00     0.030 A 
HETATM   30  C13 UNL     1      42.933  14.695  48.146  1.00  0.00     0.032 A 
HETATM   31  C19 UNL     1      41.727  15.038  48.707  1.00  0.00     0.030 A 
HETATM   32  C20 UNL     1      41.119  14.179  49.590  1.00  0.00     0.016 A 
BRANCH  30  33
HETATM   33  N3  UNL     1      43.587  15.526  47.204  1.00  0.00    -0.355 N 
ATOM     34  H3  UNL     1      44.548  15.809  47.392  1.00  0.00     0.166 HD
BRANCH  33  35
HETATM   35  C14 UNL     1      42.979  15.975  46.034  1.00  0.00     0.048 A 
HETATM   36  C15 UNL     1      43.427  15.417  44.837  1.00  0.00     0.032 A 
HETATM   37  C16 UNL     1      42.891  15.841  43.648  1.00  0.00     0.019 A 
HETATM   38  C17 UNL     1      41.916  16.812  43.602  1.00  0.00     0.088 A 
HETATM   39  N4  UNL     1      41.489  17.348  44.756  1.00  0.00    -0.373 N 
HETATM   40  C18 UNL     1      42.004  16.942  45.928  1.00  0.00     0.117 A 
ATOM     41  H4  UNL     1      40.767  18.069  44.743  1.00  0.00     0.164 HD
ENDBRANCH  33  35
ENDBRANCH  30  33
ENDBRANCH   7  27
TORSDOF 6
ENDMDL
MODEL 5
REMARK VINA RESULT: -8.285163020      3.253      4.670
REMARK  6 active torsions:
REMARK  status: ('A' for Active; 'I' for Inactive)
REMARK    1  A    between atoms: C1_2  and  C2_4 
REMARK    2  A    between atoms: C4_7  and  C5_8 
REMARK    3  A    between atoms: C6_9  and  C7_10 
REMARK    4  A    between atoms: C9_16  and  C10_17 
REMARK    5  A    between atoms: C13_20  and  N3_21 
REMARK    6  A    between atoms: N3_21  and  C14_23 
ROOT
HETATM    1  C7  UNL     1      42.232  11.225  51.239  1.00  0.00     0.021 A 
HETATM    2  C8  UNL     1      42.598   9.873  51.332  1.00  0.00     0.121 A 
HETATM    3  N1  UNL     1      43.146   9.487  50.165  1.00  0.00    -0.310 N 
ATOM      4  H1  UNL     1      43.502   8.557  49.945  1.00  0.00     0.186 HD
HETATM    5  N2  UNL     1      43.138  10.531  49.356  1.00  0.00    -0.299 N 
ATOM      6  H2  UNL     1      43.496  10.526  48.400  1.00  0.00     0.187 HD
HETATM    7  C9  UNL     1      42.591  11.612  49.968  1.00  0.00     0.070 A 
ENDROOT
BRANCH   1   8
HETATM    8  C6  UNL     1      41.574  11.984  52.277  1.00  0.00    -0.008 A 
HETATM    9  C5  UNL     1      42.265  12.759  53.172  1.00  0.00     0.020 A 
HETATM   10  C28 UNL     1      41.586  13.515  54.125  1.00  0.00    -0.012 A 
HETATM   11  C23 UNL     1      40.186  13.490  54.179  1.00  0.00    -0.025 A 
HETATM   12  C27 UNL     1      42.237  14.291  55.049  1.00  0.00     0.013 A 
HETATM   13  C22 UNL     1      39.509  12.702  53.270  1.00  0.00     0.013 A 
HETATM   14  C24 UNL     1      39.458  14.209  55.113  1.00  0.00     0.012 A 
HETATM   15  C21 UNL     1      40.162  11.959  52.336  1.00  0.00     0.014 A 
HETATM   16  C25 UNL     1      40.117  14.988  56.037  1.00  0.00     0.001 A 
HETATM   17  C26 UNL     1      41.487  15.022  55.997  1.00  0.00     0.001 A 
BRANCH   9  18
HETATM   18  C4  UNL     1      43.724  12.697  53.135  1.00  0.00     0.086 A 
HETATM   19  S1  UNL     1      44.872  13.647  52.332  1.00  0.00    -0.081 SA
HETATM   20  C3  UNL     1      46.311  12.951  52.909  1.00  0.00     0.088 A 
HETATM   21  C2  UNL     1      45.804  11.963  53.740  1.00  0.00     0.117 A 
HETATM   22  N5  UNL     1      44.522  11.877  53.817  1.00  0.00    -0.344 N 
ATOM     23  H5  UNL     1      44.106  11.163  54.416  1.00  0.00     0.167 HD
BRANCH  21  24
HETATM   24  C1  UNL     1      46.713  11.067  54.495  1.00  0.00     0.227 C 
HETATM   25  O1  UNL     1      46.258  10.142  55.188  1.00  0.00    -0.643 OA
HETATM   26  O2  UNL     1      48.064  11.265  54.423  1.00  0.00    -0.643 OA
ENDBRANCH  21  24
ENDBRANCH   9  18
ENDBRANCH   1   8
BRANCH   7  27
HETATM   27  C10 UNL     1      42.389  12.940  49.425  1.00  0.00    -0.007 A 
HETATM   28  C11 UNL     1      41.313  13.756  49.700  1.00  0.00     0.016 A 
HETATM   29  C12 UNL     1      41.184  15.003  49.143  1.00  0.00     0.030 A 
HETATM   30  C13 UNL     1      42.156  15.496  48.263  1.00  0.00     0.032 A 
HETATM   31  C19 UNL     1      43.235  14.694  47.980  1.00  0.00     0.030 A 
HETATM   32  C20 UNL     1      43.328  13.451  48.557  1.00  0.00     0.016 A 
BRANCH  30  33
HETATM   33  N3  UNL     1      42.027  16.799  47.724  1.00  0.00    -0.355 N 
ATOM     34  H3  UNL     1      42.267  17.594  48.315  1.00  0.00     0.166 HD
BRANCH  33  35
HETATM   35  C14 UNL     1      41.588  17.047  46.426  1.00  0.00     0.048 A 
HETATM   36  C15 UNL     1      40.226  16.871  46.176  1.00  0.00     0.032 A 
HETATM   37  C16 UNL     1      39.737  17.068  44.911  1.00  0.00     0.019 A 
HETATM   38  C17 UNL     1      40.558  17.438  43.870  1.00  0.00     0.088 A 
HETATM   39  N4  UNL     1      41.868  17.605  44.113  1.00  0.00    -0.373 N 
HETATM   40  C18 UNL     1      42.361  17.415  45.348  1.00  0.00     0.117 A 
ATOM     41  H4  UNL     1      42.493  17.878  43.354  1.00  0.00     0.164 HD
ENDBRANCH  33  35
ENDBRANCH  30  33
ENDBRANCH   7  27
TORSDOF 6
ENDMDL
