MODEL 1
REMARK VINA RESULT: -10.631470767      0.000      0.000
REMARK  7 active torsions:
REMARK  status: ('A' for Active; 'I' for Inactive)
REMARK    1  A    between atoms: C1_2  and  C2_7 
REMARK    2  A    between atoms: N2_3  and  O1_5 
REMARK    3  A    between atoms: C5_10  and  C6_11 
REMARK    4  A    between atoms: C10_17  and  C11_18 
REMARK    5  A    between atoms: C12_21  and  C13_22 
REMARK    6  A    between atoms: C16_25  and  O2_26 
REMARK    7  A    between atoms: O2_26  and  C17_27 
ROOT
HETATM    1  C6  UNL     1      41.308  16.079  47.998  1.00  0.00     0.116 A 
HETATM    2  N3  UNL     1      42.094  15.110  48.480  1.00  0.00    -0.340 N 
ATOM      3  H3  UNL     1      42.800  14.615  47.937  1.00  0.00     0.167 HD
HETATM    4  C7  UNL     1      41.824  14.874  49.790  1.00  0.00     0.060 A 
HETATM    5  C8  UNL     1      42.348  13.992  50.723  1.00  0.00     0.033 A 
HETATM    6  C9  UNL     1      41.838  14.004  52.010  1.00  0.00     0.017 A 
HETATM    7  C10 UNL     1      40.835  14.881  52.330  1.00  0.00    -0.000 A 
HETATM    8  C26 UNL     1      40.329  15.738  51.414  1.00  0.00     0.046 A 
HETATM    9  C27 UNL     1      40.811  15.757  50.120  1.00  0.00     0.061 A 
HETATM   10  N5  UNL     1      40.522  16.470  49.015  1.00  0.00    -0.340 N 
ATOM     11  H5  UNL     1      39.811  17.199  48.958  1.00  0.00     0.167 HD
ENDROOT
BRANCH   7  12
HETATM   12  C11 UNL     1      40.334  14.843  53.724  1.00  0.00     0.085 A 
HETATM   13  N4  UNL     1      40.903  14.334  54.792  1.00  0.00    -0.349 N 
HETATM   14  C12 UNL     1      40.312  14.393  55.940  1.00  0.00     0.050 A 
ATOM     15  H4  UNL     1      41.819  13.891  54.715  1.00  0.00     0.166 HD
HETATM   16  C25 UNL     1      39.075  15.007  55.978  1.00  0.00     0.082 A 
HETATM   17  S1  UNL     1      38.859  15.455  54.347  1.00  0.00    -0.081 SA
BRANCH  14  18
HETATM   18  C13 UNL     1      40.893  13.842  57.180  1.00  0.00    -0.009 A 
HETATM   19  C14 UNL     1      40.110  13.059  57.979  1.00  0.00     0.016 A 
HETATM   20  C15 UNL     1      40.607  12.513  59.162  1.00  0.00     0.038 A 
HETATM   21  C16 UNL     1      41.918  12.762  59.543  1.00  0.00     0.076 A 
HETATM   22  C23 UNL     1      42.703  13.545  58.746  1.00  0.00     0.038 A 
HETATM   23  C24 UNL     1      42.179  14.082  57.563  1.00  0.00     0.016 A 
BRANCH  21  24
HETATM   24  O2  UNL     1      42.410  12.219  60.719  1.00  0.00    -0.311 OA
BRANCH  24  25
HETATM   25  C17 UNL     1      41.757  11.153  61.296  1.00  0.00     0.076 A 
HETATM   26  C18 UNL     1      40.879  11.376  62.327  1.00  0.00     0.037 A 
HETATM   27  C19 UNL     1      40.195  10.342  62.944  1.00  0.00     0.003 A 
HETATM   28  C20 UNL     1      40.403   9.053  62.510  1.00  0.00     0.000 A 
HETATM   29  C21 UNL     1      41.290   8.821  61.467  1.00  0.00     0.003 A 
HETATM   30  C22 UNL     1      41.963   9.868  60.865  1.00  0.00     0.037 A 
ENDBRANCH  24  25
ENDBRANCH  21  24
ENDBRANCH  14  18
ENDBRANCH   7  12
BRANCH   1  31
HETATM   31  C5  UNL     1      41.275  16.637  46.636  1.00  0.00     0.008 A 
HETATM   32  C4  UNL     1      40.084  16.738  45.952  1.00  0.00     0.016 A 
HETATM   33  C3  UNL     1      40.044  17.259  44.679  1.00  0.00     0.016 A 
HETATM   34  C2  UNL     1      41.172  17.692  44.045  1.00  0.00     0.007 A 
HETATM   35  C29 UNL     1      42.370  17.589  44.736  1.00  0.00     0.016 A 
HETATM   36  C28 UNL     1      42.423  17.069  46.012  1.00  0.00     0.016 A 
BRANCH  34  37
HETATM   37  C1  UNL     1      41.092  18.235  42.704  1.00  0.00     0.146 C 
HETATM   38  N1  UNL     1      39.947  18.952  42.293  1.00  0.00    -0.080 NA
HETATM   39  N2  UNL     1      42.063  18.062  41.887  1.00  0.00    -0.255 N 
ATOM     40  H2  UNL     1      42.889  17.543  42.184  1.00  0.00     0.195 HD
BRANCH  39  41
HETATM   41  O1  UNL     1      42.000  18.566  40.627  1.00  0.00    -0.288 OA
ATOM     42  H1  UNL     1      42.659  18.335  39.983  1.00  0.00     0.244 HD
ENDBRANCH  39  41
ENDBRANCH  34  37
ENDBRANCH   1  31
TORSDOF 7
ENDMDL
MODEL 2
REMARK VINA RESULT: -10.620779341      0.439      1.039
REMARK  7 active torsions:
REMARK  status: ('A' for Active; 'I' for Inactive)
REMARK    1  A    between atoms: C1_2  and  C2_7 
REMARK    2  A    between atoms: N2_3  and  O1_5 
REMARK    3  A    between atoms: C5_10  and  C6_11 
REMARK    4  A    between atoms: C10_17  and  C11_18 
REMARK    5  A    between atoms: C12_21  and  C13_22 
REMARK    6  A    between atoms: C16_25  and  O2_26 
REMARK    7  A    between atoms: O2_26  and  C17_27 
ROOT
HETATM    1  C6  UNL     1      41.406  16.122  47.853  1.00  0.00     0.116 A 
HETATM    2  N3  UNL     1      42.157  15.132  48.347  1.00  0.00    -0.340 N 
ATOM      3  H3  UNL     1      42.864  14.623  47.816  1.00  0.00     0.167 HD
HETATM    4  C7  UNL     1      41.851  14.893  49.649  1.00  0.00     0.060 A 
HETATM    5  C8  UNL     1      42.332  13.993  50.586  1.00  0.00     0.033 A 
HETATM    6  C9  UNL     1      41.793  14.009  51.861  1.00  0.00     0.017 A 
HETATM    7  C10 UNL     1      40.804  14.907  52.165  1.00  0.00    -0.000 A 
HETATM    8  C26 UNL     1      40.340  15.782  51.243  1.00  0.00     0.046 A 
HETATM    9  C27 UNL     1      40.852  15.798  49.962  1.00  0.00     0.061 A 
HETATM   10  N5  UNL     1      40.606  16.525  48.855  1.00  0.00    -0.340 N 
ATOM     11  H5  UNL     1      39.914  17.272  48.787  1.00  0.00     0.167 HD
ENDROOT
BRANCH   7  12
HETATM   12  C11 UNL     1      40.270  14.871  53.546  1.00  0.00     0.085 A 
HETATM   13  N4  UNL     1      40.849  14.445  54.644  1.00  0.00    -0.349 N 
HETATM   14  C12 UNL     1      40.224  14.490  55.775  1.00  0.00     0.050 A 
ATOM     15  H4  UNL     1      41.799  14.076  54.605  1.00  0.00     0.166 HD
HETATM   16  C25 UNL     1      38.941  15.002  55.762  1.00  0.00     0.082 A 
HETATM   17  S1  UNL     1      38.733  15.379  54.113  1.00  0.00    -0.081 SA
BRANCH  14  18
HETATM   18  C13 UNL     1      40.814  14.029  57.046  1.00  0.00    -0.009 A 
HETATM   19  C14 UNL     1      40.099  13.162  57.824  1.00  0.00     0.016 A 
HETATM   20  C15 UNL     1      40.608  12.693  59.034  1.00  0.00     0.038 A 
HETATM   21  C16 UNL     1      41.860  13.108  59.467  1.00  0.00     0.076 A 
HETATM   22  C23 UNL     1      42.577  13.974  58.692  1.00  0.00     0.038 A 
HETATM   23  C24 UNL     1      42.043  14.430  57.480  1.00  0.00     0.016 A 
BRANCH  21  24
HETATM   24  O2  UNL     1      42.364  12.641  60.670  1.00  0.00    -0.311 OA
BRANCH  24  25
HETATM   25  C17 UNL     1      41.795  11.533  61.257  1.00  0.00     0.076 A 
HETATM   26  C18 UNL     1      42.180  10.280  60.853  1.00  0.00     0.037 A 
HETATM   27  C19 UNL     1      41.640   9.132  61.409  1.00  0.00     0.003 A 
HETATM   28  C20 UNL     1      40.691   9.253  62.397  1.00  0.00     0.000 A 
HETATM   29  C21 UNL     1      40.298  10.519  62.811  1.00  0.00     0.003 A 
HETATM   30  C22 UNL     1      40.849  11.652  62.242  1.00  0.00     0.037 A 
ENDBRANCH  24  25
ENDBRANCH  21  24
ENDBRANCH  14  18
ENDBRANCH   7  12
BRANCH   1  31
HETATM   31  C5  UNL     1      41.418  16.691  46.495  1.00  0.00     0.008 A 
HETATM   32  C4  UNL     1      40.247  16.816  45.781  1.00  0.00     0.016 A 
HETATM   33  C3  UNL     1      40.248  17.346  44.511  1.00  0.00     0.016 A 
HETATM   34  C2  UNL     1      41.400  17.765  43.910  1.00  0.00     0.007 A 
HETATM   35  C29 UNL     1      42.577  17.637  44.632  1.00  0.00     0.016 A 
HETATM   36  C28 UNL     1      42.589  17.108  45.905  1.00  0.00     0.016 A 
BRANCH  34  37
HETATM   37  C1  UNL     1      41.364  18.319  42.572  1.00  0.00     0.146 C 
HETATM   38  N1  UNL     1      42.258  17.851  41.583  1.00  0.00    -0.080 NA
HETATM   39  N2  UNL     1      40.519  19.238  42.284  1.00  0.00    -0.255 N 
ATOM     40  H2  UNL     1      39.875  19.576  42.999  1.00  0.00     0.195 HD
BRANCH  39  41
HETATM   41  O1  UNL     1      40.477  19.765  41.033  1.00  0.00    -0.288 OA
ATOM     42  H1  UNL     1      40.995  20.530  40.816  1.00  0.00     0.244 HD
ENDBRANCH  39  41
ENDBRANCH  34  37
ENDBRANCH   1  31
TORSDOF 7
ENDMDL
MODEL 3
REMARK VINA RESULT: -10.538659345      2.575     14.680
REMARK  7 active torsions:
REMARK  status: ('A' for Active; 'I' for Inactive)
REMARK    1  A    between atoms: C1_2  and  C2_7 
REMARK    2  A    between atoms: N2_3  and  O1_5 
REMARK    3  A    between atoms: C5_10  and  C6_11 
REMARK    4  A    between atoms: C10_17  and  C11_18 
REMARK    5  A    between atoms: C12_21  and  C13_22 
REMARK    6  A    between atoms: C16_25  and  O2_26 
REMARK    7  A    between atoms: O2_26  and  C17_27 
ROOT
HETATM    1  C6  UNL     1      41.074  14.184  55.947  1.00  0.00     0.116 A 
HETATM    2  N3  UNL     1      40.187  15.047  55.443  1.00  0.00    -0.340 N 
ATOM      3  H3  UNL     1      39.461  15.514  55.986  1.00  0.00     0.167 HD
HETATM    4  C7  UNL     1      40.381  15.220  54.109  1.00  0.00     0.060 A 
HETATM    5  C8  UNL     1      39.743  15.989  53.150  1.00  0.00     0.033 A 
HETATM    6  C9  UNL     1      40.199  15.937  51.844  1.00  0.00     0.017 A 
HETATM    7  C10 UNL     1      41.263  15.132  51.532  1.00  0.00    -0.000 A 
HETATM    8  C26 UNL     1      41.880  14.383  52.475  1.00  0.00     0.046 A 
HETATM    9  C27 UNL     1      41.454  14.408  53.788  1.00  0.00     0.061 A 
HETATM   10  N5  UNL     1      41.850  13.796  54.921  1.00  0.00    -0.340 N 
ATOM     11  H5  UNL     1      42.624  13.135  54.989  1.00  0.00     0.167 HD
ENDROOT
BRANCH   7  12
HETATM   12  C11 UNL     1      41.701  15.121  50.117  1.00  0.00     0.085 A 
HETATM   13  N4  UNL     1      41.212  15.787  49.096  1.00  0.00    -0.349 N 
HETATM   14  C12 UNL     1      41.728  15.652  47.919  1.00  0.00     0.050 A 
ATOM     15  H4  UNL     1      40.420  16.415  49.234  1.00  0.00     0.166 HD
HETATM   16  C25 UNL     1      42.798  14.787  47.798  1.00  0.00     0.082 A 
HETATM   17  S1  UNL     1      42.980  14.233  49.400  1.00  0.00    -0.081 SA
BRANCH  14  18
HETATM   18  C13 UNL     1      41.229  16.368  46.729  1.00  0.00    -0.009 A 
HETATM   19  C14 UNL     1      39.884  16.382  46.489  1.00  0.00     0.016 A 
HETATM   20  C15 UNL     1      39.357  17.043  45.380  1.00  0.00     0.038 A 
HETATM   21  C16 UNL     1      40.203  17.701  44.499  1.00  0.00     0.076 A 
HETATM   22  C23 UNL     1      41.548  17.690  44.736  1.00  0.00     0.038 A 
HETATM   23  C24 UNL     1      42.052  17.018  45.857  1.00  0.00     0.016 A 
BRANCH  21  24
HETATM   24  O2  UNL     1      39.678  18.358  43.398  1.00  0.00    -0.311 OA
BRANCH  24  25
HETATM   25  C17 UNL     1      40.481  18.593  42.304  1.00  0.00     0.076 A 
HETATM   26  C18 UNL     1      41.344  17.615  41.876  1.00  0.00     0.037 A 
HETATM   27  C19 UNL     1      42.174  17.798  40.783  1.00  0.00     0.003 A 
HETATM   28  C20 UNL     1      42.131  18.995  40.106  1.00  0.00     0.000 A 
HETATM   29  C21 UNL     1      41.260  19.988  40.534  1.00  0.00     0.003 A 
HETATM   30  C22 UNL     1      40.440  19.785  41.628  1.00  0.00     0.037 A 
ENDBRANCH  24  25
ENDBRANCH  21  24
ENDBRANCH  14  18
ENDBRANCH   7  12
BRANCH   1  31
HETATM   31  C5  UNL     1      41.213  13.721  57.338  1.00  0.00     0.008 A 
HETATM   32  C4  UNL     1      42.327  14.053  58.076  1.00  0.00     0.016 A 
HETATM   33  C3  UNL     1      42.466  13.625  59.376  1.00  0.00     0.016 A 
HETATM   34  C2  UNL     1      41.513  12.861  59.985  1.00  0.00     0.007 A 
HETATM   35  C29 UNL     1      40.392  12.528  59.239  1.00  0.00     0.016 A 
HETATM   36  C28 UNL     1      40.242  12.951  57.935  1.00  0.00     0.016 A 
BRANCH  34  37
HETATM   37  C1  UNL     1      41.691  12.428  61.356  1.00  0.00     0.146 C 
HETATM   38  N1  UNL     1      41.364  13.294  62.424  1.00  0.00    -0.080 NA
HETATM   39  N2  UNL     1      42.150  11.258  61.601  1.00  0.00    -0.255 N 
ATOM     40  H2  UNL     1      42.387  10.634  60.830  1.00  0.00     0.195 HD
BRANCH  39  41
HETATM   41  O1  UNL     1      42.322  10.842  62.883  1.00  0.00    -0.288 OA
ATOM     42  H1  UNL     1      41.920  10.035  63.185  1.00  0.00     0.244 HD
ENDBRANCH  39  41
ENDBRANCH  34  37
ENDBRANCH   1  31
TORSDOF 7
ENDMDL
MODEL 4
REMARK VINA RESULT: -10.538206828      0.363      1.007
REMARK  7 active torsions:
REMARK  status: ('A' for Active; 'I' for Inactive)
REMARK    1  A    between atoms: C1_2  and  C2_7 
REMARK    2  A    between atoms: N2_3  and  O1_5 
REMARK    3  A    between atoms: C5_10  and  C6_11 
REMARK    4  A    between atoms: C10_17  and  C11_18 
REMARK    5  A    between atoms: C12_21  and  C13_22 
REMARK    6  A    between atoms: C16_25  and  O2_26 
REMARK    7  A    between atoms: O2_26  and  C17_27 
ROOT
HETATM    1  C6  UNL     1      41.412  16.079  47.922  1.00  0.00     0.116 A 
HETATM    2  N3  UNL     1      42.163  15.083  48.405  1.00  0.00    -0.340 N 
ATOM      3  H3  UNL     1      42.858  14.569  47.864  1.00  0.00     0.167 HD
HETATM    4  C7  UNL     1      41.876  14.848  49.711  1.00  0.00     0.060 A 
HETATM    5  C8  UNL     1      42.364  13.945  50.642  1.00  0.00     0.033 A 
HETATM    6  C9  UNL     1      41.844  13.965  51.925  1.00  0.00     0.017 A 
HETATM    7  C10 UNL     1      40.866  14.870  52.243  1.00  0.00    -0.000 A 
HETATM    8  C26 UNL     1      40.395  15.748  51.328  1.00  0.00     0.046 A 
HETATM    9  C27 UNL     1      40.888  15.760  50.039  1.00  0.00     0.061 A 
HETATM   10  N5  UNL     1      40.630  16.488  48.935  1.00  0.00    -0.340 N 
ATOM     11  H5  UNL     1      39.943  17.239  48.877  1.00  0.00     0.167 HD
ENDROOT
BRANCH   7  12
HETATM   12  C11 UNL     1      40.353  14.839  53.632  1.00  0.00     0.085 A 
HETATM   13  N4  UNL     1      40.921  14.354  54.712  1.00  0.00    -0.349 N 
HETATM   14  C12 UNL     1      40.317  14.415  55.854  1.00  0.00     0.050 A 
ATOM     15  H4  UNL     1      41.845  13.927  54.649  1.00  0.00     0.166 HD
HETATM   16  C25 UNL     1      39.069  15.007  55.873  1.00  0.00     0.082 A 
HETATM   17  S1  UNL     1      38.860  15.432  54.235  1.00  0.00    -0.081 SA
BRANCH  14  18
HETATM   18  C13 UNL     1      40.897  13.891  57.105  1.00  0.00    -0.009 A 
HETATM   19  C14 UNL     1      40.117  13.110  57.911  1.00  0.00     0.016 A 
HETATM   20  C15 UNL     1      40.613  12.588  59.105  1.00  0.00     0.038 A 
HETATM   21  C16 UNL     1      41.918  12.858  59.491  1.00  0.00     0.076 A 
HETATM   22  C23 UNL     1      42.700  13.638  58.688  1.00  0.00     0.038 A 
HETATM   23  C24 UNL     1      42.178  14.151  57.493  1.00  0.00     0.016 A 
BRANCH  21  24
HETATM   24  O2  UNL     1      42.409  12.338  60.678  1.00  0.00    -0.311 OA
BRANCH  24  25
HETATM   25  C17 UNL     1      41.788  11.248  61.246  1.00  0.00     0.076 A 
HETATM   26  C18 UNL     1      40.947  11.431  62.315  1.00  0.00     0.037 A 
HETATM   27  C19 UNL     1      40.297  10.371  62.925  1.00  0.00     0.003 A 
HETATM   28  C20 UNL     1      40.501   9.098  62.444  1.00  0.00     0.000 A 
HETATM   29  C21 UNL     1      41.350   8.907  61.363  1.00  0.00     0.003 A 
HETATM   30  C22 UNL     1      41.990   9.979  60.769  1.00  0.00     0.037 A 
ENDBRANCH  24  25
ENDBRANCH  21  24
ENDBRANCH  14  18
ENDBRANCH   7  12
BRANCH   1  31
HETATM   31  C5  UNL     1      41.408  16.646  46.564  1.00  0.00     0.008 A 
HETATM   32  C4  UNL     1      42.586  17.036  45.966  1.00  0.00     0.016 A 
HETATM   33  C3  UNL     1      42.592  17.567  44.697  1.00  0.00     0.016 A 
HETATM   34  C2  UNL     1      41.440  17.730  43.983  1.00  0.00     0.007 A 
HETATM   35  C29 UNL     1      40.255  17.336  44.587  1.00  0.00     0.016 A 
HETATM   36  C28 UNL     1      40.237  16.803  45.858  1.00  0.00     0.016 A 
BRANCH  34  37
HETATM   37  C1  UNL     1      41.484  18.292  42.648  1.00  0.00     0.146 C 
HETATM   38  N1  UNL     1      42.429  17.824  41.709  1.00  0.00    -0.080 NA
HETATM   39  N2  UNL     1      40.662  19.219  42.320  1.00  0.00    -0.255 N 
ATOM     40  H2  UNL     1      39.981  19.557  42.999  1.00  0.00     0.195 HD
BRANCH  39  41
HETATM   41  O1  UNL     1      40.694  19.755  41.072  1.00  0.00    -0.288 OA
ATOM     42  H1  UNL     1      40.656  19.193  40.306  1.00  0.00     0.244 HD
ENDBRANCH  39  41
ENDBRANCH  34  37
ENDBRANCH   1  31
TORSDOF 7
ENDMDL
MODEL 5
REMARK VINA RESULT: -10.331950919      1.703      2.584
REMARK  7 active torsions:
REMARK  status: ('A' for Active; 'I' for Inactive)
REMARK    1  A    between atoms: C1_2  and  C2_7 
REMARK    2  A    between atoms: N2_3  and  O1_5 
REMARK    3  A    between atoms: C5_10  and  C6_11 
REMARK    4  A    between atoms: C10_17  and  C11_18 
REMARK    5  A    between atoms: C12_21  and  C13_22 
REMARK    6  A    between atoms: C16_25  and  O2_26 
REMARK    7  A    between atoms: O2_26  and  C17_27 
ROOT
HETATM    1  C6  UNL     1      40.950  16.063  49.817  1.00  0.00     0.116 A 
HETATM    2  N3  UNL     1      39.922  16.272  50.647  1.00  0.00    -0.340 N 
ATOM      3  H3  UNL     1      39.017  16.645  50.363  1.00  0.00     0.167 HD
HETATM    4  C7  UNL     1      40.247  15.922  51.919  1.00  0.00     0.060 A 
HETATM    5  C8  UNL     1      39.550  15.947  53.117  1.00  0.00     0.033 A 
HETATM    6  C9  UNL     1      40.187  15.510  54.266  1.00  0.00     0.017 A 
HETATM    7  C10 UNL     1      41.481  15.066  54.194  1.00  0.00    -0.000 A 
HETATM    8  C26 UNL     1      42.154  15.046  53.020  1.00  0.00     0.046 A 
HETATM    9  C27 UNL     1      41.554  15.473  51.853  1.00  0.00     0.061 A 
HETATM   10  N5  UNL     1      41.949  15.571  50.569  1.00  0.00    -0.340 N 
ATOM     11  H5  UNL     1      42.871  15.311  50.219  1.00  0.00     0.167 HD
ENDROOT
BRANCH   7  12
HETATM   12  C11 UNL     1      42.103  14.613  55.459  1.00  0.00     0.085 A 
HETATM   13  N4  UNL     1      41.525  14.162  56.548  1.00  0.00    -0.349 N 
HETATM   14  C12 UNL     1      42.236  13.808  57.568  1.00  0.00     0.050 A 
ATOM     15  H4  UNL     1      40.509  14.091  56.589  1.00  0.00     0.166 HD
HETATM   16  C25 UNL     1      43.607  13.927  57.450  1.00  0.00     0.082 A 
HETATM   17  S1  UNL     1      43.767  14.545  55.868  1.00  0.00    -0.081 SA
BRANCH  14  18
HETATM   18  C13 UNL     1      41.653  13.293  58.823  1.00  0.00    -0.009 A 
HETATM   19  C14 UNL     1      42.147  13.753  60.011  1.00  0.00     0.016 A 
HETATM   20  C15 UNL     1      41.634  13.301  61.226  1.00  0.00     0.038 A 
HETATM   21  C16 UNL     1      40.605  12.370  61.242  1.00  0.00     0.076 A 
HETATM   22  C23 UNL     1      40.109  11.909  60.055  1.00  0.00     0.038 A 
HETATM   23  C24 UNL     1      40.642  12.379  58.848  1.00  0.00     0.016 A 
BRANCH  21  24
HETATM   24  O2  UNL     1      40.096  11.923  62.450  1.00  0.00    -0.311 OA
BRANCH  24  25
HETATM   25  C17 UNL     1      40.392  10.649  62.878  1.00  0.00     0.076 A 
HETATM   26  C18 UNL     1      39.464   9.948  63.608  1.00  0.00     0.037 A 
HETATM   27  C19 UNL     1      39.709   8.663  64.064  1.00  0.00     0.003 A 
HETATM   28  C20 UNL     1      40.918   8.073  63.775  1.00  0.00     0.000 A 
HETATM   29  C21 UNL     1      41.860   8.776  63.036  1.00  0.00     0.003 A 
HETATM   30  C22 UNL     1      41.595  10.058  62.591  1.00  0.00     0.037 A 
ENDBRANCH  24  25
ENDBRANCH  21  24
ENDBRANCH  14  18
ENDBRANCH   7  12
BRANCH   1  31
HETATM   31  C5  UNL     1      41.019  16.306  48.367  1.00  0.00     0.008 A 
HETATM   32  C4  UNL     1      39.954  16.874  47.703  1.00  0.00     0.016 A 
HETATM   33  C3  UNL     1      40.009  17.105  46.348  1.00  0.00     0.016 A 
HETATM   34  C2  UNL     1      41.112  16.784  45.610  1.00  0.00     0.007 A 
HETATM   35  C29 UNL     1      42.182  16.212  46.281  1.00  0.00     0.016 A 
HETATM   36  C28 UNL     1      42.138  15.975  47.639  1.00  0.00     0.016 A 
BRANCH  34  37
HETATM   37  C1  UNL     1      41.135  17.041  44.184  1.00  0.00     0.146 C 
HETATM   38  N1  UNL     1      40.182  17.906  43.601  1.00  0.00    -0.080 NA
HETATM   39  N2  UNL     1      42.023  16.482  43.450  1.00  0.00    -0.255 N 
ATOM     40  H2  UNL     1      42.710  15.857  43.872  1.00  0.00     0.195 HD
BRANCH  39  41
HETATM   41  O1  UNL     1      42.055  16.716  42.112  1.00  0.00    -0.288 OA
ATOM     42  H1  UNL     1      42.782  16.403  41.586  1.00  0.00     0.244 HD
ENDBRANCH  39  41
ENDBRANCH  34  37
ENDBRANCH   1  31
TORSDOF 7
ENDMDL
