MODEL 1
REMARK VINA RESULT: -10.168647266      0.000      0.000
REMARK  6 active torsions:
REMARK  status: ('A' for Active; 'I' for Inactive)
REMARK       I    between atoms: C1_2  and  N1_3 
REMARK       I    between atoms: C1_2  and  N2_10 
REMARK    1  A    between atoms: N1_3  and  C2_4 
REMARK    2  A    between atoms: N2_10  and  C8_12 
REMARK    3  A    between atoms: C11_15  and  O2_16 
REMARK    4  A    between atoms: O2_16  and  C12_17 
REMARK    5  A    between atoms: C13_20  and  O3_21 
REMARK    6  A    between atoms: O3_21  and  C14_22 
ROOT
HETATM    1  C12 UNL     1      41.691  14.398  49.139  1.00  0.00     0.163 A 
HETATM    2  N3  UNL     1      41.825  15.584  48.463  1.00  0.00    -0.301 N 
ATOM      3  H3  UNL     1      41.175  16.345  48.664  1.00  0.00     0.171 HD
HETATM    4  C13 UNL     1      42.785  15.774  47.545  1.00  0.00     0.231 A 
HETATM    5  N6  UNL     1      43.670  14.779  47.257  1.00  0.00    -0.321 N 
ATOM      6  H6  UNL     1      44.395  14.937  46.558  1.00  0.00     0.169 HD
HETATM    7  C21 UNL     1      43.598  13.584  47.888  1.00  0.00     0.049 A 
HETATM    8  C22 UNL     1      44.474  12.556  47.607  1.00  0.00     0.030 A 
HETATM    9  C23 UNL     1      44.390  11.351  48.232  1.00  0.00     0.002 A 
HETATM   10  C24 UNL     1      43.384  11.176  49.179  1.00  0.00     0.001 A 
HETATM   11  C25 UNL     1      42.492  12.178  49.488  1.00  0.00     0.018 A 
HETATM   12  C26 UNL     1      42.612  13.401  48.823  1.00  0.00     0.042 A 
ENDROOT
BRANCH   1  13
HETATM   13  O2  UNL     1      40.758  14.156  50.042  1.00  0.00    -0.293 OA
BRANCH  13  14
HETATM   14  C11 UNL     1      40.695  14.185  51.391  1.00  0.00     0.078 A 
HETATM   15  C10 UNL     1      40.187  13.068  52.077  1.00  0.00     0.039 A 
HETATM   16  C9  UNL     1      40.095  13.052  53.422  1.00  0.00     0.032 A 
HETATM   17  C8  UNL     1      40.490  14.131  54.237  1.00  0.00     0.037 A 
HETATM   18  C28 UNL     1      40.988  15.221  53.583  1.00  0.00     0.032 A 
HETATM   19  C27 UNL     1      41.079  15.224  52.211  1.00  0.00     0.039 A 
BRANCH  17  20
HETATM   20  N2  UNL     1      40.279  14.012  55.623  1.00  0.00    -0.297 N 
HETATM   21  C1  UNL     1      41.381  13.520  56.463  1.00  0.00     0.398 C 
HETATM   22  O1  UNL     1      42.423  13.221  55.787  1.00  0.00    -0.230 OA
HETATM   23  N1  UNL     1      41.261  13.425  57.798  1.00  0.00    -0.352 NA
ATOM     24  H2  UNL     1      39.380  14.261  56.036  1.00  0.00     0.172 HD
BRANCH  23  25
HETATM   25  C2  UNL     1      41.142  13.328  59.155  1.00  0.00     0.112 A 
HETATM   26  C3  UNL     1      40.175  12.410  59.644  1.00  0.00     0.045 A 
HETATM   27  C4  UNL     1      39.973  12.194  60.972  1.00  0.00     0.003 A 
HETATM   28  C5  UNL     1      40.732  12.887  61.865  1.00  0.00     0.000 A 
HETATM   29  C6  UNL     1      41.689  13.792  61.492  1.00  0.00     0.003 A 
HETATM   30  C7  UNL     1      41.859  13.981  60.133  1.00  0.00     0.045 A 
ENDBRANCH  23  25
ENDBRANCH  17  20
ENDBRANCH  13  14
ENDBRANCH   1  13
BRANCH   4  31
HETATM   31  O3  UNL     1      42.905  16.990  46.864  1.00  0.00    -0.279 OA
BRANCH  31  32
HETATM   32  C14 UNL     1      42.330  17.126  45.599  1.00  0.00     0.081 A 
HETATM   33  C15 UNL     1      40.969  17.195  45.456  1.00  0.00     0.040 A 
HETATM   34  C16 UNL     1      40.361  17.332  44.211  1.00  0.00     0.035 A 
HETATM   35  C17 UNL     1      41.127  17.404  43.065  1.00  0.00     0.060 A 
HETATM   36  N4  UNL     1      40.836  17.536  41.752  1.00  0.00    -0.351 N 
HETATM   37  C19 UNL     1      42.499  17.336  43.191  1.00  0.00     0.062 A 
HETATM   38  C18 UNL     1      41.982  17.553  41.047  1.00  0.00     0.181 A 
ATOM     39  H4  UNL     1      39.898  17.612  41.358  1.00  0.00     0.166 HD
HETATM   40  N5  UNL     1      42.981  17.430  41.941  1.00  0.00    -0.350 N 
ATOM     41  H5  UNL     1      43.972  17.410  41.700  1.00  0.00     0.166 HD
HETATM   42  C20 UNL     1      43.095  17.198  44.448  1.00  0.00     0.069 A 
ENDBRANCH  31  32
ENDBRANCH   4  31
TORSDOF 6
ENDMDL
MODEL 2
REMARK VINA RESULT: -9.737887911      1.059      1.564
REMARK  6 active torsions:
REMARK  status: ('A' for Active; 'I' for Inactive)
REMARK       I    between atoms: C1_2  and  N1_3 
REMARK       I    between atoms: C1_2  and  N2_10 
REMARK    1  A    between atoms: N1_3  and  C2_4 
REMARK    2  A    between atoms: N2_10  and  C8_12 
REMARK    3  A    between atoms: C11_15  and  O2_16 
REMARK    4  A    between atoms: O2_16  and  C12_17 
REMARK    5  A    between atoms: C13_20  and  O3_21 
REMARK    6  A    between atoms: O3_21  and  C14_22 
ROOT
HETATM    1  C12 UNL     1      42.283  14.696  48.386  1.00  0.00     0.163 A 
HETATM    2  N3  UNL     1      42.425  15.797  47.579  1.00  0.00    -0.301 N 
ATOM      3  H3  UNL     1      41.669  16.481  47.537  1.00  0.00     0.171 HD
HETATM    4  C13 UNL     1      43.529  16.002  46.844  1.00  0.00     0.231 A 
HETATM    5  N6  UNL     1      44.557  15.109  46.883  1.00  0.00    -0.321 N 
ATOM      6  H6  UNL     1      45.391  15.276  46.320  1.00  0.00     0.169 HD
HETATM    7  C21 UNL     1      44.486  14.002  47.658  1.00  0.00     0.049 A 
HETATM    8  C22 UNL     1      45.508  13.077  47.706  1.00  0.00     0.030 A 
HETATM    9  C23 UNL     1      45.428  11.959  48.476  1.00  0.00     0.002 A 
HETATM   10  C24 UNL     1      44.271  11.766  49.228  1.00  0.00     0.001 A 
HETATM   11  C25 UNL     1      43.231  12.667  49.208  1.00  0.00     0.018 A 
HETATM   12  C26 UNL     1      43.353  13.803  48.404  1.00  0.00     0.042 A 
ENDROOT
BRANCH   1  13
HETATM   13  O2  UNL     1      41.214  14.443  49.120  1.00  0.00    -0.293 OA
BRANCH  13  14
HETATM   14  C11 UNL     1      40.955  14.357  50.442  1.00  0.00     0.078 A 
HETATM   15  C10 UNL     1      41.475  15.333  51.308  1.00  0.00     0.039 A 
HETATM   16  C9  UNL     1      41.253  15.286  52.637  1.00  0.00     0.032 A 
HETATM   17  C8  UNL     1      40.497  14.272  53.257  1.00  0.00     0.037 A 
HETATM   18  C28 UNL     1      39.983  13.318  52.428  1.00  0.00     0.032 A 
HETATM   19  C27 UNL     1      40.215  13.380  51.073  1.00  0.00     0.039 A 
BRANCH  17  20
HETATM   20  N2  UNL     1      40.396  14.302  54.661  1.00  0.00    -0.297 N 
HETATM   21  C1  UNL     1      41.346  13.506  55.453  1.00  0.00     0.398 C 
HETATM   22  O1  UNL     1      42.156  12.835  54.727  1.00  0.00    -0.230 OA
HETATM   23  N1  UNL     1      41.333  13.526  56.796  1.00  0.00    -0.352 NA
ATOM     24  H2  UNL     1      39.679  14.864  55.119  1.00  0.00     0.172 HD
BRANCH  23  25
HETATM   25  C2  UNL     1      41.324  13.545  58.161  1.00  0.00     0.112 A 
HETATM   26  C3  UNL     1      40.348  12.734  58.801  1.00  0.00     0.045 A 
HETATM   27  C4  UNL     1      40.246  12.637  60.154  1.00  0.00     0.003 A 
HETATM   28  C5  UNL     1      41.117  13.347  60.923  1.00  0.00     0.000 A 
HETATM   29  C6  UNL     1      42.091  14.155  60.401  1.00  0.00     0.003 A 
HETATM   30  C7  UNL     1      42.157  14.224  59.022  1.00  0.00     0.045 A 
ENDBRANCH  23  25
ENDBRANCH  17  20
ENDBRANCH  13  14
ENDBRANCH   1  13
BRANCH   4  31
HETATM   31  O3  UNL     1      43.655  17.129  46.026  1.00  0.00    -0.279 OA
BRANCH  31  32
HETATM   32  C14 UNL     1      43.062  17.127  44.762  1.00  0.00     0.081 A 
HETATM   33  C15 UNL     1      43.434  16.205  43.819  1.00  0.00     0.040 A 
HETATM   34  C16 UNL     1      42.865  16.174  42.549  1.00  0.00     0.035 A 
HETATM   35  C17 UNL     1      41.892  17.088  42.198  1.00  0.00     0.060 A 
HETATM   36  N4  UNL     1      41.171  17.302  41.075  1.00  0.00    -0.351 N 
HETATM   37  C19 UNL     1      41.506  18.024  43.135  1.00  0.00     0.062 A 
HETATM   38  C18 UNL     1      40.344  18.344  41.276  1.00  0.00     0.181 A 
ATOM     39  H4  UNL     1      41.242  16.761  40.213  1.00  0.00     0.166 HD
HETATM   40  N5  UNL     1      40.563  18.768  42.534  1.00  0.00    -0.350 N 
ATOM     41  H5  UNL     1      40.079  19.551  42.973  1.00  0.00     0.166 HD
HETATM   42  C20 UNL     1      42.087  18.043  44.406  1.00  0.00     0.069 A 
ENDBRANCH  31  32
ENDBRANCH   4  31
TORSDOF 6
ENDMDL
MODEL 3
REMARK VINA RESULT: -9.633786056      5.965      8.587
REMARK  6 active torsions:
REMARK  status: ('A' for Active; 'I' for Inactive)
REMARK       I    between atoms: C1_2  and  N1_3 
REMARK       I    between atoms: C1_2  and  N2_10 
REMARK    1  A    between atoms: N1_3  and  C2_4 
REMARK    2  A    between atoms: N2_10  and  C8_12 
REMARK    3  A    between atoms: C11_15  and  O2_16 
REMARK    4  A    between atoms: O2_16  and  C12_17 
REMARK    5  A    between atoms: C13_20  and  O3_21 
REMARK    6  A    between atoms: O3_21  and  C14_22 
ROOT
HETATM    1  C12 UNL     1      41.847  13.862  55.959  1.00  0.00     0.163 A 
HETATM    2  N3  UNL     1      42.795  13.098  55.325  1.00  0.00    -0.301 N 
ATOM      3  H3  UNL     1      43.621  12.802  55.847  1.00  0.00     0.171 HD
HETATM    4  C13 UNL     1      42.669  12.729  54.041  1.00  0.00     0.231 A 
HETATM    5  N6  UNL     1      41.576  13.106  53.321  1.00  0.00    -0.321 N 
ATOM      6  H6  UNL     1      41.492  12.818  52.346  1.00  0.00     0.169 HD
HETATM    7  C21 UNL     1      40.600  13.858  53.882  1.00  0.00     0.049 A 
HETATM    8  C22 UNL     1      39.489  14.262  53.171  1.00  0.00     0.030 A 
HETATM    9  C23 UNL     1      38.518  15.029  53.734  1.00  0.00     0.002 A 
HETATM   10  C24 UNL     1      38.672  15.402  55.067  1.00  0.00     0.001 A 
HETATM   11  C25 UNL     1      39.765  15.017  55.809  1.00  0.00     0.018 A 
HETATM   12  C26 UNL     1      40.741  14.229  55.194  1.00  0.00     0.042 A 
ENDROOT
BRANCH   1  13
HETATM   13  O2  UNL     1      41.929  14.261  57.215  1.00  0.00    -0.293 OA
BRANCH  13  14
HETATM   14  C11 UNL     1      41.581  13.742  58.412  1.00  0.00     0.078 A 
HETATM   15  C10 UNL     1      40.560  12.779  58.472  1.00  0.00     0.039 A 
HETATM   16  C9  UNL     1      40.170  12.239  59.644  1.00  0.00     0.032 A 
HETATM   17  C8  UNL     1      40.740  12.589  60.883  1.00  0.00     0.037 A 
HETATM   18  C28 UNL     1      41.736  13.521  60.840  1.00  0.00     0.032 A 
HETATM   19  C27 UNL     1      42.126  14.062  59.637  1.00  0.00     0.039 A 
BRANCH  17  20
HETATM   20  N2  UNL     1      40.197  12.000  62.040  1.00  0.00    -0.297 N 
HETATM   21  C1  UNL     1      40.600  10.629  62.388  1.00  0.00     0.398 C 
HETATM   22  O1  UNL     1      41.404  10.118  61.537  1.00  0.00    -0.230 OA
HETATM   23  N1  UNL     1      40.153  10.026  63.502  1.00  0.00    -0.352 NA
ATOM     24  H2  UNL     1      39.537  12.513  62.624  1.00  0.00     0.172 HD
BRANCH  23  25
HETATM   25  C2  UNL     1      39.702   9.409  64.634  1.00  0.00     0.112 A 
HETATM   26  C3  UNL     1      38.371   8.912  64.599  1.00  0.00     0.045 A 
HETATM   27  C4  UNL     1      37.806   8.252  65.647  1.00  0.00     0.003 A 
HETATM   28  C5  UNL     1      38.549   8.063  66.772  1.00  0.00     0.000 A 
HETATM   29  C6  UNL     1      39.839   8.503  66.901  1.00  0.00     0.003 A 
HETATM   30  C7  UNL     1      40.372   9.169  65.813  1.00  0.00     0.045 A 
ENDBRANCH  23  25
ENDBRANCH  17  20
ENDBRANCH  13  14
ENDBRANCH   1  13
BRANCH   4  31
HETATM   31  O3  UNL     1      43.647  11.952  53.412  1.00  0.00    -0.279 OA
BRANCH  31  32
HETATM   32  C14 UNL     1      44.886  12.522  53.111  1.00  0.00     0.081 A 
HETATM   33  C15 UNL     1      45.035  13.323  52.010  1.00  0.00     0.040 A 
HETATM   34  C16 UNL     1      46.254  13.908  51.679  1.00  0.00     0.035 A 
HETATM   35  C17 UNL     1      47.367  13.693  52.468  1.00  0.00     0.060 A 
HETATM   36  N4  UNL     1      48.651  14.113  52.408  1.00  0.00    -0.351 N 
HETATM   37  C19 UNL     1      47.234  12.888  53.581  1.00  0.00     0.062 A 
HETATM   38  C18 UNL     1      49.330  13.597  53.450  1.00  0.00     0.181 A 
ATOM     39  H4  UNL     1      49.042  14.723  51.691  1.00  0.00     0.166 HD
HETATM   40  N5  UNL     1      48.451  12.856  54.149  1.00  0.00    -0.350 N 
ATOM     41  H5  UNL     1      48.678  12.339  54.998  1.00  0.00     0.166 HD
HETATM   42  C20 UNL     1      46.004  12.308  53.899  1.00  0.00     0.069 A 
ENDBRANCH  31  32
ENDBRANCH   4  31
TORSDOF 6
ENDMDL
MODEL 4
REMARK VINA RESULT: -9.629976270      4.299      7.017
REMARK  6 active torsions:
REMARK  status: ('A' for Active; 'I' for Inactive)
REMARK       I    between atoms: C1_2  and  N1_3 
REMARK       I    between atoms: C1_2  and  N2_10 
REMARK    1  A    between atoms: N1_3  and  C2_4 
REMARK    2  A    between atoms: N2_10  and  C8_12 
REMARK    3  A    between atoms: C11_15  and  O2_16 
REMARK    4  A    between atoms: O2_16  and  C12_17 
REMARK    5  A    between atoms: C13_20  and  O3_21 
REMARK    6  A    between atoms: O3_21  and  C14_22 
ROOT
HETATM    1  C12 UNL     1      41.452  15.100  55.114  1.00  0.00     0.163 A 
HETATM    2  N3  UNL     1      42.535  14.716  54.364  1.00  0.00    -0.301 N 
ATOM      3  H3  UNL     1      43.387  14.418  54.841  1.00  0.00     0.171 HD
HETATM    4  C13 UNL     1      42.508  14.720  53.023  1.00  0.00     0.231 A 
HETATM    5  N6  UNL     1      41.384  15.108  52.358  1.00  0.00    -0.321 N 
ATOM      6  H6  UNL     1      41.377  15.106  51.338  1.00  0.00     0.169 HD
HETATM    7  C21 UNL     1      40.278  15.497  53.034  1.00  0.00     0.049 A 
HETATM    8  C22 UNL     1      39.131  15.905  52.384  1.00  0.00     0.030 A 
HETATM    9  C23 UNL     1      38.026  16.309  53.066  1.00  0.00     0.002 A 
HETATM   10  C24 UNL     1      38.079  16.299  54.457  1.00  0.00     0.001 A 
HETATM   11  C25 UNL     1      39.203  15.897  55.142  1.00  0.00     0.018 A 
HETATM   12  C26 UNL     1      40.318  15.490  54.404  1.00  0.00     0.042 A 
ENDROOT
BRANCH   1  13
HETATM   13  O2  UNL     1      41.431  15.125  56.434  1.00  0.00    -0.293 OA
BRANCH  13  14
HETATM   14  C11 UNL     1      41.543  14.203  57.415  1.00  0.00     0.078 A 
HETATM   15  C10 UNL     1      40.475  13.321  57.651  1.00  0.00     0.039 A 
HETATM   16  C9  UNL     1      40.534  12.390  58.625  1.00  0.00     0.032 A 
HETATM   17  C8  UNL     1      41.648  12.228  59.472  1.00  0.00     0.037 A 
HETATM   18  C28 UNL     1      42.693  13.077  59.252  1.00  0.00     0.032 A 
HETATM   19  C27 UNL     1      42.621  14.020  58.254  1.00  0.00     0.039 A 
BRANCH  17  20
HETATM   20  N2  UNL     1      41.555  11.263  60.492  1.00  0.00    -0.297 N 
HETATM   21  C1  UNL     1      40.768  11.580  61.694  1.00  0.00     0.398 C 
HETATM   22  O1  UNL     1      40.277  12.759  61.666  1.00  0.00    -0.230 OA
HETATM   23  N1  UNL     1      40.602  10.686  62.682  1.00  0.00    -0.352 NA
ATOM     24  H2  UNL     1      42.023  10.362  60.399  1.00  0.00     0.172 HD
BRANCH  23  25
HETATM   25  C2  UNL     1      40.431   9.780  63.690  1.00  0.00     0.112 A 
HETATM   26  C3  UNL     1      41.368   8.714  63.752  1.00  0.00     0.045 A 
HETATM   27  C4  UNL     1      41.331   7.759  64.720  1.00  0.00     0.003 A 
HETATM   28  C5  UNL     1      40.355   7.831  65.666  1.00  0.00     0.000 A 
HETATM   29  C6  UNL     1      39.408   8.820  65.692  1.00  0.00     0.003 A 
HETATM   30  C7  UNL     1      39.483   9.768  64.688  1.00  0.00     0.045 A 
ENDBRANCH  23  25
ENDBRANCH  17  20
ENDBRANCH  13  14
ENDBRANCH   1  13
BRANCH   4  31
HETATM   31  O3  UNL     1      43.623  14.327  52.275  1.00  0.00    -0.279 OA
BRANCH  31  32
HETATM   32  C14 UNL     1      43.503  13.270  51.371  1.00  0.00     0.081 A 
HETATM   33  C15 UNL     1      43.240  12.001  51.814  1.00  0.00     0.040 A 
HETATM   34  C16 UNL     1      43.115  10.923  50.942  1.00  0.00     0.035 A 
HETATM   35  C17 UNL     1      43.253  11.107  49.581  1.00  0.00     0.060 A 
HETATM   36  N4  UNL     1      43.185  10.281  48.513  1.00  0.00    -0.351 N 
HETATM   37  C19 UNL     1      43.519  12.379  49.118  1.00  0.00     0.062 A 
HETATM   38  C18 UNL     1      43.400  10.994  47.393  1.00  0.00     0.181 A 
ATOM     39  H4  UNL     1      43.000   9.278  48.551  1.00  0.00     0.166 HD
HETATM   40  N5  UNL     1      43.601  12.266  47.782  1.00  0.00    -0.350 N 
ATOM     41  H5  UNL     1      43.791  13.041  47.147  1.00  0.00     0.166 HD
HETATM   42  C20 UNL     1      43.643  13.451  50.006  1.00  0.00     0.069 A 
ENDBRANCH  31  32
ENDBRANCH   4  31
TORSDOF 6
ENDMDL
MODEL 5
REMARK VINA RESULT: -9.624943672      5.011      7.460
REMARK  6 active torsions:
REMARK  status: ('A' for Active; 'I' for Inactive)
REMARK       I    between atoms: C1_2  and  N1_3 
REMARK       I    between atoms: C1_2  and  N2_10 
REMARK    1  A    between atoms: N1_3  and  C2_4 
REMARK    2  A    between atoms: N2_10  and  C8_12 
REMARK    3  A    between atoms: C11_15  and  O2_16 
REMARK    4  A    between atoms: O2_16  and  C12_17 
REMARK    5  A    between atoms: C13_20  and  O3_21 
REMARK    6  A    between atoms: O3_21  and  C14_22 
ROOT
HETATM    1  C12 UNL     1      41.583  13.934  55.232  1.00  0.00     0.163 A 
HETATM    2  N3  UNL     1      42.229  12.889  54.621  1.00  0.00    -0.301 N 
ATOM      3  H3  UNL     1      42.932  12.368  55.145  1.00  0.00     0.171 HD
HETATM    4  C13 UNL     1      41.964  12.533  53.354  1.00  0.00     0.231 A 
HETATM    5  N6  UNL     1      41.028  13.208  52.631  1.00  0.00    -0.321 N 
ATOM      6  H6  UNL     1      40.836  12.926  51.669  1.00  0.00     0.169 HD
HETATM    7  C21 UNL     1      40.350  14.247  53.171  1.00  0.00     0.049 A 
HETATM    8  C22 UNL     1      39.406  14.954  52.456  1.00  0.00     0.030 A 
HETATM    9  C23 UNL     1      38.737  16.006  52.997  1.00  0.00     0.002 A 
HETATM   10  C24 UNL     1      39.030  16.360  54.312  1.00  0.00     0.001 A 
HETATM   11  C25 UNL     1      39.965  15.678  55.058  1.00  0.00     0.018 A 
HETATM   12  C26 UNL     1      40.630  14.602  54.465  1.00  0.00     0.042 A 
ENDROOT
BRANCH   1  13
HETATM   13  O2  UNL     1      41.814  14.332  56.470  1.00  0.00    -0.293 OA
BRANCH  13  14
HETATM   14  C11 UNL     1      41.576  13.830  57.701  1.00  0.00     0.078 A 
HETATM   15  C10 UNL     1      40.439  13.030  57.907  1.00  0.00     0.039 A 
HETATM   16  C9  UNL     1      40.153  12.514  59.119  1.00  0.00     0.032 A 
HETATM   17  C8  UNL     1      40.951  12.732  60.259  1.00  0.00     0.037 A 
HETATM   18  C28 UNL     1      42.060  13.504  60.073  1.00  0.00     0.032 A 
HETATM   19  C27 UNL     1      42.343  14.022  58.830  1.00  0.00     0.039 A 
BRANCH  17  20
HETATM   20  N2  UNL     1      40.504  12.191  61.479  1.00  0.00    -0.297 N 
HETATM   21  C1  UNL     1      40.671  10.749  61.714  1.00  0.00     0.398 C 
HETATM   22  O1  UNL     1      41.195  10.143  60.719  1.00  0.00    -0.230 OA
HETATM   23  N1  UNL     1      40.308  10.178  62.875  1.00  0.00    -0.352 NA
ATOM     24  H2  UNL     1      40.073  12.788  62.186  1.00  0.00     0.172 HD
BRANCH  23  25
HETATM   25  C2  UNL     1      39.940   9.594  64.053  1.00  0.00     0.112 A 
HETATM   26  C3  UNL     1      38.599   9.131  64.142  1.00  0.00     0.045 A 
HETATM   27  C4  UNL     1      38.110   8.506  65.247  1.00  0.00     0.003 A 
HETATM   28  C5  UNL     1      38.942   8.317  66.308  1.00  0.00     0.000 A 
HETATM   29  C6  UNL     1      40.249   8.726  66.318  1.00  0.00     0.003 A 
HETATM   30  C7  UNL     1      40.702   9.359  65.176  1.00  0.00     0.045 A 
ENDBRANCH  23  25
ENDBRANCH  17  20
ENDBRANCH  13  14
ENDBRANCH   1  13
BRANCH   4  31
HETATM   31  O3  UNL     1      42.635  11.466  52.747  1.00  0.00    -0.279 OA
BRANCH  31  32
HETATM   32  C14 UNL     1      42.295  11.096  51.445  1.00  0.00     0.081 A 
HETATM   33  C15 UNL     1      43.146  11.354  50.403  1.00  0.00     0.040 A 
HETATM   34  C16 UNL     1      42.841  10.999  49.092  1.00  0.00     0.035 A 
HETATM   35  C17 UNL     1      41.650  10.364  48.800  1.00  0.00     0.060 A 
HETATM   36  N4  UNL     1      41.089   9.906  47.659  1.00  0.00    -0.351 N 
HETATM   37  C19 UNL     1      40.782  10.096  49.838  1.00  0.00     0.062 A 
HETATM   38  C18 UNL     1      39.894   9.359  47.947  1.00  0.00     0.181 A 
ATOM     39  H4  UNL     1      41.505   9.964  46.729  1.00  0.00     0.166 HD
HETATM   40  N5  UNL     1      39.726   9.485  49.276  1.00  0.00    -0.350 N 
ATOM     41  H5  UNL     1      38.906   9.161  49.788  1.00  0.00     0.166 HD
HETATM   42  C20 UNL     1      41.102  10.460  51.149  1.00  0.00     0.069 A 
ENDBRANCH  31  32
ENDBRANCH   4  31
TORSDOF 6
ENDMDL
