MODEL 1
REMARK VINA RESULT: -3.887638657      0.000      0.000
REMARK  1 active torsions:
REMARK  status: ('A' for Active; 'I' for Inactive)
REMARK    1  A    between atoms: C2_2  and  C3_3 
ROOT
HETATM    1  C3  UNL     1      43.709 -23.107  62.514  1.00  0.00     0.408 C 
HETATM    2  N1  UNL     1      44.211 -22.024  63.372  1.00  0.00    -0.041 N 
ATOM      3  H11 UNL     1      44.552 -21.196  62.886  1.00  0.00     0.280 HD
ATOM      4  H12 UNL     1      45.093 -22.209  63.850  1.00  0.00     0.280 HD
HETATM    5  C4  UNL     1      43.059 -21.820  64.231  1.00  0.00     0.263 C 
HETATM    6  C5  UNL     1      41.876 -22.103  63.327  1.00  0.00     0.267 C 
HETATM    7  N2  UNL     1      42.463 -22.598  62.075  1.00  0.00    -0.041 N 
HETATM    8  C6  UNL     1      42.545 -21.476  61.184  1.00  0.00     0.275 C 
HETATM    9  C7  UNL     1      41.590 -23.581  61.481  1.00  0.00     0.275 C 
ENDROOT
BRANCH   1  10
HETATM   10  C2  UNL     1      44.667 -23.448  61.449  1.00  0.00     0.025 C 
HETATM   11  C1  UNL     1      45.973 -23.455  61.577  1.00  0.00     0.011 C 
ENDBRANCH   1  10
TORSDOF 1
ENDMDL
MODEL 2
REMARK VINA RESULT: -3.859116722      1.212      2.924
REMARK  1 active torsions:
REMARK  status: ('A' for Active; 'I' for Inactive)
REMARK    1  A    between atoms: C2_2  and  C3_3 
ROOT
HETATM    1  C3  UNL     1      42.171 -23.363  61.757  1.00  0.00     0.408 C 
HETATM    2  N1  UNL     1      43.341 -23.419  60.870  1.00  0.00    -0.041 N 
ATOM      3  H11 UNL     1      43.277 -22.865  60.017  1.00  0.00     0.280 HD
ATOM      4  H12 UNL     1      43.487 -24.304  60.384  1.00  0.00     0.280 HD
HETATM    5  C4  UNL     1      44.387 -23.030  61.798  1.00  0.00     0.263 C 
HETATM    6  C5  UNL     1      43.705 -22.043  62.723  1.00  0.00     0.267 C 
HETATM    7  N2  UNL     1      42.288 -22.077  62.339  1.00  0.00    -0.041 N 
HETATM    8  C6  UNL     1      42.076 -20.981  61.437  1.00  0.00     0.275 C 
HETATM    9  C7  UNL     1      41.461 -21.868  63.501  1.00  0.00     0.275 C 
ENDROOT
BRANCH   1  10
HETATM   10  C2  UNL     1      40.918 -23.618  61.025  1.00  0.00     0.025 C 
HETATM   11  C1  UNL     1      40.837 -24.054  59.791  1.00  0.00     0.011 C 
ENDBRANCH   1  10
TORSDOF 1
ENDMDL
MODEL 3
REMARK VINA RESULT: -3.803147359      1.823      2.298
REMARK  1 active torsions:
REMARK  status: ('A' for Active; 'I' for Inactive)
REMARK    1  A    between atoms: C2_2  and  C3_3 
ROOT
HETATM    1  C3  UNL     1      42.242 -21.499  62.849  1.00  0.00     0.408 C 
HETATM    2  N1  UNL     1      42.061 -20.041  62.875  1.00  0.00    -0.041 N 
ATOM      3  H11 UNL     1      42.603 -19.515  62.189  1.00  0.00     0.280 HD
ATOM      4  H12 UNL     1      42.458 -19.559  63.682  1.00  0.00     0.280 HD
HETATM    5  C4  UNL     1      40.619 -19.957  62.737  1.00  0.00     0.263 C 
HETATM    6  C5  UNL     1      40.268 -21.133  61.849  1.00  0.00     0.267 C 
HETATM    7  N2  UNL     1      41.525 -21.877  61.688  1.00  0.00    -0.041 N 
HETATM    8  C6  UNL     1      42.106 -21.446  60.448  1.00  0.00     0.275 C 
HETATM    9  C7  UNL     1      41.248 -23.288  61.587  1.00  0.00     0.275 C 
ENDROOT
BRANCH   1  10
HETATM   10  C2  UNL     1      43.666 -21.873  62.866  1.00  0.00     0.025 C 
HETATM   11  C1  UNL     1      44.242 -22.623  63.776  1.00  0.00     0.011 C 
ENDBRANCH   1  10
TORSDOF 1
ENDMDL
MODEL 4
REMARK VINA RESULT: -3.734238913      1.394      1.602
REMARK  1 active torsions:
REMARK  status: ('A' for Active; 'I' for Inactive)
REMARK    1  A    between atoms: C2_2  and  C3_3 
ROOT
HETATM    1  C3  UNL     1      42.601 -22.650  62.716  1.00  0.00     0.408 C 
HETATM    2  N1  UNL     1      42.261 -21.551  63.630  1.00  0.00    -0.041 N 
ATOM      3  H11 UNL     1      42.641 -20.638  63.386  1.00  0.00     0.280 HD
ATOM      4  H12 UNL     1      42.705 -21.584  64.548  1.00  0.00     0.280 HD
HETATM    5  C4  UNL     1      40.813 -21.653  63.627  1.00  0.00     0.263 C 
HETATM    6  C5  UNL     1      40.483 -22.109  62.220  1.00  0.00     0.267 C 
HETATM    7  N2  UNL     1      41.782 -22.381  61.593  1.00  0.00    -0.041 N 
HETATM    8  C6  UNL     1      42.138 -21.205  60.850  1.00  0.00     0.275 C 
HETATM    9  C7  UNL     1      41.658 -23.478  60.665  1.00  0.00     0.275 C 
ENDROOT
BRANCH   1  10
HETATM   10  C2  UNL     1      44.049 -22.709  62.447  1.00  0.00     0.025 C 
HETATM   11  C1  UNL     1      44.985 -22.231  63.233  1.00  0.00     0.011 C 
ENDBRANCH   1  10
TORSDOF 1
ENDMDL
MODEL 5
REMARK VINA RESULT: -3.733098116      1.447      3.476
REMARK  1 active torsions:
REMARK  status: ('A' for Active; 'I' for Inactive)
REMARK    1  A    between atoms: C2_2  and  C3_3 
ROOT
HETATM    1  C3  UNL     1      41.738 -21.230  62.957  1.00  0.00     0.408 C 
HETATM    2  N1  UNL     1      42.198 -21.963  64.145  1.00  0.00    -0.041 N 
ATOM      3  H11 UNL     1      41.688 -22.819  64.363  1.00  0.00     0.280 HD
ATOM      4  H12 UNL     1      42.004 -21.519  65.043  1.00  0.00     0.280 HD
HETATM    5  C4  UNL     1      43.601 -22.132  63.816  1.00  0.00     0.263 C 
HETATM    6  C5  UNL     1      43.606 -22.288  62.309  1.00  0.00     0.267 C 
HETATM    7  N2  UNL     1      42.220 -22.033  61.895  1.00  0.00    -0.041 N 
HETATM    8  C6  UNL     1      41.585 -23.314  61.765  1.00  0.00     0.275 C 
HETATM    9  C7  UNL     1      42.205 -21.391  60.604  1.00  0.00     0.275 C 
ENDROOT
BRANCH   1  10
HETATM   10  C2  UNL     1      40.281 -21.014  62.979  1.00  0.00     0.025 C 
HETATM   11  C1  UNL     1      39.521 -21.081  64.047  1.00  0.00     0.011 C 
ENDBRANCH   1  10
TORSDOF 1
ENDMDL
