MODEL 1
REMARK VINA RESULT: -4.702832514      0.000      0.000
REMARK  1 active torsions:
REMARK  status: ('A' for Active; 'I' for Inactive)
REMARK    1  A    between atoms: N2_4  and  C1_6 
ROOT
HETATM    1  C1  UNL     1      44.025 -22.964  61.742  1.00  0.00     0.103 C 
HETATM    2  C2  UNL     1      42.590 -23.197  62.257  1.00  0.00     0.031 C 
HETATM    3  C3  UNL     1      42.585 -22.207  63.387  1.00  0.00    -0.012 C 
HETATM    4  C4  UNL     1      43.871 -22.611  64.123  1.00  0.00     0.011 C 
HETATM    5  C5  UNL     1      44.532 -22.106  62.859  1.00  0.00     0.010 C 
HETATM    6  C6  UNL     1      43.422 -21.035  62.895  1.00  0.00     0.011 C 
ENDROOT
BRANCH   1   7
HETATM    7  N2  UNL     1      44.727 -24.152  61.515  1.00  0.00    -0.338 N 
HETATM    8  N1  UNL     1      45.891 -24.235  61.108  1.00  0.00    -0.349 N 
ATOM      9  H12 UNL     1      46.366 -23.350  60.927  1.00  0.00     0.176 HD
ATOM     10  H11 UNL     1      46.403 -25.101  60.943  1.00  0.00     0.176 HD
ATOM     11  H2  UNL     1      44.236 -25.026  61.702  1.00  0.00     0.180 HD
ENDBRANCH   1   7
TORSDOF 1
ENDMDL
MODEL 2
REMARK VINA RESULT: -4.589738282      1.106      1.179
REMARK  1 active torsions:
REMARK  status: ('A' for Active; 'I' for Inactive)
REMARK    1  A    between atoms: N2_4  and  C1_6 
ROOT
HETATM    1  C1  UNL     1      44.961 -22.751  62.143  1.00  0.00     0.103 C 
HETATM    2  C2  UNL     1      43.604 -23.485  62.154  1.00  0.00     0.031 C 
HETATM    3  C3  UNL     1      42.861 -22.584  63.099  1.00  0.00    -0.012 C 
HETATM    4  C4  UNL     1      43.850 -22.526  64.273  1.00  0.00     0.011 C 
HETATM    5  C5  UNL     1      44.711 -21.793  63.267  1.00  0.00     0.010 C 
HETATM    6  C6  UNL     1      43.373 -21.182  62.802  1.00  0.00     0.011 C 
ENDROOT
BRANCH   1   7
HETATM    7  N2  UNL     1      46.052 -23.610  62.302  1.00  0.00    -0.338 N 
HETATM    8  N1  UNL     1      47.061 -23.377  62.976  1.00  0.00    -0.349 N 
ATOM      9  H12 UNL     1      47.084 -22.475  63.452  1.00  0.00     0.176 HD
ATOM     10  H11 UNL     1      47.857 -24.004  63.092  1.00  0.00     0.176 HD
ATOM     11  H2  UNL     1      46.012 -24.507  61.818  1.00  0.00     0.180 HD
ENDBRANCH   1   7
TORSDOF 1
ENDMDL
MODEL 3
REMARK VINA RESULT: -4.581995881      0.731      1.814
REMARK  1 active torsions:
REMARK  status: ('A' for Active; 'I' for Inactive)
REMARK    1  A    between atoms: N2_4  and  C1_6 
ROOT
HETATM    1  C1  UNL     1      43.807 -23.323  62.307  1.00  0.00     0.103 C 
HETATM    2  C2  UNL     1      44.367 -22.034  62.941  1.00  0.00     0.031 C 
HETATM    3  C3  UNL     1      43.091 -21.246  63.031  1.00  0.00    -0.012 C 
HETATM    4  C4  UNL     1      42.576 -21.378  61.589  1.00  0.00     0.011 C 
HETATM    5  C5  UNL     1      42.432 -22.834  61.972  1.00  0.00     0.010 C 
HETATM    6  C6  UNL     1      42.010 -22.270  63.344  1.00  0.00     0.011 C 
ENDROOT
BRANCH   1   7
HETATM    7  N2  UNL     1      44.573 -23.784  61.232  1.00  0.00    -0.338 N 
HETATM    8  N1  UNL     1      45.571 -24.508  61.316  1.00  0.00    -0.349 N 
ATOM      9  H12 UNL     1      45.847 -24.784  62.259  1.00  0.00     0.176 HD
ATOM     10  H11 UNL     1      46.129 -24.845  60.531  1.00  0.00     0.176 HD
ATOM     11  H2  UNL     1      44.282 -23.498  60.298  1.00  0.00     0.180 HD
ENDBRANCH   1   7
TORSDOF 1
ENDMDL
MODEL 4
REMARK VINA RESULT: -4.334010019      1.007      1.787
REMARK  1 active torsions:
REMARK  status: ('A' for Active; 'I' for Inactive)
REMARK    1  A    between atoms: N2_4  and  C1_6 
ROOT
HETATM    1  C1  UNL     1      44.378 -23.129  62.424  1.00  0.00     0.103 C 
HETATM    2  C2  UNL     1      43.959 -22.649  63.828  1.00  0.00     0.031 C 
HETATM    3  C3  UNL     1      42.631 -22.039  63.478  1.00  0.00    -0.012 C 
HETATM    4  C4  UNL     1      43.037 -21.128  62.310  1.00  0.00     0.011 C 
HETATM    5  C5  UNL     1      43.314 -22.446  61.621  1.00  0.00     0.010 C 
HETATM    6  C6  UNL     1      42.060 -22.926  62.381  1.00  0.00     0.011 C 
ENDROOT
BRANCH   1   7
HETATM    7  N2  UNL     1      45.697 -22.798  62.100  1.00  0.00    -0.338 N 
HETATM    8  N1  UNL     1      46.664 -23.566  62.143  1.00  0.00    -0.349 N 
ATOM      9  H12 UNL     1      46.466 -24.520  62.442  1.00  0.00     0.176 HD
ATOM     10  H11 UNL     1      47.627 -23.323  61.906  1.00  0.00     0.176 HD
ATOM     11  H2  UNL     1      45.876 -21.839  61.803  1.00  0.00     0.180 HD
ENDBRANCH   1   7
TORSDOF 1
ENDMDL
MODEL 5
REMARK VINA RESULT: -4.256649633      0.974      1.330
REMARK  1 active torsions:
REMARK  status: ('A' for Active; 'I' for Inactive)
REMARK    1  A    between atoms: N2_4  and  C1_6 
ROOT
HETATM    1  C1  UNL     1      44.096 -22.788  61.916  1.00  0.00     0.103 C 
HETATM    2  C2  UNL     1      43.082 -22.281  60.870  1.00  0.00     0.031 C 
HETATM    3  C3  UNL     1      42.139 -21.561  61.791  1.00  0.00    -0.012 C 
HETATM    4  C4  UNL     1      41.870 -22.657  62.834  1.00  0.00     0.011 C 
HETATM    5  C5  UNL     1      43.333 -22.448  63.158  1.00  0.00     0.010 C 
HETATM    6  C6  UNL     1      43.021 -20.963  62.879  1.00  0.00     0.011 C 
ENDROOT
BRANCH   1   7
HETATM    7  N2  UNL     1      44.428 -24.136  61.751  1.00  0.00    -0.338 N 
HETATM    8  N1  UNL     1      45.484 -24.565  61.271  1.00  0.00    -0.349 N 
ATOM      9  H12 UNL     1      46.159 -23.861  60.974  1.00  0.00     0.176 HD
ATOM     10  H11 UNL     1      45.726 -25.549  61.151  1.00  0.00     0.176 HD
ATOM     11  H2  UNL     1      43.740 -24.825  62.053  1.00  0.00     0.180 HD
ENDBRANCH   1   7
TORSDOF 1
ENDMDL
