MODEL 1
REMARK VINA RESULT: -5.026517751      0.000      0.000
REMARK  1 active torsions:
REMARK  status: ('A' for Active; 'I' for Inactive)
REMARK    1  A    between atoms: N1_3  and  C3_5 
ROOT
HETATM    1  C1  UNL     1      47.934 -21.915  63.812  1.00  0.00     0.037 C 
HETATM    2  C2  UNL     1      46.910 -22.444  63.428  1.00  0.00    -0.000 C 
HETATM    3  N1  UNL     1      45.725 -23.034  62.974  1.00  0.00    -0.312 N 
ATOM      4  H1  UNL     1      45.756 -23.742  62.240  1.00  0.00     0.177 HD
ENDROOT
BRANCH   3   5
HETATM    5  C3  UNL     1      44.477 -22.646  63.537  1.00  0.00     0.186 C 
HETATM    6  N2  UNL     1      43.452 -22.523  62.796  1.00  0.00    -0.377 N 
HETATM    7  C4  UNL     1      43.416 -22.748  61.374  1.00  0.00     0.123 C 
HETATM    8  C7  UNL     1      42.110 -22.133  63.235  1.00  0.00     0.123 C 
HETATM    9  C5  UNL     1      42.363 -21.781  60.848  1.00  0.00     0.021 C 
HETATM   10  C6  UNL     1      41.411 -21.603  62.002  1.00  0.00     0.021 C 
ENDBRANCH   3   5
TORSDOF 1
ENDMDL
MODEL 2
REMARK VINA RESULT: -4.846460061      1.100      1.768
REMARK  1 active torsions:
REMARK  status: ('A' for Active; 'I' for Inactive)
REMARK    1  A    between atoms: N1_3  and  C3_5 
ROOT
HETATM    1  C1  UNL     1      47.856 -21.723  63.772  1.00  0.00     0.037 C 
HETATM    2  C2  UNL     1      47.264 -22.648  63.253  1.00  0.00    -0.000 C 
HETATM    3  N1  UNL     1      46.595 -23.712  62.635  1.00  0.00    -0.312 N 
ATOM      4  H1  UNL     1      46.818 -24.673  62.891  1.00  0.00     0.177 HD
ENDROOT
BRANCH   3   5
HETATM    5  C3  UNL     1      45.603 -23.449  61.648  1.00  0.00     0.186 C 
HETATM    6  N2  UNL     1      44.529 -22.848  61.965  1.00  0.00    -0.377 N 
HETATM    7  C4  UNL     1      44.192 -22.378  63.285  1.00  0.00     0.123 C 
HETATM    8  C7  UNL     1      43.428 -22.512  61.061  1.00  0.00     0.123 C 
HETATM    9  C5  UNL     1      42.675 -22.490  63.367  1.00  0.00     0.021 C 
HETATM   10  C6  UNL     1      42.212 -22.329  61.943  1.00  0.00     0.021 C 
ENDBRANCH   3   5
TORSDOF 1
ENDMDL
MODEL 3
REMARK VINA RESULT: -4.683456054      0.714      1.473
REMARK  1 active torsions:
REMARK  status: ('A' for Active; 'I' for Inactive)
REMARK    1  A    between atoms: N1_3  and  C3_5 
ROOT
HETATM    1  C1  UNL     1      47.851 -21.935  63.642  1.00  0.00     0.037 C 
HETATM    2  C2  UNL     1      46.762 -22.457  63.505  1.00  0.00    -0.000 C 
HETATM    3  N1  UNL     1      45.518 -23.074  63.333  1.00  0.00    -0.312 N 
ATOM      4  H1  UNL     1      45.162 -23.713  64.044  1.00  0.00     0.177 HD
ENDROOT
BRANCH   3   5
HETATM    5  C3  UNL     1      44.749 -22.808  62.165  1.00  0.00     0.186 C 
HETATM    6  N2  UNL     1      43.612 -22.249  62.261  1.00  0.00    -0.377 N 
HETATM    7  C4  UNL     1      42.985 -21.834  63.490  1.00  0.00     0.123 C 
HETATM    8  C7  UNL     1      42.716 -21.916  61.152  1.00  0.00     0.123 C 
HETATM    9  C5  UNL     1      41.491 -21.992  63.244  1.00  0.00     0.021 C 
HETATM   10  C6  UNL     1      41.335 -21.798  61.759  1.00  0.00     0.021 C 
ENDBRANCH   3   5
TORSDOF 1
ENDMDL
MODEL 4
REMARK VINA RESULT: -4.387262343      1.442      4.664
REMARK  1 active torsions:
REMARK  status: ('A' for Active; 'I' for Inactive)
REMARK    1  A    between atoms: N1_3  and  C3_5 
ROOT
HETATM    1  C1  UNL     1      39.545 -21.137  63.293  1.00  0.00     0.037 C 
HETATM    2  C2  UNL     1      40.700 -21.487  63.436  1.00  0.00    -0.000 C 
HETATM    3  N1  UNL     1      42.038 -21.872  63.586  1.00  0.00    -0.312 N 
ATOM      4  H1  UNL     1      42.530 -21.675  64.457  1.00  0.00     0.177 HD
ENDROOT
BRANCH   3   5
HETATM    5  C3  UNL     1      42.709 -22.537  62.522  1.00  0.00     0.186 C 
HETATM    6  N2  UNL     1      43.932 -22.862  62.642  1.00  0.00    -0.377 N 
HETATM    7  C4  UNL     1      44.753 -22.617  63.801  1.00  0.00     0.123 C 
HETATM    8  C7  UNL     1      44.746 -23.547  61.637  1.00  0.00     0.123 C 
HETATM    9  C5  UNL     1      46.159 -22.415  63.252  1.00  0.00     0.021 C 
HETATM   10  C6  UNL     1      46.184 -23.226  61.983  1.00  0.00     0.021 C 
ENDBRANCH   3   5
TORSDOF 1
ENDMDL
MODEL 5
REMARK VINA RESULT: -4.387210261      1.281      4.411
REMARK  1 active torsions:
REMARK  status: ('A' for Active; 'I' for Inactive)
REMARK    1  A    between atoms: N1_3  and  C3_5 
ROOT
HETATM    1  C1  UNL     1      41.433 -19.967  61.964  1.00  0.00     0.037 C 
HETATM    2  C2  UNL     1      41.735 -21.133  62.123  1.00  0.00    -0.000 C 
HETATM    3  N1  UNL     1      42.102 -22.469  62.320  1.00  0.00    -0.312 N 
ATOM      4  H1  UNL     1      41.593 -23.044  62.991  1.00  0.00     0.177 HD
ENDROOT
BRANCH   3   5
HETATM    5  C3  UNL     1      43.184 -23.025  61.582  1.00  0.00     0.186 C 
HETATM    6  N2  UNL     1      44.334 -23.128  62.113  1.00  0.00    -0.377 N 
HETATM    7  C4  UNL     1      44.676 -22.722  63.453  1.00  0.00     0.123 C 
HETATM    8  C7  UNL     1      45.534 -23.676  61.478  1.00  0.00     0.123 C 
HETATM    9  C5  UNL     1      46.133 -22.285  63.373  1.00  0.00     0.021 C 
HETATM   10  C6  UNL     1      46.705 -23.101  62.244  1.00  0.00     0.021 C 
ENDBRANCH   3   5
TORSDOF 1
ENDMDL
