MODEL 1
REMARK VINA RESULT: -8.232736175      0.000      0.000
REMARK  9 active torsions:
REMARK  status: ('A' for Active; 'I' for Inactive)
REMARK       I    between atoms: C2_2  and  N1_4 
REMARK    1  A    between atoms: N1_4  and  C3_6 
REMARK    2  A    between atoms: C5_8  and  N2_9 
REMARK    3  A    between atoms: C6_13  and  N3_14 
REMARK    4  A    between atoms: C8_19  and  O2_20 
REMARK    5  A    between atoms: O2_20  and  C9_21 
REMARK    6  A    between atoms: C10_23  and  O4_24 
REMARK    7  A    between atoms: O4_24  and  C11_25 
REMARK    8  A    between atoms: C11_25  and  C12_26 
REMARK       I    between atoms: N4_30  and  C16_32 
REMARK    9  A    between atoms: C19_41  and  O7_42 
ROOT
HETATM    1  C9  UNL     1      20.054  14.175  17.476  1.00  0.00     0.296 C 
HETATM    2  O3  UNL     1      19.018  13.525  18.140  1.00  0.00    -0.305 OA
HETATM    3  C10 UNL     1      18.655  14.297  19.255  1.00  0.00     0.415 C 
HETATM    4  O6  UNL     1      19.696  14.331  20.191  1.00  0.00    -0.331 OA
HETATM    5  C17 UNL     1      20.861  14.866  19.672  1.00  0.00     0.156 C 
HETATM    6  C18 UNL     1      20.823  16.356  19.537  1.00  0.00     0.042 C 
HETATM    7  C19 UNL     1      21.255  14.154  18.404  1.00  0.00     0.202 C 
ENDROOT
BRANCH   1   8
HETATM    8  O2  UNL     1      20.422  13.532  16.313  1.00  0.00    -0.351 OA
BRANCH   8   9
HETATM    9  C8  UNL     1      19.634  13.799  15.227  1.00  0.00     0.149 C 
HETATM   10  C3  UNL     1      20.144  13.064  14.006  1.00  0.00     0.115 C 
HETATM   11  C4  UNL     1      18.996  12.490  13.177  1.00  0.00     0.062 C 
HETATM   12  C5  UNL     1      17.848  13.445  13.069  1.00  0.00     0.216 C 
HETATM   13  C6  UNL     1      17.356  13.941  14.393  1.00  0.00     0.216 C 
HETATM   14  C7  UNL     1      18.210  13.280  15.468  1.00  0.00     0.069 C 
BRANCH  10  15
HETATM   15  N1  UNL     1      21.019  11.996  14.414  1.00  0.00    -0.354 N 
HETATM   16  C2  UNL     1      22.040  11.465  13.594  1.00  0.00     0.214 C 
HETATM   17  C1  UNL     1      22.910  10.363  14.073  1.00  0.00     0.117 C 
HETATM   18  O1  UNL     1      22.213  11.935  12.443  1.00  0.00    -0.274 OA
ATOM     19  H1  UNL     1      20.895  11.601  15.346  1.00  0.00     0.162 HD
ENDBRANCH  10  15
BRANCH  12  20
HETATM   20  N2  UNL     1      16.773  12.768  12.379  1.00  0.00    -0.073 N 
ATOM     21  H23 UNL     1      16.111  13.413  11.949  1.00  0.00     0.274 HD
ATOM     22  H22 UNL     1      17.082  12.302  11.525  1.00  0.00     0.274 HD
ATOM     23  H21 UNL     1      16.330  12.129  13.039  1.00  0.00     0.274 HD
ENDBRANCH  12  20
BRANCH  13  24
HETATM   24  N3  UNL     1      15.974  13.651  14.648  1.00  0.00    -0.073 N 
ATOM     25  H33 UNL     1      15.674  12.836  14.112  1.00  0.00     0.274 HD
ATOM     26  H32 UNL     1      15.853  13.289  15.594  1.00  0.00     0.274 HD
ATOM     27  H31 UNL     1      15.346  14.438  14.483  1.00  0.00     0.274 HD
ENDBRANCH  13  24
ENDBRANCH   8   9
ENDBRANCH   1   8
BRANCH   7  28
HETATM   28  O7  UNL     1      21.543  12.829  18.748  1.00  0.00    -0.388 OA
ATOM     29  H7  UNL     1      21.920  12.810  19.620  1.00  0.00     0.210 HD
ENDBRANCH   7  28
BRANCH   3  30
HETATM   30  O4  UNL     1      18.199  15.531  18.918  1.00  0.00    -0.336 OA
BRANCH  30  31
HETATM   31  C11 UNL     1      17.131  16.092  19.493  1.00  0.00     0.205 C 
BRANCH  31  32
HETATM   32  C12 UNL     1      15.778  15.899  18.921  1.00  0.00     0.154 C 
HETATM   33  C13 UNL     1      15.523  14.668  18.130  1.00  0.00     0.043 C 
HETATM   34  C14 UNL     1      14.266  15.100  17.348  1.00  0.00     0.087 C 
HETATM   35  C15 UNL     1      14.660  16.482  16.971  1.00  0.00     0.120 C 
HETATM   36  N4  UNL     1      14.290  17.068  15.876  1.00  0.00    -0.315 N 
HETATM   37  O5  UNL     1      15.456  16.962  17.988  1.00  0.00    -0.332 OA
HETATM   38  C16 UNL     1      13.457  16.415  14.927  1.00  0.00     0.187 C 
ATOM     39  H4  UNL     1      14.604  18.021  15.689  1.00  0.00     0.170 HD
HETATM   40  N5  UNL     1      13.775  16.431  13.670  1.00  0.00    -0.373 N 
HETATM   41  N6  UNL     1      12.265  15.730  15.312  1.00  0.00    -0.064 NA
ATOM     42  H52 UNL     1      14.627  16.921  13.394  1.00  0.00     0.158 HD
ATOM     43  H51 UNL     1      13.178  15.962  12.990  1.00  0.00     0.158 HD
ENDBRANCH  31  32
ENDBRANCH  30  31
ENDBRANCH   3  30
TORSDOF 9
ENDMDL
MODEL 2
REMARK VINA RESULT: -8.149214162      3.204      7.130
REMARK  9 active torsions:
REMARK  status: ('A' for Active; 'I' for Inactive)
REMARK       I    between atoms: C2_2  and  N1_4 
REMARK    1  A    between atoms: N1_4  and  C3_6 
REMARK    2  A    between atoms: C5_8  and  N2_9 
REMARK    3  A    between atoms: C6_13  and  N3_14 
REMARK    4  A    between atoms: C8_19  and  O2_20 
REMARK    5  A    between atoms: O2_20  and  C9_21 
REMARK    6  A    between atoms: C10_23  and  O4_24 
REMARK    7  A    between atoms: O4_24  and  C11_25 
REMARK    8  A    between atoms: C11_25  and  C12_26 
REMARK       I    between atoms: N4_30  and  C16_32 
REMARK    9  A    between atoms: C19_41  and  O7_42 
ROOT
HETATM    1  C9  UNL     1      16.539  15.625  18.001  1.00  0.00     0.296 C 
HETATM    2  O3  UNL     1      16.261  14.286  17.740  1.00  0.00    -0.305 OA
HETATM    3  C10 UNL     1      15.305  14.226  16.713  1.00  0.00     0.415 C 
HETATM    4  O6  UNL     1      14.083  14.753  17.146  1.00  0.00    -0.331 OA
HETATM    5  C17 UNL     1      14.185  16.074  17.547  1.00  0.00     0.156 C 
HETATM    6  C18 UNL     1      14.290  17.036  16.406  1.00  0.00     0.042 C 
HETATM    7  C19 UNL     1      15.274  16.235  18.576  1.00  0.00     0.202 C 
ENDROOT
BRANCH   1   8
HETATM    8  O2  UNL     1      17.536  15.784  18.942  1.00  0.00    -0.351 OA
BRANCH   8   9
HETATM    9  C8  UNL     1      18.774  15.353  18.553  1.00  0.00     0.149 C 
HETATM   10  C3  UNL     1      19.853  16.243  19.134  1.00  0.00     0.115 C 
HETATM   11  C4  UNL     1      21.053  15.428  19.613  1.00  0.00     0.062 C 
HETATM   12  C5  UNL     1      21.403  14.327  18.663  1.00  0.00     0.216 C 
HETATM   13  C6  UNL     1      20.248  13.433  18.332  1.00  0.00     0.216 C 
HETATM   14  C7  UNL     1      19.042  13.948  19.109  1.00  0.00     0.069 C 
BRANCH  10  15
HETATM   15  N1  UNL     1      19.316  16.998  20.235  1.00  0.00    -0.354 N 
HETATM   16  C2  UNL     1      19.912  18.175  20.739  1.00  0.00     0.214 C 
HETATM   17  C1  UNL     1      19.310  18.910  21.879  1.00  0.00     0.117 C 
HETATM   18  O1  UNL     1      20.967  18.607  20.213  1.00  0.00    -0.274 OA
ATOM     19  H1  UNL     1      18.460  16.664  20.677  1.00  0.00     0.162 HD
ENDBRANCH  10  15
BRANCH  12  20
HETATM   20  N2  UNL     1      22.461  13.544  19.261  1.00  0.00    -0.073 N 
ATOM     21  H23 UNL     1      23.237  14.116  19.593  1.00  0.00     0.274 HD
ATOM     22  H22 UNL     1      22.196  13.141  20.160  1.00  0.00     0.274 HD
ATOM     23  H21 UNL     1      22.751  12.840  18.583  1.00  0.00     0.274 HD
ENDBRANCH  12  20
BRANCH  13  24
HETATM   24  N3  UNL     1      20.464  12.053  18.661  1.00  0.00    -0.073 N 
ATOM     25  H33 UNL     1      20.645  11.507  17.817  1.00  0.00     0.274 HD
ATOM     26  H32 UNL     1      21.359  11.934  19.137  1.00  0.00     0.274 HD
ATOM     27  H31 UNL     1      19.711  11.632  19.204  1.00  0.00     0.274 HD
ENDBRANCH  13  24
ENDBRANCH   8   9
ENDBRANCH   1   8
BRANCH   7  28
HETATM   28  O7  UNL     1      14.886  15.503  19.704  1.00  0.00    -0.388 OA
ATOM     29  H7  UNL     1      15.174  15.961  20.485  1.00  0.00     0.210 HD
ENDBRANCH   7  28
BRANCH   3  30
HETATM   30  O4  UNL     1      15.743  14.776  15.551  1.00  0.00    -0.336 OA
BRANCH  30  31
HETATM   31  C11 UNL     1      16.442  14.090  14.642  1.00  0.00     0.205 C 
BRANCH  31  32
HETATM   32  C12 UNL     1      17.638  13.313  15.039  1.00  0.00     0.154 C 
HETATM   33  C13 UNL     1      18.912  14.050  15.249  1.00  0.00     0.043 C 
HETATM   34  C14 UNL     1      19.921  12.889  15.135  1.00  0.00     0.087 C 
HETATM   35  C15 UNL     1      19.351  12.166  13.969  1.00  0.00     0.120 C 
HETATM   36  N4  UNL     1      20.061  11.511  13.104  1.00  0.00    -0.315 N 
HETATM   37  O5  UNL     1      17.985  12.341  14.020  1.00  0.00    -0.332 OA
HETATM   38  C16 UNL     1      21.476  11.435  13.208  1.00  0.00     0.187 C 
ATOM     39  H4  UNL     1      19.592  11.040  12.330  1.00  0.00     0.170 HD
HETATM   40  N5  UNL     1      22.213  11.670  12.167  1.00  0.00    -0.373 N 
HETATM   41  N6  UNL     1      22.127  11.104  14.434  1.00  0.00    -0.064 NA
ATOM     42  H52 UNL     1      21.748  11.906  11.291  1.00  0.00     0.158 HD
ATOM     43  H51 UNL     1      23.229  11.616  12.242  1.00  0.00     0.158 HD
ENDBRANCH  31  32
ENDBRANCH  30  31
ENDBRANCH   3  30
TORSDOF 9
ENDMDL
MODEL 3
REMARK VINA RESULT: -8.123153446      2.833      6.504
REMARK  9 active torsions:
REMARK  status: ('A' for Active; 'I' for Inactive)
REMARK       I    between atoms: C2_2  and  N1_4 
REMARK    1  A    between atoms: N1_4  and  C3_6 
REMARK    2  A    between atoms: C5_8  and  N2_9 
REMARK    3  A    between atoms: C6_13  and  N3_14 
REMARK    4  A    between atoms: C8_19  and  O2_20 
REMARK    5  A    between atoms: O2_20  and  C9_21 
REMARK    6  A    between atoms: C10_23  and  O4_24 
REMARK    7  A    between atoms: O4_24  and  C11_25 
REMARK    8  A    between atoms: C11_25  and  C12_26 
REMARK       I    between atoms: N4_30  and  C16_32 
REMARK    9  A    between atoms: C19_41  and  O7_42 
ROOT
HETATM    1  C9  UNL     1      17.660  13.413  14.486  1.00  0.00     0.296 C 
HETATM    2  O3  UNL     1      17.356  12.193  15.083  1.00  0.00    -0.305 OA
HETATM    3  C10 UNL     1      18.507  11.390  15.057  1.00  0.00     0.415 C 
HETATM    4  O6  UNL     1      18.844  11.054  13.740  1.00  0.00    -0.331 OA
HETATM    5  C17 UNL     1      19.091  12.166  12.954  1.00  0.00     0.156 C 
HETATM    6  C18 UNL     1      20.420  12.800  13.220  1.00  0.00     0.042 C 
HETATM    7  C19 UNL     1      17.936  13.131  13.020  1.00  0.00     0.202 C 
ENDROOT
BRANCH   1   8
HETATM    8  O2  UNL     1      16.609  14.306  14.542  1.00  0.00    -0.351 OA
BRANCH   8   9
HETATM    9  C8  UNL     1      16.196  14.637  15.803  1.00  0.00     0.149 C 
HETATM   10  C3  UNL     1      15.190  15.767  15.752  1.00  0.00     0.115 C 
HETATM   11  C4  UNL     1      14.050  15.547  16.746  1.00  0.00     0.062 C 
HETATM   12  C5  UNL     1      14.541  15.020  18.058  1.00  0.00     0.216 C 
HETATM   13  C6  UNL     1      15.384  13.790  17.931  1.00  0.00     0.216 C 
HETATM   14  C7  UNL     1      15.467  13.451  16.448  1.00  0.00     0.069 C 
BRANCH  10  15
HETATM   15  N1  UNL     1      14.650  15.875  14.422  1.00  0.00    -0.354 N 
HETATM   16  C2  UNL     1      13.824  16.940  13.999  1.00  0.00     0.214 C 
HETATM   17  C1  UNL     1      13.298  16.995  12.612  1.00  0.00     0.117 C 
HETATM   18  O1  UNL     1      13.531  17.854  14.808  1.00  0.00    -0.274 OA
ATOM     19  H1  UNL     1      14.876  15.143  13.749  1.00  0.00     0.162 HD
ENDBRANCH  10  15
BRANCH  12  20
HETATM   20  N2  UNL     1      13.386  14.730  18.879  1.00  0.00    -0.073 N 
ATOM     21  H23 UNL     1      12.951  15.569  19.262  1.00  0.00     0.274 HD
ATOM     22  H22 UNL     1      12.588  14.400  18.336  1.00  0.00     0.274 HD
ATOM     23  H21 UNL     1      13.673  14.069  19.600  1.00  0.00     0.274 HD
ENDBRANCH  12  20
BRANCH  13  24
HETATM   24  N3  UNL     1      14.872  12.655  18.644  1.00  0.00    -0.073 N 
ATOM     25  H33 UNL     1      15.636  12.114  19.052  1.00  0.00     0.274 HD
ATOM     26  H32 UNL     1      14.397  12.952  19.497  1.00  0.00     0.274 HD
ATOM     27  H31 UNL     1      14.266  12.052  18.087  1.00  0.00     0.274 HD
ENDBRANCH  13  24
ENDBRANCH   8   9
ENDBRANCH   1   8
BRANCH   7  28
HETATM   28  O7  UNL     1      16.826  12.485  12.463  1.00  0.00    -0.388 OA
ATOM     29  H7  UNL     1      16.441  13.047  11.801  1.00  0.00     0.210 HD
ENDBRANCH   7  28
BRANCH   3  30
HETATM   30  O4  UNL     1      19.541  11.926  15.753  1.00  0.00    -0.336 OA
BRANCH  30  31
HETATM   31  C11 UNL     1      19.656  11.818  17.080  1.00  0.00     0.205 C 
BRANCH  31  32
HETATM   32  C12 UNL     1      19.991  13.000  17.907  1.00  0.00     0.154 C 
HETATM   33  C13 UNL     1      19.589  12.987  19.338  1.00  0.00     0.043 C 
HETATM   34  C14 UNL     1      19.652  14.496  19.653  1.00  0.00     0.087 C 
HETATM   35  C15 UNL     1      19.014  15.041  18.427  1.00  0.00     0.120 C 
HETATM   36  N4  UNL     1      18.296  16.121  18.402  1.00  0.00    -0.315 N 
HETATM   37  O5  UNL     1      19.342  14.191  17.394  1.00  0.00    -0.332 OA
HETATM   38  C16 UNL     1      18.058  16.884  19.577  1.00  0.00     0.187 C 
ATOM     39  H4  UNL     1      17.892  16.430  17.518  1.00  0.00     0.170 HD
HETATM   40  N5  UNL     1      16.853  17.264  19.866  1.00  0.00    -0.373 N 
HETATM   41  N6  UNL     1      19.113  17.252  20.466  1.00  0.00    -0.064 NA
ATOM     42  H52 UNL     1      16.099  17.002  19.231  1.00  0.00     0.158 HD
ATOM     43  H51 UNL     1      16.682  17.811  20.710  1.00  0.00     0.158 HD
ENDBRANCH  31  32
ENDBRANCH  30  31
ENDBRANCH   3  30
TORSDOF 9
ENDMDL
MODEL 4
REMARK VINA RESULT: -8.114583110      2.956      8.406
REMARK  9 active torsions:
REMARK  status: ('A' for Active; 'I' for Inactive)
REMARK       I    between atoms: C2_2  and  N1_4 
REMARK    1  A    between atoms: N1_4  and  C3_6 
REMARK    2  A    between atoms: C5_8  and  N2_9 
REMARK    3  A    between atoms: C6_13  and  N3_14 
REMARK    4  A    between atoms: C8_19  and  O2_20 
REMARK    5  A    between atoms: O2_20  and  C9_21 
REMARK    6  A    between atoms: C10_23  and  O4_24 
REMARK    7  A    between atoms: O4_24  and  C11_25 
REMARK    8  A    between atoms: C11_25  and  C12_26 
REMARK       I    between atoms: N4_30  and  C16_32 
REMARK    9  A    between atoms: C19_41  and  O7_42 
ROOT
HETATM    1  C9  UNL     1      17.063  13.862  16.188  1.00  0.00     0.296 C 
HETATM    2  O3  UNL     1      16.552  12.613  15.851  1.00  0.00    -0.305 OA
HETATM    3  C10 UNL     1      16.873  12.352  14.509  1.00  0.00     0.415 C 
HETATM    4  O6  UNL     1      16.201  13.240  13.660  1.00  0.00    -0.331 OA
HETATM    5  C17 UNL     1      16.515  14.562  13.917  1.00  0.00     0.156 C 
HETATM    6  C18 UNL     1      17.863  14.965  13.407  1.00  0.00     0.042 C 
HETATM    7  C19 UNL     1      16.298  14.888  15.373  1.00  0.00     0.202 C 
ENDROOT
BRANCH   1   8
HETATM    8  O2  UNL     1      16.871  14.169  17.520  1.00  0.00    -0.351 OA
BRANCH   8   9
HETATM    9  C8  UNL     1      17.676  15.161  18.009  1.00  0.00     0.149 C 
HETATM   10  C3  UNL     1      16.883  16.102  18.891  1.00  0.00     0.115 C 
HETATM   11  C4  UNL     1      17.678  16.511  20.130  1.00  0.00     0.062 C 
HETATM   12  C5  UNL     1      19.113  16.790  19.812  1.00  0.00     0.216 C 
HETATM   13  C6  UNL     1      19.794  15.672  19.086  1.00  0.00     0.216 C 
HETATM   14  C7  UNL     1      18.767  14.560  18.905  1.00  0.00     0.069 C 
BRANCH  10  15
HETATM   15  N1  UNL     1      15.657  15.467  19.297  1.00  0.00    -0.354 N 
HETATM   16  C2  UNL     1      14.388  15.824  18.791  1.00  0.00     0.214 C 
HETATM   17  C1  UNL     1      13.159  15.130  19.250  1.00  0.00     0.117 C 
HETATM   18  O1  UNL     1      14.298  16.740  17.938  1.00  0.00    -0.274 OA
ATOM     19  H1  UNL     1      15.708  14.720  19.990  1.00  0.00     0.162 HD
ENDBRANCH  10  15
BRANCH  12  20
HETATM   20  N2  UNL     1      19.802  17.044  21.058  1.00  0.00    -0.073 N 
ATOM     21  H23 UNL     1      20.318  17.924  21.053  1.00  0.00     0.274 HD
ATOM     22  H22 UNL     1      19.166  17.264  21.824  1.00  0.00     0.274 HD
ATOM     23  H21 UNL     1      20.396  16.240  21.257  1.00  0.00     0.274 HD
ENDBRANCH  12  20
BRANCH  13  24
HETATM   24  N3  UNL     1      20.941  15.145  19.767  1.00  0.00    -0.073 N 
ATOM     25  H33 UNL     1      21.038  14.145  19.586  1.00  0.00     0.274 HD
ATOM     26  H32 UNL     1      21.801  15.483  19.335  1.00  0.00     0.274 HD
ATOM     27  H31 UNL     1      20.949  15.328  20.771  1.00  0.00     0.274 HD
ENDBRANCH  13  24
ENDBRANCH   8   9
ENDBRANCH   1   8
BRANCH   7  28
HETATM   28  O7  UNL     1      14.930  14.745  15.627  1.00  0.00    -0.388 OA
ATOM     29  H7  UNL     1      14.733  13.825  15.759  1.00  0.00     0.210 HD
ENDBRANCH   7  28
BRANCH   3  30
HETATM   30  O4  UNL     1      18.211  12.308  14.285  1.00  0.00    -0.336 OA
BRANCH  30  31
HETATM   31  C11 UNL     1      18.755  11.630  13.270  1.00  0.00     0.205 C 
BRANCH  31  32
HETATM   32  C12 UNL     1      20.025  10.890  13.451  1.00  0.00     0.154 C 
HETATM   33  C13 UNL     1      20.810  11.143  14.687  1.00  0.00     0.043 C 
HETATM   34  C14 UNL     1      22.191  10.617  14.246  1.00  0.00     0.087 C 
HETATM   35  C15 UNL     1      22.256  11.180  12.873  1.00  0.00     0.120 C 
HETATM   36  N4  UNL     1      23.354  11.553  12.293  1.00  0.00    -0.315 N 
HETATM   37  O5  UNL     1      20.965  11.211  12.393  1.00  0.00    -0.332 OA
HETATM   38  C16 UNL     1      24.613  11.448  12.945  1.00  0.00     0.187 C 
ATOM     39  H4  UNL     1      23.314  11.931  11.346  1.00  0.00     0.170 HD
HETATM   40  N5  UNL     1      25.425  12.459  12.944  1.00  0.00    -0.373 N 
HETATM   41  N6  UNL     1      25.022  10.254  13.611  1.00  0.00    -0.064 NA
ATOM     42  H52 UNL     1      25.133  13.313  12.468  1.00  0.00     0.158 HD
ATOM     43  H51 UNL     1      26.328  12.384  13.413  1.00  0.00     0.158 HD
ENDBRANCH  31  32
ENDBRANCH  30  31
ENDBRANCH   3  30
TORSDOF 9
ENDMDL
MODEL 5
REMARK VINA RESULT: -8.014092839      3.290      6.777
REMARK  9 active torsions:
REMARK  status: ('A' for Active; 'I' for Inactive)
REMARK       I    between atoms: C2_2  and  N1_4 
REMARK    1  A    between atoms: N1_4  and  C3_6 
REMARK    2  A    between atoms: C5_8  and  N2_9 
REMARK    3  A    between atoms: C6_13  and  N3_14 
REMARK    4  A    between atoms: C8_19  and  O2_20 
REMARK    5  A    between atoms: O2_20  and  C9_21 
REMARK    6  A    between atoms: C10_23  and  O4_24 
REMARK    7  A    between atoms: O4_24  and  C11_25 
REMARK    8  A    between atoms: C11_25  and  C12_26 
REMARK       I    between atoms: N4_30  and  C16_32 
REMARK    9  A    between atoms: C19_41  and  O7_42 
ROOT
HETATM    1  C9  UNL     1      17.057  13.967  16.435  1.00  0.00     0.296 C 
HETATM    2  O3  UNL     1      17.321  13.000  17.400  1.00  0.00    -0.305 OA
HETATM    3  C10 UNL     1      18.711  12.813  17.469  1.00  0.00     0.415 C 
HETATM    4  O6  UNL     1      19.194  12.254  16.280  1.00  0.00    -0.331 OA
HETATM    5  C17 UNL     1      18.931  13.044  15.175  1.00  0.00     0.156 C 
HETATM    6  C18 UNL     1      19.825  14.240  15.072  1.00  0.00     0.042 C 
HETATM    7  C19 UNL     1      17.464  13.379  15.096  1.00  0.00     0.202 C 
ENDROOT
BRANCH   1   8
HETATM    8  O2  UNL     1      15.716  14.282  16.355  1.00  0.00    -0.351 OA
BRANCH   8   9
HETATM    9  C8  UNL     1      15.259  15.127  17.328  1.00  0.00     0.149 C 
HETATM   10  C3  UNL     1      14.468  16.263  16.715  1.00  0.00     0.115 C 
HETATM   11  C4  UNL     1      13.227  16.592  17.544  1.00  0.00     0.062 C 
HETATM   12  C5  UNL     1      13.507  16.562  19.014  1.00  0.00     0.216 C 
HETATM   13  C6  UNL     1      14.136  15.286  19.478  1.00  0.00     0.216 C 
HETATM   14  C7  UNL     1      14.286  14.387  18.256  1.00  0.00     0.069 C 
BRANCH  10  15
HETATM   15  N1  UNL     1      14.070  15.910  15.378  1.00  0.00    -0.354 N 
HETATM   16  C2  UNL     1      13.709  16.858  14.395  1.00  0.00     0.214 C 
HETATM   17  C1  UNL     1      13.308  16.431  13.031  1.00  0.00     0.117 C 
HETATM   18  O1  UNL     1      13.730  18.081  14.678  1.00  0.00    -0.274 OA
ATOM     19  H1  UNL     1      14.047  14.922  15.127  1.00  0.00     0.162 HD
ENDBRANCH  10  15
BRANCH  12  20
HETATM   20  N2  UNL     1      12.254  16.761  19.708  1.00  0.00    -0.073 N 
ATOM     21  H23 UNL     1      12.380  17.076  20.670  1.00  0.00     0.274 HD
ATOM     22  H22 UNL     1      11.737  17.572  19.367  1.00  0.00     0.274 HD
ATOM     23  H21 UNL     1      11.720  15.896  19.643  1.00  0.00     0.274 HD
ENDBRANCH  12  20
BRANCH  13  24
HETATM   24  N3  UNL     1      13.380  14.592  20.480  1.00  0.00    -0.073 N 
ATOM     25  H33 UNL     1      13.352  15.132  21.346  1.00  0.00     0.274 HD
ATOM     26  H32 UNL     1      12.387  14.593  20.244  1.00  0.00     0.274 HD
ATOM     27  H31 UNL     1      13.704  13.642  20.662  1.00  0.00     0.274 HD
ENDBRANCH  13  24
ENDBRANCH   8   9
ENDBRANCH   1   8
BRANCH   7  28
HETATM   28  O7  UNL     1      16.777  12.175  14.899  1.00  0.00    -0.388 OA
ATOM     29  H7  UNL     1      17.122  11.521  15.496  1.00  0.00     0.210 HD
ENDBRANCH   7  28
BRANCH   3  30
HETATM   30  O4  UNL     1      19.377  13.937  17.840  1.00  0.00    -0.336 OA
BRANCH  30  31
HETATM   31  C11 UNL     1      19.671  14.221  19.112  1.00  0.00     0.205 C 
BRANCH  31  32
HETATM   32  C12 UNL     1      18.917  15.262  19.847  1.00  0.00     0.154 C 
HETATM   33  C13 UNL     1      18.225  16.312  19.055  1.00  0.00     0.043 C 
HETATM   34  C14 UNL     1      18.037  17.393  20.139  1.00  0.00     0.087 C 
HETATM   35  C15 UNL     1      19.368  17.333  20.796  1.00  0.00     0.120 C 
HETATM   36  N4  UNL     1      19.958  18.355  21.333  1.00  0.00    -0.315 N 
HETATM   37  O5  UNL     1      19.798  16.027  20.708  1.00  0.00    -0.332 OA
HETATM   38  C16 UNL     1      19.359  19.644  21.333  1.00  0.00     0.187 C 
ATOM     39  H4  UNL     1      20.873  18.231  21.766  1.00  0.00     0.170 HD
HETATM   40  N5  UNL     1      20.054  20.677  20.969  1.00  0.00    -0.373 N 
HETATM   41  N6  UNL     1      18.003  19.848  21.726  1.00  0.00    -0.064 NA
ATOM     42  H52 UNL     1      21.024  20.532  20.689  1.00  0.00     0.158 HD
ATOM     43  H51 UNL     1      19.624  21.602  20.968  1.00  0.00     0.158 HD
ENDBRANCH  31  32
ENDBRANCH  30  31
ENDBRANCH   3  30
TORSDOF 9
ENDMDL
