MODEL 1
REMARK VINA RESULT: -8.607251416      0.000      0.000
REMARK  15 active torsions:
REMARK  status: ('A' for Active; 'I' for Inactive)
REMARK    1  A    between atoms: C2_2  and  O1_5 
REMARK    2  A    between atoms: O1_5  and  C5_6 
REMARK    3  A    between atoms: C5_6  and  C6_8 
REMARK    4  A    between atoms: C6_8  and  N1_11 
REMARK       I    between atoms: N1_11  and  C9_13 
REMARK    5  A    between atoms: C9_13  and  C10_15 
REMARK    6  A    between atoms: C10_15  and  C11_16 
REMARK    7  A    between atoms: C10_15  and  N3_35 
REMARK    8  A    between atoms: C11_16  and  O4_17 
REMARK    9  A    between atoms: C12_19  and  O5_20 
REMARK   10  A    between atoms: O5_20  and  C13_21 
REMARK       I    between atoms: C13_21  and  N2_23 
REMARK   11  A    between atoms: N2_23  and  C14_25 
REMARK   12  A    between atoms: C18_29  and  O7_30 
REMARK   13  A    between atoms: C19_32  and  O8_33 
REMARK   14  A    between atoms: N3_35  and  O9_36 
REMARK   15  A    between atoms: N3_35  and  C20_38 
ROOT
HETATM    1  C10 UNL     1      19.116  11.316  14.668  1.00  0.00     0.267 C 
ENDROOT
BRANCH   1   2
HETATM    2  C9  UNL     1      19.184  11.703  16.099  1.00  0.00     0.250 C 
HETATM    3  N1  UNL     1      19.752  12.953  16.440  1.00  0.00    -0.341 N 
ATOM      4  H1  UNL     1      20.092  13.544  15.680  1.00  0.00     0.163 HD
HETATM    5  O3  UNL     1      18.749  10.946  17.000  1.00  0.00    -0.271 OA
BRANCH   3   6
HETATM    6  C6  UNL     1      19.882  13.448  17.775  1.00  0.00     0.113 C 
HETATM    7  C7  UNL     1      21.218  14.186  17.966  1.00  0.00     0.049 C 
HETATM    8  C8  UNL     1      19.938  12.281  18.742  1.00  0.00     0.049 C 
BRANCH   6   9
HETATM    9  C5  UNL     1      18.832  14.423  18.164  1.00  0.00     0.287 C 
HETATM   10  O2  UNL     1      17.639  14.030  18.161  1.00  0.00    -0.262 OA
BRANCH   9  11
HETATM   11  O1  UNL     1      19.081  15.717  18.523  1.00  0.00    -0.309 OA
BRANCH  11  12
HETATM   12  C2  UNL     1      18.841  16.286  19.776  1.00  0.00     0.060 C 
HETATM   13  C1  UNL     1      18.916  15.305  20.917  1.00  0.00     0.045 C 
HETATM   14  C3  UNL     1      17.494  17.011  19.825  1.00  0.00     0.045 C 
HETATM   15  C4  UNL     1      19.906  17.340  20.017  1.00  0.00     0.045 C 
ENDBRANCH  11  12
ENDBRANCH   9  11
ENDBRANCH   6   9
ENDBRANCH   3   6
ENDBRANCH   1   2
BRANCH   1  16
HETATM   16  C11 UNL     1      18.107  12.055  13.914  1.00  0.00     0.100 C 
HETATM   17  C12 UNL     1      17.394  12.975  14.503  1.00  0.00     0.182 C 
BRANCH  16  18
HETATM   18  O4  UNL     1      17.900  11.785  12.580  1.00  0.00    -0.360 OA
ATOM     19  H4  UNL     1      17.065  11.985  12.174  1.00  0.00     0.217 HD
ENDBRANCH  16  18
BRANCH  17  20
HETATM   20  O5  UNL     1      16.411  13.727  13.863  1.00  0.00    -0.271 OA
BRANCH  20  21
HETATM   21  C13 UNL     1      15.601  14.590  14.587  1.00  0.00     0.365 C 
HETATM   22  O6  UNL     1      15.113  15.564  13.965  1.00  0.00    -0.238 OA
HETATM   23  N2  UNL     1      15.323  14.397  15.969  1.00  0.00    -0.329 N 
ATOM     24  H2  UNL     1      15.730  13.598  16.455  1.00  0.00     0.165 HD
BRANCH  23  25
HETATM   25  C14 UNL     1      14.485  15.301  16.688  1.00  0.00     0.118 C 
HETATM   26  C15 UNL     1      14.541  14.998  18.169  1.00  0.00     0.028 C 
HETATM   27  C16 UNL     1      13.756  16.041  18.917  1.00  0.00     0.005 C 
HETATM   28  C17 UNL     1      12.311  15.935  18.442  1.00  0.00     0.034 C 
HETATM   29  C18 UNL     1      12.316  16.366  16.980  1.00  0.00     0.148 C 
HETATM   30  C19 UNL     1      13.049  15.288  16.207  1.00  0.00     0.169 C 
BRANCH  29  31
HETATM   31  O7  UNL     1      13.055  17.548  16.917  1.00  0.00    -0.393 OA
ATOM     32  H7  UNL     1      13.649  17.457  16.181  1.00  0.00     0.210 HD
ENDBRANCH  29  31
BRANCH  30  33
HETATM   33  O8  UNL     1      12.451  14.050  16.491  1.00  0.00    -0.391 OA
ATOM     34  H8  UNL     1      12.295  13.567  15.689  1.00  0.00     0.210 HD
ENDBRANCH  30  33
ENDBRANCH  23  25
ENDBRANCH  20  21
ENDBRANCH  17  20
ENDBRANCH   1  16
BRANCH   1  35
HETATM   35  N3  UNL     1      20.406  11.574  14.029  1.00  0.00    -0.215 N 
BRANCH  35  36
HETATM   36  O9  UNL     1      20.632  12.777  13.486  1.00  0.00    -0.284 OA
ATOM     37  H9  UNL     1      21.392  12.896  12.930  1.00  0.00     0.245 HD
ENDBRANCH  35  36
BRANCH  35  38
HETATM   38  C20 UNL     1      21.402  10.583  13.976  1.00  0.00     0.377 C 
HETATM   39  O10 UNL     1      22.515  10.791  14.555  1.00  0.00    -0.281 OA
ENDBRANCH  35  38
ENDBRANCH   1  35
TORSDOF 15
ENDMDL
MODEL 2
REMARK VINA RESULT: -8.519390473      1.101      1.273
REMARK  15 active torsions:
REMARK  status: ('A' for Active; 'I' for Inactive)
REMARK    1  A    between atoms: C2_2  and  O1_5 
REMARK    2  A    between atoms: O1_5  and  C5_6 
REMARK    3  A    between atoms: C5_6  and  C6_8 
REMARK    4  A    between atoms: C6_8  and  N1_11 
REMARK       I    between atoms: N1_11  and  C9_13 
REMARK    5  A    between atoms: C9_13  and  C10_15 
REMARK    6  A    between atoms: C10_15  and  C11_16 
REMARK    7  A    between atoms: C10_15  and  N3_35 
REMARK    8  A    between atoms: C11_16  and  O4_17 
REMARK    9  A    between atoms: C12_19  and  O5_20 
REMARK   10  A    between atoms: O5_20  and  C13_21 
REMARK       I    between atoms: C13_21  and  N2_23 
REMARK   11  A    between atoms: N2_23  and  C14_25 
REMARK   12  A    between atoms: C18_29  and  O7_30 
REMARK   13  A    between atoms: C19_32  and  O8_33 
REMARK   14  A    between atoms: N3_35  and  O9_36 
REMARK   15  A    between atoms: N3_35  and  C20_38 
ROOT
HETATM    1  C10 UNL     1      19.566  11.842  14.791  1.00  0.00     0.267 C 
ENDROOT
BRANCH   1   2
HETATM    2  C9  UNL     1      19.958  12.747  15.900  1.00  0.00     0.250 C 
HETATM    3  N1  UNL     1      19.500  12.461  17.207  1.00  0.00    -0.341 N 
ATOM      4  H1  UNL     1      18.917  11.634  17.335  1.00  0.00     0.163 HD
HETATM    5  O3  UNL     1      20.681  13.752  15.695  1.00  0.00    -0.271 OA
BRANCH   3   6
HETATM    6  C6  UNL     1      19.799  13.249  18.362  1.00  0.00     0.113 C 
HETATM    7  C7  UNL     1      21.223  13.825  18.287  1.00  0.00     0.049 C 
HETATM    8  C8  UNL     1      19.799  12.362  19.593  1.00  0.00     0.049 C 
BRANCH   6   9
HETATM    9  C5  UNL     1      18.907  14.423  18.541  1.00  0.00     0.287 C 
HETATM   10  O2  UNL     1      17.674  14.248  18.381  1.00  0.00    -0.262 OA
BRANCH   9  11
HETATM   11  O1  UNL     1      19.342  15.675  18.866  1.00  0.00    -0.309 OA
BRANCH  11  12
HETATM   12  C2  UNL     1      19.000  16.396  20.013  1.00  0.00     0.060 C 
HETATM   13  C1  UNL     1      19.032  15.579  21.278  1.00  0.00     0.045 C 
HETATM   14  C3  UNL     1      17.630  17.064  19.880  1.00  0.00     0.045 C 
HETATM   15  C4  UNL     1      20.011  17.516  20.173  1.00  0.00     0.045 C 
ENDBRANCH  11  12
ENDBRANCH   9  11
ENDBRANCH   6   9
ENDBRANCH   3   6
ENDBRANCH   1   2
BRANCH   1  16
HETATM   16  C11 UNL     1      18.362  12.273  14.088  1.00  0.00     0.100 C 
HETATM   17  C12 UNL     1      17.769  13.385  14.427  1.00  0.00     0.182 C 
BRANCH  16  18
HETATM   18  O4  UNL     1      17.843  11.511  13.065  1.00  0.00    -0.360 OA
ATOM     19  H4  UNL     1      17.940  11.789  12.162  1.00  0.00     0.217 HD
ENDBRANCH  16  18
BRANCH  17  20
HETATM   20  O5  UNL     1      16.616  13.871  13.813  1.00  0.00    -0.271 OA
BRANCH  20  21
HETATM   21  C13 UNL     1      15.594  14.424  14.570  1.00  0.00     0.365 C 
HETATM   22  O6  UNL     1      14.761  15.139  13.962  1.00  0.00    -0.238 OA
HETATM   23  N2  UNL     1      15.477  14.205  15.971  1.00  0.00    -0.329 N 
ATOM     24  H2  UNL     1      16.166  13.621  16.446  1.00  0.00     0.165 HD
BRANCH  23  25
HETATM   25  C14 UNL     1      14.414  14.787  16.725  1.00  0.00     0.118 C 
HETATM   26  C15 UNL     1      14.897  16.035  17.429  1.00  0.00     0.028 C 
HETATM   27  C16 UNL     1      13.731  16.701  18.110  1.00  0.00     0.005 C 
HETATM   28  C17 UNL     1      13.201  15.717  19.147  1.00  0.00     0.034 C 
HETATM   29  C18 UNL     1      12.629  14.544  18.362  1.00  0.00     0.148 C 
HETATM   30  C19 UNL     1      13.802  13.827  17.724  1.00  0.00     0.169 C 
BRANCH  29  31
HETATM   31  O7  UNL     1      11.833  15.091  17.354  1.00  0.00    -0.393 OA
ATOM     32  H7  UNL     1      11.090  15.495  17.785  1.00  0.00     0.210 HD
ENDBRANCH  29  31
BRANCH  30  33
HETATM   33  O8  UNL     1      14.731  13.512  18.729  1.00  0.00    -0.391 OA
ATOM     34  H8  UNL     1      14.360  13.684  19.586  1.00  0.00     0.210 HD
ENDBRANCH  30  33
ENDBRANCH  23  25
ENDBRANCH  20  21
ENDBRANCH  17  20
ENDBRANCH   1  16
BRANCH   1  35
HETATM   35  N3  UNL     1      20.643  11.783  13.803  1.00  0.00    -0.215 N 
BRANCH  35  36
HETATM   36  O9  UNL     1      20.762  12.774  12.913  1.00  0.00    -0.284 OA
ATOM     37  H9  UNL     1      20.868  13.665  13.226  1.00  0.00     0.245 HD
ENDBRANCH  35  36
BRANCH  35  38
HETATM   38  C20 UNL     1      21.547  10.705  13.778  1.00  0.00     0.377 C 
HETATM   39  O10 UNL     1      22.585  10.748  14.511  1.00  0.00    -0.281 OA
ENDBRANCH  35  38
ENDBRANCH   1  35
TORSDOF 15
ENDMDL
MODEL 3
REMARK VINA RESULT: -7.925106551      1.493      2.031
REMARK  15 active torsions:
REMARK  status: ('A' for Active; 'I' for Inactive)
REMARK    1  A    between atoms: C2_2  and  O1_5 
REMARK    2  A    between atoms: O1_5  and  C5_6 
REMARK    3  A    between atoms: C5_6  and  C6_8 
REMARK    4  A    between atoms: C6_8  and  N1_11 
REMARK       I    between atoms: N1_11  and  C9_13 
REMARK    5  A    between atoms: C9_13  and  C10_15 
REMARK    6  A    between atoms: C10_15  and  C11_16 
REMARK    7  A    between atoms: C10_15  and  N3_35 
REMARK    8  A    between atoms: C11_16  and  O4_17 
REMARK    9  A    between atoms: C12_19  and  O5_20 
REMARK   10  A    between atoms: O5_20  and  C13_21 
REMARK       I    between atoms: C13_21  and  N2_23 
REMARK   11  A    between atoms: N2_23  and  C14_25 
REMARK   12  A    between atoms: C18_29  and  O7_30 
REMARK   13  A    between atoms: C19_32  and  O8_33 
REMARK   14  A    between atoms: N3_35  and  O9_36 
REMARK   15  A    between atoms: N3_35  and  C20_38 
ROOT
HETATM    1  C10 UNL     1      19.163  11.538  15.595  1.00  0.00     0.267 C 
ENDROOT
BRANCH   1   2
HETATM    2  C9  UNL     1      19.391  11.883  17.020  1.00  0.00     0.250 C 
HETATM    3  N1  UNL     1      20.029  13.108  17.331  1.00  0.00    -0.341 N 
ATOM      4  H1  UNL     1      20.305  13.710  16.555  1.00  0.00     0.163 HD
HETATM    5  O3  UNL     1      19.031  11.113  17.942  1.00  0.00    -0.271 OA
BRANCH   3   6
HETATM    6  C6  UNL     1      20.312  13.560  18.657  1.00  0.00     0.113 C 
HETATM    7  C7  UNL     1      21.779  14.002  18.792  1.00  0.00     0.049 C 
HETATM    8  C8  UNL     1      20.159  12.405  19.628  1.00  0.00     0.049 C 
BRANCH   6   9
HETATM    9  C5  UNL     1      19.506  14.734  19.081  1.00  0.00     0.287 C 
HETATM   10  O2  UNL     1      20.107  15.823  19.254  1.00  0.00    -0.262 OA
BRANCH   9  11
HETATM   11  O1  UNL     1      18.158  14.703  19.293  1.00  0.00    -0.309 OA
BRANCH  11  12
HETATM   12  C2  UNL     1      17.167  14.993  18.352  1.00  0.00     0.060 C 
HETATM   13  C1  UNL     1      16.508  13.773  17.764  1.00  0.00     0.045 C 
HETATM   14  C3  UNL     1      17.696  15.874  17.219  1.00  0.00     0.045 C 
HETATM   15  C4  UNL     1      16.086  15.796  19.052  1.00  0.00     0.045 C 
ENDBRANCH  11  12
ENDBRANCH   9  11
ENDBRANCH   6   9
ENDBRANCH   3   6
ENDBRANCH   1   2
BRANCH   1  16
HETATM   16  C11 UNL     1      18.550  12.619  14.827  1.00  0.00     0.100 C 
HETATM   17  C12 UNL     1      17.421  12.420  14.204  1.00  0.00     0.182 C 
BRANCH  16  18
HETATM   18  O4  UNL     1      19.159  13.852  14.754  1.00  0.00    -0.360 OA
ATOM     19  H4  UNL     1      19.366  14.333  15.546  1.00  0.00     0.217 HD
ENDBRANCH  16  18
BRANCH  17  20
HETATM   20  O5  UNL     1      16.767  13.392  13.450  1.00  0.00    -0.271 OA
BRANCH  20  21
HETATM   21  C13 UNL     1      16.183  14.489  14.067  1.00  0.00     0.365 C 
HETATM   22  O6  UNL     1      16.646  15.617  13.774  1.00  0.00    -0.238 OA
HETATM   23  N2  UNL     1      15.109  14.362  14.993  1.00  0.00    -0.329 N 
ATOM     24  H2  UNL     1      14.749  13.435  15.217  1.00  0.00     0.165 HD
BRANCH  23  25
HETATM   25  C14 UNL     1      14.529  15.509  15.613  1.00  0.00     0.118 C 
HETATM   26  C15 UNL     1      13.433  15.087  16.567  1.00  0.00     0.028 C 
HETATM   27  C16 UNL     1      12.925  16.297  17.303  1.00  0.00     0.005 C 
HETATM   28  C17 UNL     1      12.339  17.240  16.257  1.00  0.00     0.034 C 
HETATM   29  C18 UNL     1      13.514  17.712  15.410  1.00  0.00     0.148 C 
HETATM   30  C19 UNL     1      13.993  16.514  14.615  1.00  0.00     0.169 C 
BRANCH  29  31
HETATM   31  O7  UNL     1      14.519  18.092  16.301  1.00  0.00    -0.393 OA
ATOM     32  H7  UNL     1      15.325  18.132  15.799  1.00  0.00     0.210 HD
ENDBRANCH  29  31
BRANCH  30  33
HETATM   33  O8  UNL     1      12.899  15.975  13.920  1.00  0.00    -0.391 OA
ATOM     34  H8  UNL     1      12.238  16.642  13.775  1.00  0.00     0.210 HD
ENDBRANCH  30  33
ENDBRANCH  23  25
ENDBRANCH  20  21
ENDBRANCH  17  20
ENDBRANCH   1  16
BRANCH   1  35
HETATM   35  N3  UNL     1      20.441  11.227  14.955  1.00  0.00    -0.215 N 
BRANCH  35  36
HETATM   36  O9  UNL     1      21.520  11.953  15.275  1.00  0.00    -0.284 OA
ATOM     37  H9  UNL     1      21.565  12.357  16.134  1.00  0.00     0.245 HD
ENDBRANCH  35  36
BRANCH  35  38
HETATM   38  C20 UNL     1      20.550  10.185  14.017  1.00  0.00     0.377 C 
HETATM   39  O10 UNL     1      21.704   9.786  13.665  1.00  0.00    -0.281 OA
ENDBRANCH  35  38
ENDBRANCH   1  35
TORSDOF 15
ENDMDL
MODEL 4
REMARK VINA RESULT: -7.922484784      3.608      7.900
REMARK  15 active torsions:
REMARK  status: ('A' for Active; 'I' for Inactive)
REMARK    1  A    between atoms: C2_2  and  O1_5 
REMARK    2  A    between atoms: O1_5  and  C5_6 
REMARK    3  A    between atoms: C5_6  and  C6_8 
REMARK    4  A    between atoms: C6_8  and  N1_11 
REMARK       I    between atoms: N1_11  and  C9_13 
REMARK    5  A    between atoms: C9_13  and  C10_15 
REMARK    6  A    between atoms: C10_15  and  C11_16 
REMARK    7  A    between atoms: C10_15  and  N3_35 
REMARK    8  A    between atoms: C11_16  and  O4_17 
REMARK    9  A    between atoms: C12_19  and  O5_20 
REMARK   10  A    between atoms: O5_20  and  C13_21 
REMARK       I    between atoms: C13_21  and  N2_23 
REMARK   11  A    between atoms: N2_23  and  C14_25 
REMARK   12  A    between atoms: C18_29  and  O7_30 
REMARK   13  A    between atoms: C19_32  and  O8_33 
REMARK   14  A    between atoms: N3_35  and  O9_36 
REMARK   15  A    between atoms: N3_35  and  C20_38 
ROOT
HETATM    1  C10 UNL     1      19.382  14.689  18.285  1.00  0.00     0.267 C 
ENDROOT
BRANCH   1   2
HETATM    2  C9  UNL     1      18.423  14.025  17.368  1.00  0.00     0.250 C 
HETATM    3  N1  UNL     1      18.527  14.270  15.979  1.00  0.00    -0.341 N 
ATOM      4  H1  UNL     1      19.266  14.898  15.662  1.00  0.00     0.163 HD
HETATM    5  O3  UNL     1      17.531  13.257  17.804  1.00  0.00    -0.271 OA
BRANCH   3   6
HETATM    6  C6  UNL     1      17.669  13.700  14.988  1.00  0.00     0.113 C 
HETATM    7  C7  UNL     1      16.460  14.609  14.711  1.00  0.00     0.049 C 
HETATM    8  C8  UNL     1      17.075  12.408  15.517  1.00  0.00     0.049 C 
BRANCH   6   9
HETATM    9  C5  UNL     1      18.320  13.495  13.669  1.00  0.00     0.287 C 
HETATM   10  O2  UNL     1      17.617  13.652  12.640  1.00  0.00    -0.262 OA
BRANCH   9  11
HETATM   11  O1  UNL     1      19.630  13.149  13.505  1.00  0.00    -0.309 OA
BRANCH  11  12
HETATM   12  C2  UNL     1      20.155  11.855  13.563  1.00  0.00     0.060 C 
HETATM   13  C1  UNL     1      19.222  10.794  13.040  1.00  0.00     0.045 C 
HETATM   14  C3  UNL     1      20.597  11.481  14.979  1.00  0.00     0.045 C 
HETATM   15  C4  UNL     1      21.402  11.823  12.699  1.00  0.00     0.045 C 
ENDBRANCH  11  12
ENDBRANCH   9  11
ENDBRANCH   6   9
ENDBRANCH   3   6
ENDBRANCH   1   2
BRANCH   1  16
HETATM   16  C11 UNL     1      18.735  15.441  19.356  1.00  0.00     0.100 C 
HETATM   17  C12 UNL     1      19.397  16.361  20.003  1.00  0.00     0.182 C 
BRANCH  16  18
HETATM   18  O4  UNL     1      17.425  15.184  19.693  1.00  0.00    -0.360 OA
ATOM     19  H4  UNL     1      17.160  14.312  19.959  1.00  0.00     0.217 HD
ENDBRANCH  16  18
BRANCH  17  20
HETATM   20  O5  UNL     1      18.860  17.125  21.037  1.00  0.00    -0.271 OA
BRANCH  20  21
HETATM   21  C13 UNL     1      19.601  18.144  21.618  1.00  0.00     0.365 C 
HETATM   22  O6  UNL     1      20.412  17.814  22.516  1.00  0.00    -0.238 OA
HETATM   23  N2  UNL     1      19.462  19.506  21.229  1.00  0.00    -0.329 N 
ATOM     24  H2  UNL     1      18.796  19.752  20.497  1.00  0.00     0.165 HD
BRANCH  23  25
HETATM   25  C14 UNL     1      20.238  20.533  21.844  1.00  0.00     0.118 C 
HETATM   26  C15 UNL     1      19.331  21.535  22.526  1.00  0.00     0.028 C 
HETATM   27  C16 UNL     1      20.172  22.533  23.275  1.00  0.00     0.005 C 
HETATM   28  C17 UNL     1      21.027  23.258  22.242  1.00  0.00     0.034 C 
HETATM   29  C18 UNL     1      21.989  22.217  21.685  1.00  0.00     0.148 C 
HETATM   30  C19 UNL     1      21.160  21.241  20.874  1.00  0.00     0.169 C 
BRANCH  29  31
HETATM   31  O7  UNL     1      22.528  21.545  22.784  1.00  0.00    -0.393 OA
ATOM     32  H7  UNL     1      23.128  20.896  22.437  1.00  0.00     0.210 HD
ENDBRANCH  29  31
BRANCH  30  33
HETATM   33  O8  UNL     1      20.413  21.967  19.932  1.00  0.00    -0.391 OA
ATOM     34  H8  UNL     1      19.964  21.375  19.341  1.00  0.00     0.210 HD
ENDBRANCH  30  33
ENDBRANCH  23  25
ENDBRANCH  20  21
ENDBRANCH  17  20
ENDBRANCH   1  16
BRANCH   1  35
HETATM   35  N3  UNL     1      20.232  13.682  18.919  1.00  0.00    -0.215 N 
BRANCH  35  36
HETATM   36  O9  UNL     1      19.675  12.792  19.748  1.00  0.00    -0.284 OA
ATOM     37  H9  UNL     1      19.491  13.049  20.644  1.00  0.00     0.245 HD
ENDBRANCH  35  36
BRANCH  35  38
HETATM   38  C20 UNL     1      21.616  13.638  18.670  1.00  0.00     0.377 C 
HETATM   39  O10 UNL     1      22.280  14.722  18.666  1.00  0.00    -0.281 OA
ENDBRANCH  35  38
ENDBRANCH   1  35
TORSDOF 15
ENDMDL
MODEL 5
REMARK VINA RESULT: -7.915870340      3.749      7.875
REMARK  15 active torsions:
REMARK  status: ('A' for Active; 'I' for Inactive)
REMARK    1  A    between atoms: C2_2  and  O1_5 
REMARK    2  A    between atoms: O1_5  and  C5_6 
REMARK    3  A    between atoms: C5_6  and  C6_8 
REMARK    4  A    between atoms: C6_8  and  N1_11 
REMARK       I    between atoms: N1_11  and  C9_13 
REMARK    5  A    between atoms: C9_13  and  C10_15 
REMARK    6  A    between atoms: C10_15  and  C11_16 
REMARK    7  A    between atoms: C10_15  and  N3_35 
REMARK    8  A    between atoms: C11_16  and  O4_17 
REMARK    9  A    between atoms: C12_19  and  O5_20 
REMARK   10  A    between atoms: O5_20  and  C13_21 
REMARK       I    between atoms: C13_21  and  N2_23 
REMARK   11  A    between atoms: N2_23  and  C14_25 
REMARK   12  A    between atoms: C18_29  and  O7_30 
REMARK   13  A    between atoms: C19_32  and  O8_33 
REMARK   14  A    between atoms: N3_35  and  O9_36 
REMARK   15  A    between atoms: N3_35  and  C20_38 
ROOT
HETATM    1  C10 UNL     1      19.092  14.969  18.378  1.00  0.00     0.267 C 
ENDROOT
BRANCH   1   2
HETATM    2  C9  UNL     1      18.077  14.186  17.631  1.00  0.00     0.250 C 
HETATM    3  N1  UNL     1      17.199  14.868  16.756  1.00  0.00    -0.341 N 
ATOM      4  H1  UNL     1      17.303  15.879  16.672  1.00  0.00     0.163 HD
HETATM    5  O3  UNL     1      17.988  12.941  17.764  1.00  0.00    -0.271 OA
BRANCH   3   6
HETATM    6  C6  UNL     1      16.175  14.239  15.981  1.00  0.00     0.113 C 
HETATM    7  C7  UNL     1      15.159  15.270  15.462  1.00  0.00     0.049 C 
HETATM    8  C8  UNL     1      15.371  13.307  16.868  1.00  0.00     0.049 C 
BRANCH   6   9
HETATM    9  C5  UNL     1      16.678  13.536  14.773  1.00  0.00     0.287 C 
HETATM   10  O2  UNL     1      16.571  14.123  13.669  1.00  0.00    -0.262 OA
BRANCH   9  11
HETATM   11  O1  UNL     1      17.246  12.294  14.788  1.00  0.00    -0.309 OA
BRANCH  11  12
HETATM   12  C2  UNL     1      18.547  11.977  14.391  1.00  0.00     0.060 C 
HETATM   13  C1  UNL     1      19.484  13.157  14.372  1.00  0.00     0.045 C 
HETATM   14  C3  UNL     1      18.576  11.291  13.024  1.00  0.00     0.045 C 
HETATM   15  C4  UNL     1      19.104  10.977  15.387  1.00  0.00     0.045 C 
ENDBRANCH  11  12
ENDBRANCH   9  11
ENDBRANCH   6   9
ENDBRANCH   3   6
ENDBRANCH   1   2
BRANCH   1  16
HETATM   16  C11 UNL     1      18.532  15.739  19.485  1.00  0.00     0.100 C 
HETATM   17  C12 UNL     1      19.262  16.632  20.096  1.00  0.00     0.182 C 
BRANCH  16  18
HETATM   18  O4  UNL     1      17.234  15.529  19.891  1.00  0.00    -0.360 OA
ATOM     19  H4  UNL     1      16.913  14.647  20.036  1.00  0.00     0.217 HD
ENDBRANCH  16  18
BRANCH  17  20
HETATM   20  O5  UNL     1      18.810  17.410  21.161  1.00  0.00    -0.271 OA
BRANCH  20  21
HETATM   21  C13 UNL     1      19.574  18.466  21.635  1.00  0.00     0.365 C 
HETATM   22  O6  UNL     1      20.507  18.181  22.424  1.00  0.00    -0.238 OA
HETATM   23  N2  UNL     1      19.329  19.816  21.257  1.00  0.00    -0.329 N 
ATOM     24  H2  UNL     1      18.566  20.025  20.614  1.00  0.00     0.165 HD
BRANCH  23  25
HETATM   25  C14 UNL     1      20.133  20.882  21.761  1.00  0.00     0.118 C 
HETATM   26  C15 UNL     1      19.259  21.926  22.422  1.00  0.00     0.028 C 
HETATM   27  C16 UNL     1      20.134  22.972  23.058  1.00  0.00     0.005 C 
HETATM   28  C17 UNL     1      20.930  23.628  21.935  1.00  0.00     0.034 C 
HETATM   29  C18 UNL     1      21.866  22.553  21.398  1.00  0.00     0.148 C 
HETATM   30  C19 UNL     1      20.999  21.525  20.698  1.00  0.00     0.169 C 
BRANCH  29  31
HETATM   31  O7  UNL     1      22.465  21.956  22.508  1.00  0.00    -0.393 OA
ATOM     32  H7  UNL     1      23.235  21.501  22.189  1.00  0.00     0.210 HD
ENDBRANCH  29  31
BRANCH  30  33
HETATM   33  O8  UNL     1      20.199  22.187  19.752  1.00  0.00    -0.391 OA
ATOM     34  H8  UNL     1      20.714  22.827  19.276  1.00  0.00     0.210 HD
ENDBRANCH  30  33
ENDBRANCH  23  25
ENDBRANCH  20  21
ENDBRANCH  17  20
ENDBRANCH   1  16
BRANCH   1  35
HETATM   35  N3  UNL     1      20.090  14.063  18.945  1.00  0.00    -0.215 N 
BRANCH  35  36
HETATM   36  O9  UNL     1      19.708  13.175  19.871  1.00  0.00    -0.284 OA
ATOM     37  H9  UNL     1      19.251  12.389  19.595  1.00  0.00     0.245 HD
ENDBRANCH  35  36
BRANCH  35  38
HETATM   38  C20 UNL     1      21.434  14.112  18.534  1.00  0.00     0.377 C 
HETATM   39  O10 UNL     1      22.245  13.230  18.957  1.00  0.00    -0.281 OA
ENDBRANCH  35  38
ENDBRANCH   1  35
TORSDOF 15
ENDMDL
