MODEL 1
REMARK VINA RESULT: -8.815186808      0.000      0.000
REMARK  14 active torsions:
REMARK  status: ('A' for Active; 'I' for Inactive)
REMARK    1  A    between atoms: O1_1  and  C1_3 
REMARK    2  A    between atoms: C1_3  and  C2_4 
REMARK    3  A    between atoms: C4_6  and  O2_7 
REMARK    4  A    between atoms: O2_7  and  C5_8 
REMARK    5  A    between atoms: C5_8  and  C6_9 
REMARK    6  A    between atoms: C11_14  and  C12_15 
REMARK    7  A    between atoms: C12_15  and  O3_16 
REMARK    8  A    between atoms: O3_16  and  C13_17 
REMARK    9  A    between atoms: C15_19  and  O4_20 
REMARK   10  A    between atoms: C16_22  and  C17_23 
REMARK   11  A    between atoms: C17_23  and  O5_24 
REMARK   12  A    between atoms: C20_30  and  O8_31 
REMARK   13  A    between atoms: C21_33  and  O9_34 
REMARK   14  A    between atoms: C22_36  and  O10_37 
ROOT
HETATM    1  C6  UNL     1      17.997  13.761  13.773  1.00  0.00     0.091 A 
HETATM    2  C7  UNL     1      18.681  14.706  14.564  1.00  0.00     0.054 A 
HETATM    3  C8  UNL     1      18.955  13.392  14.991  1.00  0.00     0.002 A 
HETATM    4  C9  UNL     1      20.355  12.926  14.636  1.00  0.00     0.014 C 
HETATM    5  C10 UNL     1      20.543  11.550  15.193  1.00  0.00     0.008 C 
HETATM    6  C11 UNL     1      19.324  11.201  15.939  1.00  0.00     0.016 C 
HETATM    7  C18 UNL     1      18.290  12.184  15.337  1.00  0.00     0.027 C 
HETATM    8  C19 UNL     1      18.003  11.618  13.932  1.00  0.00     0.174 C 
HETATM    9  O7  UNL     1      18.465  12.629  13.082  1.00  0.00    -0.377 OA
ENDROOT
BRANCH   1  10
HETATM   10  C5  UNL     1      16.530  13.660  13.936  1.00  0.00     0.207 C 
BRANCH  10  11
HETATM   11  O2  UNL     1      15.900  14.836  14.176  1.00  0.00    -0.380 OA
BRANCH  11  12
HETATM   12  C4  UNL     1      14.976  14.944  15.155  1.00  0.00     0.153 C 
HETATM   13  C3  UNL     1      15.724  15.216  16.519  1.00  0.00     0.044 C 
HETATM   14  C2  UNL     1      14.773  14.861  17.631  1.00  0.00     0.043 C 
HETATM   15  C22 UNL     1      13.498  15.625  17.577  1.00  0.00     0.155 C 
HETATM   16  C21 UNL     1      12.897  15.686  16.221  1.00  0.00     0.178 C 
HETATM   17  C20 UNL     1      13.882  15.913  15.093  1.00  0.00     0.178 C 
BRANCH  14  18
HETATM   18  C1  UNL     1      14.584  13.380  17.829  1.00  0.00     0.171 C 
BRANCH  18  19
HETATM   19  O1  UNL     1      15.888  12.831  17.811  1.00  0.00    -0.400 OA
ATOM     20  H1  UNL     1      15.800  11.962  18.185  1.00  0.00     0.209 HD
ENDBRANCH  18  19
ENDBRANCH  14  18
BRANCH  15  21
HETATM   21  O10 UNL     1      13.628  16.857  18.215  1.00  0.00    -0.392 OA
ATOM     22  H10 UNL     1      14.282  17.395  17.785  1.00  0.00     0.210 HD
ENDBRANCH  15  21
BRANCH  16  23
HETATM   23  O9  UNL     1      11.918  16.677  16.199  1.00  0.00    -0.390 OA
ATOM     24  H9  UNL     1      11.261  16.494  16.860  1.00  0.00     0.210 HD
ENDBRANCH  16  23
BRANCH  17  25
HETATM   25  O8  UNL     1      14.261  17.248  15.143  1.00  0.00    -0.390 OA
ATOM     26  H8  UNL     1      14.172  17.730  14.328  1.00  0.00     0.210 HD
ENDBRANCH  17  25
ENDBRANCH  11  12
ENDBRANCH  10  11
ENDBRANCH   1  10
BRANCH   6  27
HETATM   27  C12 UNL     1      19.356  11.245  17.423  1.00  0.00     0.176 C 
BRANCH  27  28
HETATM   28  O3  UNL     1      20.082  12.118  18.084  1.00  0.00    -0.361 OA
BRANCH  28  29
HETATM   29  C13 UNL     1      19.937  13.424  18.197  1.00  0.00     0.262 C 
HETATM   30  C14 UNL     1      20.534  13.975  19.522  1.00  0.00     0.095 C 
HETATM   31  C15 UNL     1      20.078  15.414  19.389  1.00  0.00     0.154 C 
HETATM   32  C16 UNL     1      18.744  15.240  18.683  1.00  0.00     0.177 C 
HETATM   33  O6  UNL     1      18.614  13.883  18.413  1.00  0.00    -0.351 OA
BRANCH  31  34
HETATM   34  O4  UNL     1      19.958  16.063  20.592  1.00  0.00    -0.393 OA
ATOM     35  H4  UNL     1      19.222  15.764  21.113  1.00  0.00     0.210 HD
ENDBRANCH  31  34
BRANCH  32  36
HETATM   36  C17 UNL     1      17.675  15.741  19.631  1.00  0.00     0.198 C 
BRANCH  36  37
HETATM   37  O5  UNL     1      17.393  17.080  19.379  1.00  0.00    -0.398 OA
ATOM     38  H5  UNL     1      17.103  17.193  18.481  1.00  0.00     0.209 HD
ENDBRANCH  36  37
ENDBRANCH  32  36
ENDBRANCH  28  29
ENDBRANCH  27  28
ENDBRANCH   6  27
TORSDOF 14
ENDMDL
MODEL 2
REMARK VINA RESULT: -8.473702449      0.799      1.245
REMARK  14 active torsions:
REMARK  status: ('A' for Active; 'I' for Inactive)
REMARK    1  A    between atoms: O1_1  and  C1_3 
REMARK    2  A    between atoms: C1_3  and  C2_4 
REMARK    3  A    between atoms: C4_6  and  O2_7 
REMARK    4  A    between atoms: O2_7  and  C5_8 
REMARK    5  A    between atoms: C5_8  and  C6_9 
REMARK    6  A    between atoms: C11_14  and  C12_15 
REMARK    7  A    between atoms: C12_15  and  O3_16 
REMARK    8  A    between atoms: O3_16  and  C13_17 
REMARK    9  A    between atoms: C15_19  and  O4_20 
REMARK   10  A    between atoms: C16_22  and  C17_23 
REMARK   11  A    between atoms: C17_23  and  O5_24 
REMARK   12  A    between atoms: C20_30  and  O8_31 
REMARK   13  A    between atoms: C21_33  and  O9_34 
REMARK   14  A    between atoms: C22_36  and  O10_37 
ROOT
HETATM    1  C6  UNL     1      17.878  13.806  13.910  1.00  0.00     0.091 A 
HETATM    2  C7  UNL     1      18.578  14.880  14.497  1.00  0.00     0.054 A 
HETATM    3  C8  UNL     1      18.937  13.653  15.091  1.00  0.00     0.002 A 
HETATM    4  C9  UNL     1      20.326  13.184  14.698  1.00  0.00     0.014 C 
HETATM    5  C10 UNL     1      20.613  11.913  15.436  1.00  0.00     0.008 C 
HETATM    6  C11 UNL     1      19.468  11.643  16.318  1.00  0.00     0.016 C 
HETATM    7  C18 UNL     1      18.352  12.492  15.661  1.00  0.00     0.027 C 
HETATM    8  C19 UNL     1      17.987  11.713  14.383  1.00  0.00     0.174 C 
HETATM    9  O7  UNL     1      18.342  12.598  13.359  1.00  0.00    -0.377 OA
ENDROOT
BRANCH   1  10
HETATM   10  C5  UNL     1      16.432  13.684  14.202  1.00  0.00     0.207 C 
BRANCH  10  11
HETATM   11  O2  UNL     1      15.769  14.863  14.296  1.00  0.00    -0.380 OA
BRANCH  11  12
HETATM   12  C4  UNL     1      14.778  15.035  15.197  1.00  0.00     0.153 C 
HETATM   13  C3  UNL     1      15.419  15.079  16.640  1.00  0.00     0.044 C 
HETATM   14  C2  UNL     1      14.321  14.788  17.629  1.00  0.00     0.043 C 
HETATM   15  C22 UNL     1      13.183  15.741  17.537  1.00  0.00     0.155 C 
HETATM   16  C21 UNL     1      12.734  16.001  16.146  1.00  0.00     0.178 C 
HETATM   17  C20 UNL     1      13.849  16.162  15.132  1.00  0.00     0.178 C 
BRANCH  14  18
HETATM   18  C1  UNL     1      13.899  13.342  17.671  1.00  0.00     0.171 C 
BRANCH  18  19
HETATM   19  O1  UNL     1      14.736  12.737  18.638  1.00  0.00    -0.400 OA
ATOM     20  H1  UNL     1      15.549  12.549  18.184  1.00  0.00     0.209 HD
ENDBRANCH  18  19
ENDBRANCH  14  18
BRANCH  15  21
HETATM   21  O10 UNL     1      13.428  16.884  18.295  1.00  0.00    -0.392 OA
ATOM     22  H10 UNL     1      13.690  17.609  17.741  1.00  0.00     0.210 HD
ENDBRANCH  15  21
BRANCH  16  23
HETATM   23  O9  UNL     1      11.918  17.129  16.131  1.00  0.00    -0.390 OA
ATOM     24  H9  UNL     1      11.693  17.374  17.021  1.00  0.00     0.210 HD
ENDBRANCH  16  23
BRANCH  17  25
HETATM   25  O8  UNL     1      14.412  17.414  15.338  1.00  0.00    -0.390 OA
ATOM     26  H8  UNL     1      15.326  17.498  15.095  1.00  0.00     0.210 HD
ENDBRANCH  17  25
ENDBRANCH  11  12
ENDBRANCH  10  11
ENDBRANCH   1  10
BRANCH   6  27
HETATM   27  C12 UNL     1      19.607  11.910  17.773  1.00  0.00     0.176 C 
BRANCH  27  28
HETATM   28  O3  UNL     1      20.097  13.038  18.235  1.00  0.00    -0.361 OA
BRANCH  28  29
HETATM   29  C13 UNL     1      19.580  13.895  19.094  1.00  0.00     0.262 C 
HETATM   30  C14 UNL     1      18.448  14.753  18.466  1.00  0.00     0.095 C 
HETATM   31  C15 UNL     1      18.199  15.683  19.637  1.00  0.00     0.154 C 
HETATM   32  C16 UNL     1      19.599  15.820  20.212  1.00  0.00     0.177 C 
HETATM   33  O6  UNL     1      20.415  14.977  19.468  1.00  0.00    -0.351 OA
BRANCH  31  34
HETATM   34  O4  UNL     1      17.656  16.889  19.273  1.00  0.00    -0.393 OA
ATOM     35  H4  UNL     1      16.838  17.086  19.714  1.00  0.00     0.210 HD
ENDBRANCH  31  34
BRANCH  32  36
HETATM   36  C17 UNL     1      19.993  17.274  20.065  1.00  0.00     0.198 C 
BRANCH  36  37
HETATM   37  O5  UNL     1      19.379  18.044  21.049  1.00  0.00    -0.398 OA
ATOM     38  H5  UNL     1      19.728  17.826  21.905  1.00  0.00     0.209 HD
ENDBRANCH  36  37
ENDBRANCH  32  36
ENDBRANCH  28  29
ENDBRANCH  27  28
ENDBRANCH   6  27
TORSDOF 14
ENDMDL
MODEL 3
REMARK VINA RESULT: -8.465575769      2.933      5.197
REMARK  14 active torsions:
REMARK  status: ('A' for Active; 'I' for Inactive)
REMARK    1  A    between atoms: O1_1  and  C1_3 
REMARK    2  A    between atoms: C1_3  and  C2_4 
REMARK    3  A    between atoms: C4_6  and  O2_7 
REMARK    4  A    between atoms: O2_7  and  C5_8 
REMARK    5  A    between atoms: C5_8  and  C6_9 
REMARK    6  A    between atoms: C11_14  and  C12_15 
REMARK    7  A    between atoms: C12_15  and  O3_16 
REMARK    8  A    between atoms: O3_16  and  C13_17 
REMARK    9  A    between atoms: C15_19  and  O4_20 
REMARK   10  A    between atoms: C16_22  and  C17_23 
REMARK   11  A    between atoms: C17_23  and  O5_24 
REMARK   12  A    between atoms: C20_30  and  O8_31 
REMARK   13  A    between atoms: C21_33  and  O9_34 
REMARK   14  A    between atoms: C22_36  and  O10_37 
ROOT
HETATM    1  C6  UNL     1      17.798  13.998  16.408  1.00  0.00     0.091 A 
HETATM    2  C7  UNL     1      19.095  13.959  16.958  1.00  0.00     0.054 A 
HETATM    3  C8  UNL     1      19.018  13.187  15.782  1.00  0.00     0.002 A 
HETATM    4  C9  UNL     1      19.720  13.828  14.598  1.00  0.00     0.014 C 
HETATM    5  C10 UNL     1      19.621  12.891  13.435  1.00  0.00     0.008 C 
HETATM    6  C11 UNL     1      18.945  11.672  13.903  1.00  0.00     0.016 C 
HETATM    7  C18 UNL     1      18.224  12.176  15.178  1.00  0.00     0.027 C 
HETATM    8  C19 UNL     1      17.057  13.026  14.641  1.00  0.00     0.174 C 
HETATM    9  O7  UNL     1      17.357  14.310  15.110  1.00  0.00    -0.377 OA
ENDROOT
BRANCH   1  10
HETATM   10  C5  UNL     1      16.725  13.272  17.124  1.00  0.00     0.207 C 
BRANCH  10  11
HETATM   11  O2  UNL     1      16.099  13.987  18.091  1.00  0.00    -0.380 OA
BRANCH  11  12
HETATM   12  C4  UNL     1      14.870  14.509  17.886  1.00  0.00     0.153 C 
HETATM   13  C3  UNL     1      14.759  15.857  18.702  1.00  0.00     0.044 C 
HETATM   14  C2  UNL     1      13.295  16.167  18.859  1.00  0.00     0.043 C 
HETATM   15  C22 UNL     1      12.578  16.285  17.562  1.00  0.00     0.155 C 
HETATM   16  C21 UNL     1      12.898  15.198  16.603  1.00  0.00     0.178 C 
HETATM   17  C20 UNL     1      14.360  14.803  16.547  1.00  0.00     0.178 C 
BRANCH  14  18
HETATM   18  C1  UNL     1      12.587  15.297  19.865  1.00  0.00     0.171 C 
BRANCH  18  19
HETATM   19  O1  UNL     1      12.046  16.192  20.819  1.00  0.00    -0.400 OA
ATOM     20  H1  UNL     1      11.199  16.447  20.472  1.00  0.00     0.209 HD
ENDBRANCH  18  19
ENDBRANCH  14  18
BRANCH  15  21
HETATM   21  O10 UNL     1      12.693  17.574  17.044  1.00  0.00    -0.392 OA
ATOM     22  H10 UNL     1      11.886  18.060  17.160  1.00  0.00     0.210 HD
ENDBRANCH  15  21
BRANCH  16  23
HETATM   23  O9  UNL     1      12.461  15.564  15.332  1.00  0.00    -0.390 OA
ATOM     24  H9  UNL     1      11.617  15.997  15.395  1.00  0.00     0.210 HD
ENDBRANCH  16  23
BRANCH  17  25
HETATM   25  O8  UNL     1      15.029  15.805  15.857  1.00  0.00    -0.390 OA
ATOM     26  H8  UNL     1      15.267  15.597  14.961  1.00  0.00     0.210 HD
ENDBRANCH  17  25
ENDBRANCH  11  12
ENDBRANCH  10  11
ENDBRANCH   1  10
BRANCH   6  27
HETATM   27  C12 UNL     1      19.758  10.453  14.151  1.00  0.00     0.176 C 
BRANCH  27  28
HETATM   28  O3  UNL     1      20.919  10.253  13.569  1.00  0.00    -0.361 OA
BRANCH  28  29
HETATM   29  C13 UNL     1      22.052  10.915  13.698  1.00  0.00     0.262 C 
HETATM   30  C14 UNL     1      22.597  11.429  12.336  1.00  0.00     0.095 C 
HETATM   31  C15 UNL     1      23.920  11.986  12.823  1.00  0.00     0.154 C 
HETATM   32  C16 UNL     1      24.264  11.010  13.935  1.00  0.00     0.177 C 
HETATM   33  O6  UNL     1      23.186  10.139  14.043  1.00  0.00    -0.351 OA
BRANCH  31  34
HETATM   34  O4  UNL     1      24.884  12.038  11.847  1.00  0.00    -0.393 OA
ATOM     35  H4  UNL     1      25.709  12.397  12.149  1.00  0.00     0.210 HD
ENDBRANCH  31  34
BRANCH  32  36
HETATM   36  C17 UNL     1      25.535  10.300  13.518  1.00  0.00     0.198 C 
BRANCH  36  37
HETATM   37  O5  UNL     1      26.446  10.283  14.569  1.00  0.00    -0.398 OA
ATOM     38  H5  UNL     1      27.114  10.945  14.438  1.00  0.00     0.209 HD
ENDBRANCH  36  37
ENDBRANCH  32  36
ENDBRANCH  28  29
ENDBRANCH  27  28
ENDBRANCH   6  27
TORSDOF 14
ENDMDL
MODEL 4
REMARK VINA RESULT: -8.224916930      1.128      2.402
REMARK  14 active torsions:
REMARK  status: ('A' for Active; 'I' for Inactive)
REMARK    1  A    between atoms: O1_1  and  C1_3 
REMARK    2  A    between atoms: C1_3  and  C2_4 
REMARK    3  A    between atoms: C4_6  and  O2_7 
REMARK    4  A    between atoms: O2_7  and  C5_8 
REMARK    5  A    between atoms: C5_8  and  C6_9 
REMARK    6  A    between atoms: C11_14  and  C12_15 
REMARK    7  A    between atoms: C12_15  and  O3_16 
REMARK    8  A    between atoms: O3_16  and  C13_17 
REMARK    9  A    between atoms: C15_19  and  O4_20 
REMARK   10  A    between atoms: C16_22  and  C17_23 
REMARK   11  A    between atoms: C17_23  and  O5_24 
REMARK   12  A    between atoms: C20_30  and  O8_31 
REMARK   13  A    between atoms: C21_33  and  O9_34 
REMARK   14  A    between atoms: C22_36  and  O10_37 
ROOT
HETATM    1  C6  UNL     1      17.786  13.736  13.995  1.00  0.00     0.091 A 
HETATM    2  C7  UNL     1      18.477  14.844  14.526  1.00  0.00     0.054 A 
HETATM    3  C8  UNL     1      18.908  13.643  15.123  1.00  0.00     0.002 A 
HETATM    4  C9  UNL     1      20.290  13.212  14.668  1.00  0.00     0.014 C 
HETATM    5  C10 UNL     1      20.658  11.967  15.414  1.00  0.00     0.008 C 
HETATM    6  C11 UNL     1      19.568  11.676  16.358  1.00  0.00     0.016 C 
HETATM    7  C18 UNL     1      18.392  12.474  15.744  1.00  0.00     0.027 C 
HETATM    8  C19 UNL     1      17.989  11.658  14.500  1.00  0.00     0.174 C 
HETATM    9  O7  UNL     1      18.262  12.533  13.444  1.00  0.00    -0.377 OA
ENDROOT
BRANCH   1  10
HETATM   10  C5  UNL     1      16.361  13.573  14.363  1.00  0.00     0.207 C 
BRANCH  10  11
HETATM   11  O2  UNL     1      15.654  14.728  14.430  1.00  0.00    -0.380 OA
BRANCH  11  12
HETATM   12  C4  UNL     1      15.175  15.183  15.608  1.00  0.00     0.153 C 
HETATM   13  C3  UNL     1      13.640  15.506  15.430  1.00  0.00     0.044 C 
HETATM   14  C2  UNL     1      13.243  16.432  16.548  1.00  0.00     0.043 C 
HETATM   15  C22 UNL     1      13.500  15.865  17.898  1.00  0.00     0.155 C 
HETATM   16  C21 UNL     1      14.839  15.238  18.036  1.00  0.00     0.178 C 
HETATM   17  C20 UNL     1      15.286  14.413  16.847  1.00  0.00     0.178 C 
BRANCH  14  18
HETATM   18  C1  UNL     1      13.738  17.846  16.381  1.00  0.00     0.171 C 
BRANCH  18  19
HETATM   19  O1  UNL     1      13.665  18.105  14.991  1.00  0.00    -0.400 OA
ATOM     20  H1  UNL     1      12.920  18.684  14.883  1.00  0.00     0.209 HD
ENDBRANCH  18  19
ENDBRANCH  14  18
BRANCH  15  21
HETATM   21  O10 UNL     1      12.436  15.067  18.314  1.00  0.00    -0.392 OA
ATOM     22  H10 UNL     1      12.080  14.569  17.588  1.00  0.00     0.210 HD
ENDBRANCH  15  21
BRANCH  16  23
HETATM   23  O9  UNL     1      14.862  14.456  19.188  1.00  0.00    -0.390 OA
ATOM     24  H9  UNL     1      13.977  14.332  19.510  1.00  0.00     0.210 HD
ENDBRANCH  16  23
BRANCH  17  25
HETATM   25  O8  UNL     1      14.567  13.225  16.880  1.00  0.00    -0.390 OA
ATOM     26  H8  UNL     1      14.309  12.926  17.744  1.00  0.00     0.210 HD
ENDBRANCH  17  25
ENDBRANCH  11  12
ENDBRANCH  10  11
ENDBRANCH   1  10
BRANCH   6  27
HETATM   27  C12 UNL     1      19.771  11.977  17.799  1.00  0.00     0.176 C 
BRANCH  27  28
HETATM   28  O3  UNL     1      20.195  13.148  18.218  1.00  0.00    -0.361 OA
BRANCH  28  29
HETATM   29  C13 UNL     1      19.657  13.979  19.090  1.00  0.00     0.262 C 
HETATM   30  C14 UNL     1      18.513  14.829  18.472  1.00  0.00     0.095 C 
HETATM   31  C15 UNL     1      18.241  15.730  19.660  1.00  0.00     0.154 C 
HETATM   32  C16 UNL     1      19.635  15.882  20.245  1.00  0.00     0.177 C 
HETATM   33  O6  UNL     1      20.471  15.068  19.490  1.00  0.00    -0.351 OA
BRANCH  31  34
HETATM   34  O4  UNL     1      17.679  16.934  19.316  1.00  0.00    -0.393 OA
ATOM     35  H4  UNL     1      18.287  17.663  19.361  1.00  0.00     0.210 HD
ENDBRANCH  31  34
BRANCH  32  36
HETATM   36  C17 UNL     1      20.004  17.345  20.130  1.00  0.00     0.198 C 
BRANCH  36  37
HETATM   37  O5  UNL     1      19.366  18.085  21.121  1.00  0.00    -0.398 OA
ATOM     38  H5  UNL     1      19.859  18.874  21.314  1.00  0.00     0.209 HD
ENDBRANCH  36  37
ENDBRANCH  32  36
ENDBRANCH  28  29
ENDBRANCH  27  28
ENDBRANCH   6  27
TORSDOF 14
ENDMDL
MODEL 5
REMARK VINA RESULT: -8.201407766      0.824      2.071
REMARK  14 active torsions:
REMARK  status: ('A' for Active; 'I' for Inactive)
REMARK    1  A    between atoms: O1_1  and  C1_3 
REMARK    2  A    between atoms: C1_3  and  C2_4 
REMARK    3  A    between atoms: C4_6  and  O2_7 
REMARK    4  A    between atoms: O2_7  and  C5_8 
REMARK    5  A    between atoms: C5_8  and  C6_9 
REMARK    6  A    between atoms: C11_14  and  C12_15 
REMARK    7  A    between atoms: C12_15  and  O3_16 
REMARK    8  A    between atoms: O3_16  and  C13_17 
REMARK    9  A    between atoms: C15_19  and  O4_20 
REMARK   10  A    between atoms: C16_22  and  C17_23 
REMARK   11  A    between atoms: C17_23  and  O5_24 
REMARK   12  A    between atoms: C20_30  and  O8_31 
REMARK   13  A    between atoms: C21_33  and  O9_34 
REMARK   14  A    between atoms: C22_36  and  O10_37 
ROOT
HETATM    1  C6  UNL     1      17.880  13.753  13.921  1.00  0.00     0.091 A 
HETATM    2  C7  UNL     1      18.601  14.725  14.643  1.00  0.00     0.054 A 
HETATM    3  C8  UNL     1      18.944  13.424  15.061  1.00  0.00     0.002 A 
HETATM    4  C9  UNL     1      20.322  12.991  14.596  1.00  0.00     0.014 C 
HETATM    5  C10 UNL     1      20.592  11.627  15.151  1.00  0.00     0.008 C 
HETATM    6  C11 UNL     1      19.448  11.256  15.997  1.00  0.00     0.016 C 
HETATM    7  C18 UNL     1      18.342  12.204  15.472  1.00  0.00     0.027 C 
HETATM    8  C19 UNL     1      17.956  11.613  14.102  1.00  0.00     0.174 C 
HETATM    9  O7  UNL     1      18.319  12.625  13.206  1.00  0.00    -0.377 OA
ENDROOT
BRANCH   1  10
HETATM   10  C5  UNL     1      16.434  13.616  14.205  1.00  0.00     0.207 C 
BRANCH  10  11
HETATM   11  O2  UNL     1      15.758  14.787  14.301  1.00  0.00    -0.380 OA
BRANCH  11  12
HETATM   12  C4  UNL     1      15.263  15.211  15.483  1.00  0.00     0.153 C 
HETATM   13  C3  UNL     1      13.711  15.452  15.316  1.00  0.00     0.044 C 
HETATM   14  C2  UNL     1      13.272  16.351  16.441  1.00  0.00     0.043 C 
HETATM   15  C22 UNL     1      13.569  15.793  17.787  1.00  0.00     0.155 C 
HETATM   16  C21 UNL     1      14.941  15.240  17.913  1.00  0.00     0.178 C 
HETATM   17  C20 UNL     1      15.424  14.444  16.718  1.00  0.00     0.178 C 
BRANCH  14  18
HETATM   18  C1  UNL     1      13.689  17.790  16.276  1.00  0.00     0.171 C 
BRANCH  18  19
HETATM   19  O1  UNL     1      13.661  18.029  14.881  1.00  0.00    -0.400 OA
ATOM     20  H1  UNL     1      13.563  18.969  14.790  1.00  0.00     0.209 HD
ENDBRANCH  18  19
ENDBRANCH  14  18
BRANCH  15  21
HETATM   21  O10 UNL     1      12.553  14.938  18.207  1.00  0.00    -0.392 OA
ATOM     22  H10 UNL     1      12.902  14.229  18.734  1.00  0.00     0.210 HD
ENDBRANCH  15  21
BRANCH  16  23
HETATM   23  O9  UNL     1      15.014  14.456  19.062  1.00  0.00    -0.390 OA
ATOM     24  H9  UNL     1      15.010  15.012  19.832  1.00  0.00     0.210 HD
ENDBRANCH  16  23
BRANCH  17  25
HETATM   25  O8  UNL     1      14.771  13.219  16.751  1.00  0.00    -0.390 OA
ATOM     26  H8  UNL     1      14.841  12.739  17.568  1.00  0.00     0.210 HD
ENDBRANCH  17  25
ENDBRANCH  11  12
ENDBRANCH  10  11
ENDBRANCH   1  10
BRANCH   6  27
HETATM   27  C12 UNL     1      19.600  11.319  17.474  1.00  0.00     0.176 C 
BRANCH  27  28
HETATM   28  O3  UNL     1      20.334  12.235  18.065  1.00  0.00    -0.361 OA
BRANCH  28  29
HETATM   29  C13 UNL     1      20.137  13.535  18.173  1.00  0.00     0.262 C 
HETATM   30  C14 UNL     1      20.849  14.142  19.413  1.00  0.00     0.095 C 
HETATM   31  C15 UNL     1      20.309  15.554  19.310  1.00  0.00     0.154 C 
HETATM   32  C16 UNL     1      18.915  15.301  18.761  1.00  0.00     0.177 C 
HETATM   33  O6  UNL     1      18.825  13.934  18.529  1.00  0.00    -0.351 OA
BRANCH  31  34
HETATM   34  O4  UNL     1      20.292  16.222  20.509  1.00  0.00    -0.393 OA
ATOM     35  H4  UNL     1      20.369  17.164  20.419  1.00  0.00     0.210 HD
ENDBRANCH  31  34
BRANCH  32  36
HETATM   36  C17 UNL     1      17.936  15.769  19.816  1.00  0.00     0.198 C 
BRANCH  36  37
HETATM   37  O5  UNL     1      17.623  17.112  19.624  1.00  0.00    -0.398 OA
ATOM     38  H5  UNL     1      17.842  17.379  18.739  1.00  0.00     0.209 HD
ENDBRANCH  36  37
ENDBRANCH  32  36
ENDBRANCH  28  29
ENDBRANCH  27  28
ENDBRANCH   6  27
TORSDOF 14
ENDMDL
