MODEL 1
REMARK VINA RESULT: -7.611698191      0.000      0.000
REMARK  12 active torsions:
REMARK  status: ('A' for Active; 'I' for Inactive)
REMARK    1  A    between atoms: C2_2  and  C3_3 
REMARK    2  A    between atoms: C3_3  and  C4_4 
REMARK    3  A    between atoms: C8_8  and  C9_9 
REMARK    4  A    between atoms: C13_14  and  O2_15 
REMARK    5  A    between atoms: O2_15  and  C14_16 
REMARK    6  A    between atoms: C15_18  and  C16_19 
REMARK    7  A    between atoms: C16_19  and  O4_20 
REMARK    8  A    between atoms: C17_22  and  O5_23 
REMARK    9  A    between atoms: C18_25  and  O6_26 
REMARK   10  A    between atoms: C19_28  and  N1_29 
REMARK       I    between atoms: N1_29  and  C20_31 
REMARK   11  A    between atoms: C20_31  and  C21_33 
REMARK   12  A    between atoms: C21_33  and  N2_34 
ROOT
HETATM    1  C14 UNL     1      15.138  15.908  17.744  1.00  0.00     0.286 C 
HETATM    2  O3  UNL     1      14.329  16.950  18.173  1.00  0.00    -0.349 OA
HETATM    3  C15 UNL     1      12.989  16.715  18.097  1.00  0.00     0.179 C 
HETATM    4  C17 UNL     1      12.546  16.462  16.704  1.00  0.00     0.180 C 
HETATM    5  C18 UNL     1      13.658  16.119  15.751  1.00  0.00     0.177 C 
HETATM    6  C19 UNL     1      14.775  15.356  16.423  1.00  0.00     0.170 C 
ENDROOT
BRANCH   1   7
HETATM    7  O2  UNL     1      16.461  16.338  17.759  1.00  0.00    -0.351 OA
BRANCH   7   8
HETATM    8  C13 UNL     1      17.188  15.838  18.827  1.00  0.00     0.158 C 
HETATM    9  C12 UNL     1      18.593  16.468  18.934  1.00  0.00     0.069 C 
HETATM   10  C11 UNL     1      19.019  15.116  19.472  1.00  0.00     0.155 C 
HETATM   11  O1  UNL     1      20.234  14.665  19.034  1.00  0.00    -0.381 OA
HETATM   12  C22 UNL     1      17.906  14.530  18.626  1.00  0.00     0.180 C 
HETATM   13  C10 UNL     1      20.043  13.329  18.590  1.00  0.00     0.200 C 
HETATM   14  C9  UNL     1      19.434  13.435  17.249  1.00  0.00     0.150 C 
HETATM   15  O8  UNL     1      18.332  14.300  17.345  1.00  0.00    -0.373 OA
BRANCH  14  16
HETATM   16  C8  UNL     1      18.994  12.209  16.560  1.00  0.00     0.025 C 
HETATM   17  C4  UNL     1      19.730  11.670  15.368  1.00  0.00    -0.038 C 
HETATM   18  C5  UNL     1      18.770  10.797  14.541  1.00  0.00     0.015 C 
HETATM   19  C6  UNL     1      20.506  10.792  16.290  1.00  0.00     0.010 C 
HETATM   20  C7  UNL     1      19.354  10.909  17.284  1.00  0.00     0.009 C 
BRANCH  17  21
HETATM   21  C3  UNL     1      20.531  12.609  14.567  1.00  0.00     0.009 C 
BRANCH  21  22
HETATM   22  C2  UNL     1      20.892  12.175  13.169  1.00  0.00    -0.004 C 
HETATM   23  C1  UNL     1      22.130  11.353  13.065  1.00  0.00     0.005 C 
ENDBRANCH  21  22
ENDBRANCH  17  21
ENDBRANCH  14  16
ENDBRANCH   7   8
ENDBRANCH   1   7
BRANCH   6  24
HETATM   24  N1  UNL     1      15.906  15.440  15.515  1.00  0.00    -0.348 N 
HETATM   25  C20 UNL     1      16.519  14.367  14.865  1.00  0.00     0.243 C 
HETATM   26  O7  UNL     1      16.107  13.196  15.047  1.00  0.00    -0.272 OA
ATOM     27  H1  UNL     1      16.287  16.369  15.334  1.00  0.00     0.163 HD
BRANCH  25  28
HETATM   28  C21 UNL     1      17.660  14.587  13.954  1.00  0.00     0.332 C 
BRANCH  28  29
HETATM   29  N2  UNL     1      18.679  15.413  14.542  1.00  0.00    -0.071 N 
ATOM     30  H23 UNL     1      18.272  16.221  15.012  1.00  0.00     0.274 HD
ATOM     31  H22 UNL     1      19.104  14.954  15.348  1.00  0.00     0.274 HD
ATOM     32  H21 UNL     1      19.386  15.697  13.865  1.00  0.00     0.274 HD
ENDBRANCH  28  29
ENDBRANCH  25  28
ENDBRANCH   6  24
BRANCH   3  33
HETATM   33  C16 UNL     1      12.601  15.639  19.073  1.00  0.00     0.198 C 
BRANCH  33  34
HETATM   34  O4  UNL     1      12.118  16.158  20.271  1.00  0.00    -0.398 OA
ATOM     35  H4  UNL     1      12.749  16.084  20.979  1.00  0.00     0.209 HD
ENDBRANCH  33  34
ENDBRANCH   3  33
BRANCH   5  36
HETATM   36  O6  UNL     1      13.127  15.350  14.726  1.00  0.00    -0.391 OA
ATOM     37  H6  UNL     1      12.295  15.730  14.471  1.00  0.00     0.210 HD
ENDBRANCH   5  36
BRANCH   4  38
HETATM   38  O5  UNL     1      11.516  15.526  16.609  1.00  0.00    -0.390 OA
ATOM     39  H5  UNL     1      11.526  15.031  15.797  1.00  0.00     0.210 HD
ENDBRANCH   4  38
TORSDOF 12
ENDMDL
MODEL 2
REMARK VINA RESULT: -7.426834617      2.432      6.977
REMARK  12 active torsions:
REMARK  status: ('A' for Active; 'I' for Inactive)
REMARK    1  A    between atoms: C2_2  and  C3_3 
REMARK    2  A    between atoms: C3_3  and  C4_4 
REMARK    3  A    between atoms: C8_8  and  C9_9 
REMARK    4  A    between atoms: C13_14  and  O2_15 
REMARK    5  A    between atoms: O2_15  and  C14_16 
REMARK    6  A    between atoms: C15_18  and  C16_19 
REMARK    7  A    between atoms: C16_19  and  O4_20 
REMARK    8  A    between atoms: C17_22  and  O5_23 
REMARK    9  A    between atoms: C18_25  and  O6_26 
REMARK   10  A    between atoms: C19_28  and  N1_29 
REMARK       I    between atoms: N1_29  and  C20_31 
REMARK   11  A    between atoms: C20_31  and  C21_33 
REMARK   12  A    between atoms: C21_33  and  N2_34 
ROOT
HETATM    1  C14 UNL     1      19.870  12.302  15.576  1.00  0.00     0.286 C 
HETATM    2  O3  UNL     1      20.284  10.980  15.651  1.00  0.00    -0.349 OA
HETATM    3  C15 UNL     1      20.777  10.459  14.493  1.00  0.00     0.179 C 
HETATM    4  C17 UNL     1      19.767  10.461  13.407  1.00  0.00     0.180 C 
HETATM    5  C18 UNL     1      18.591  11.367  13.653  1.00  0.00     0.177 C 
HETATM    6  C19 UNL     1      18.971  12.598  14.442  1.00  0.00     0.170 C 
ENDROOT
BRANCH   1   7
HETATM    7  O2  UNL     1      19.278  12.652  16.786  1.00  0.00    -0.351 OA
BRANCH   7   8
HETATM    8  C13 UNL     1      20.008  13.585  17.503  1.00  0.00     0.158 C 
HETATM    9  C12 UNL     1      20.163  13.200  18.990  1.00  0.00     0.069 C 
HETATM   10  C11 UNL     1      20.136  14.694  19.248  1.00  0.00     0.155 C 
HETATM   11  O1  UNL     1      19.427  15.089  20.349  1.00  0.00    -0.381 OA
HETATM   12  C22 UNL     1      19.277  14.802  18.004  1.00  0.00     0.180 C 
HETATM   13  C10 UNL     1      18.568  16.141  19.932  1.00  0.00     0.200 C 
HETATM   14  C9  UNL     1      17.432  15.484  19.253  1.00  0.00     0.150 C 
HETATM   15  O8  UNL     1      17.956  14.596  18.301  1.00  0.00    -0.373 OA
BRANCH  14  16
HETATM   16  C8  UNL     1      16.413  16.317  18.590  1.00  0.00     0.025 C 
HETATM   17  C4  UNL     1      14.997  15.847  18.430  1.00  0.00    -0.038 C 
HETATM   18  C5  UNL     1      14.353  16.596  17.249  1.00  0.00     0.015 C 
HETATM   19  C6  UNL     1      14.656  16.559  19.695  1.00  0.00     0.010 C 
HETATM   20  C7  UNL     1      15.864  17.458  19.451  1.00  0.00     0.009 C 
BRANCH  17  21
HETATM   21  C3  UNL     1      14.744  14.398  18.432  1.00  0.00     0.009 C 
BRANCH  21  22
HETATM   22  C2  UNL     1      13.573  13.909  17.618  1.00  0.00    -0.004 C 
HETATM   23  C1  UNL     1      12.237  14.147  18.232  1.00  0.00     0.005 C 
ENDBRANCH  21  22
ENDBRANCH  17  21
ENDBRANCH  14  16
ENDBRANCH   7   8
ENDBRANCH   1   7
BRANCH   6  24
HETATM   24  N1  UNL     1      17.718  13.153  14.925  1.00  0.00    -0.348 N 
HETATM   25  C20 UNL     1      16.968  14.152  14.300  1.00  0.00     0.243 C 
HETATM   26  O7  UNL     1      17.363  14.662  13.224  1.00  0.00    -0.272 OA
ATOM     27  H1  UNL     1      17.352  12.779  15.800  1.00  0.00     0.163 HD
BRANCH  25  28
HETATM   28  C21 UNL     1      15.700  14.625  14.890  1.00  0.00     0.332 C 
BRANCH  28  29
HETATM   29  N2  UNL     1      15.138  15.730  14.165  1.00  0.00    -0.071 N 
ATOM     30  H23 UNL     1      14.277  16.057  14.602  1.00  0.00     0.274 HD
ATOM     31  H22 UNL     1      15.706  16.570  14.276  1.00  0.00     0.274 HD
ATOM     32  H21 UNL     1      14.991  15.513  13.179  1.00  0.00     0.274 HD
ENDBRANCH  28  29
ENDBRANCH  25  28
ENDBRANCH   6  24
BRANCH   3  33
HETATM   33  C16 UNL     1      22.070  11.137  14.134  1.00  0.00     0.198 C 
BRANCH  33  34
HETATM   34  O4  UNL     1      23.004  10.253  13.602  1.00  0.00    -0.398 OA
ATOM     35  H4  UNL     1      22.761   9.344  13.737  1.00  0.00     0.209 HD
ENDBRANCH  33  34
ENDBRANCH   3  33
BRANCH   5  36
HETATM   36  O6  UNL     1      18.075  11.750  12.424  1.00  0.00    -0.391 OA
ATOM     37  H6  UNL     1      17.771  10.970  11.975  1.00  0.00     0.210 HD
ENDBRANCH   5  36
BRANCH   4  38
HETATM   38  O5  UNL     1      20.309  10.697  12.143  1.00  0.00    -0.390 OA
ATOM     39  H5  UNL     1      20.752  11.535  12.071  1.00  0.00     0.210 HD
ENDBRANCH   4  38
TORSDOF 12
ENDMDL
MODEL 3
REMARK VINA RESULT: -7.204701006      2.121      3.978
REMARK  12 active torsions:
REMARK  status: ('A' for Active; 'I' for Inactive)
REMARK    1  A    between atoms: C2_2  and  C3_3 
REMARK    2  A    between atoms: C3_3  and  C4_4 
REMARK    3  A    between atoms: C8_8  and  C9_9 
REMARK    4  A    between atoms: C13_14  and  O2_15 
REMARK    5  A    between atoms: O2_15  and  C14_16 
REMARK    6  A    between atoms: C15_18  and  C16_19 
REMARK    7  A    between atoms: C16_19  and  O4_20 
REMARK    8  A    between atoms: C17_22  and  O5_23 
REMARK    9  A    between atoms: C18_25  and  O6_26 
REMARK   10  A    between atoms: C19_28  and  N1_29 
REMARK       I    between atoms: N1_29  and  C20_31 
REMARK   11  A    between atoms: C20_31  and  C21_33 
REMARK   12  A    between atoms: C21_33  and  N2_34 
ROOT
HETATM    1  C14 UNL     1      16.391  15.404  16.743  1.00  0.00     0.286 C 
HETATM    2  O3  UNL     1      15.492  14.379  16.481  1.00  0.00    -0.349 OA
HETATM    3  C15 UNL     1      14.177  14.732  16.540  1.00  0.00     0.179 C 
HETATM    4  C17 UNL     1      13.791  15.219  17.887  1.00  0.00     0.180 C 
HETATM    5  C18 UNL     1      14.950  15.604  18.765  1.00  0.00     0.177 C 
HETATM    6  C19 UNL     1      16.106  16.168  17.973  1.00  0.00     0.170 C 
ENDROOT
BRANCH   1   7
HETATM    7  O2  UNL     1      17.676  14.870  16.772  1.00  0.00    -0.351 OA
BRANCH   7   8
HETATM    8  C13 UNL     1      17.700  13.516  17.065  1.00  0.00     0.158 C 
HETATM    9  C12 UNL     1      18.737  13.163  18.152  1.00  0.00     0.069 C 
HETATM   10  C11 UNL     1      18.886  11.853  17.405  1.00  0.00     0.155 C 
HETATM   11  O1  UNL     1      20.165  11.379  17.296  1.00  0.00    -0.381 OA
HETATM   12  C22 UNL     1      18.505  12.625  16.157  1.00  0.00     0.180 C 
HETATM   13  C10 UNL     1      20.368  11.047  15.930  1.00  0.00     0.200 C 
HETATM   14  C9  UNL     1      20.627  12.328  15.240  1.00  0.00     0.150 C 
HETATM   15  O8  UNL     1      19.602  13.220  15.595  1.00  0.00    -0.373 OA
BRANCH  14  16
HETATM   16  C8  UNL     1      20.757  12.340  13.773  1.00  0.00     0.025 C 
HETATM   17  C4  UNL     1      21.772  11.488  13.068  1.00  0.00    -0.038 C 
HETATM   18  C5  UNL     1      22.080  12.112  11.694  1.00  0.00     0.015 C 
HETATM   19  C6  UNL     1      20.722  10.443  12.897  1.00  0.00     0.010 C 
HETATM   20  C7  UNL     1      19.678  11.547  13.031  1.00  0.00     0.009 C 
BRANCH  17  21
HETATM   21  C3  UNL     1      22.965  11.067  13.819  1.00  0.00     0.009 C 
BRANCH  21  22
HETATM   22  C2  UNL     1      24.302  11.307  13.163  1.00  0.00    -0.004 C 
HETATM   23  C1  UNL     1      25.441  10.560  13.766  1.00  0.00     0.005 C 
ENDBRANCH  21  22
ENDBRANCH  17  21
ENDBRANCH  14  16
ENDBRANCH   7   8
ENDBRANCH   1   7
BRANCH   6  24
HETATM   24  N1  UNL     1      17.250  16.124  18.869  1.00  0.00    -0.348 N 
HETATM   25  C20 UNL     1      17.576  17.081  19.831  1.00  0.00     0.243 C 
HETATM   26  O7  UNL     1      16.859  18.100  19.981  1.00  0.00    -0.272 OA
ATOM     27  H1  UNL     1      17.871  15.320  18.787  1.00  0.00     0.163 HD
BRANCH  25  28
HETATM   28  C21 UNL     1      18.765  16.914  20.690  1.00  0.00     0.332 C 
BRANCH  28  29
HETATM   29  N2  UNL     1      19.515  18.132  20.828  1.00  0.00    -0.071 N 
ATOM     30  H23 UNL     1      20.516  17.943  20.878  1.00  0.00     0.274 HD
ATOM     31  H22 UNL     1      19.495  18.676  19.966  1.00  0.00     0.274 HD
ATOM     32  H21 UNL     1      19.206  18.691  21.624  1.00  0.00     0.274 HD
ENDBRANCH  28  29
ENDBRANCH  25  28
ENDBRANCH   6  24
BRANCH   3  33
HETATM   33  C16 UNL     1      13.850  15.683  15.423  1.00  0.00     0.198 C 
BRANCH  33  34
HETATM   34  O4  UNL     1      12.572  15.482  14.911  1.00  0.00    -0.398 OA
ATOM     35  H4  UNL     1      11.908  15.456  15.591  1.00  0.00     0.209 HD
ENDBRANCH  33  34
ENDBRANCH   3  33
BRANCH   5  36
HETATM   36  O6  UNL     1      14.508  16.554  19.673  1.00  0.00    -0.391 OA
ATOM     37  H6  UNL     1      14.304  16.111  20.489  1.00  0.00     0.210 HD
ENDBRANCH   5  36
BRANCH   4  38
HETATM   38  O5  UNL     1      12.840  16.240  17.858  1.00  0.00    -0.390 OA
ATOM     39  H5  UNL     1      12.978  16.867  17.157  1.00  0.00     0.210 HD
ENDBRANCH   4  38
TORSDOF 12
ENDMDL
MODEL 4
REMARK VINA RESULT: -7.036066154      1.282      1.398
REMARK  12 active torsions:
REMARK  status: ('A' for Active; 'I' for Inactive)
REMARK    1  A    between atoms: C2_2  and  C3_3 
REMARK    2  A    between atoms: C3_3  and  C4_4 
REMARK    3  A    between atoms: C8_8  and  C9_9 
REMARK    4  A    between atoms: C13_14  and  O2_15 
REMARK    5  A    between atoms: O2_15  and  C14_16 
REMARK    6  A    between atoms: C15_18  and  C16_19 
REMARK    7  A    between atoms: C16_19  and  O4_20 
REMARK    8  A    between atoms: C17_22  and  O5_23 
REMARK    9  A    between atoms: C18_25  and  O6_26 
REMARK   10  A    between atoms: C19_28  and  N1_29 
REMARK       I    between atoms: N1_29  and  C20_31 
REMARK   11  A    between atoms: C20_31  and  C21_33 
REMARK   12  A    between atoms: C21_33  and  N2_34 
ROOT
HETATM    1  C14 UNL     1      15.357  15.281  18.322  1.00  0.00     0.286 C 
HETATM    2  O3  UNL     1      14.712  16.486  18.560  1.00  0.00    -0.349 OA
HETATM    3  C15 UNL     1      13.404  16.382  18.928  1.00  0.00     0.179 C 
HETATM    4  C17 UNL     1      12.581  15.732  17.879  1.00  0.00     0.180 C 
HETATM    5  C18 UNL     1      13.374  14.977  16.846  1.00  0.00     0.177 C 
HETATM    6  C19 UNL     1      14.629  14.366  17.421  1.00  0.00     0.170 C 
ENDROOT
BRANCH   1   7
HETATM    7  O2  UNL     1      16.633  15.550  17.837  1.00  0.00    -0.351 OA
BRANCH   7   8
HETATM    8  C13 UNL     1      17.637  14.930  18.563  1.00  0.00     0.158 C 
HETATM    9  C12 UNL     1      18.983  15.680  18.473  1.00  0.00     0.069 C 
HETATM   10  C11 UNL     1      19.611  14.304  18.578  1.00  0.00     0.155 C 
HETATM   11  O1  UNL     1      20.698  14.091  17.775  1.00  0.00    -0.381 OA
HETATM   12  C22 UNL     1      18.355  13.779  17.911  1.00  0.00     0.180 C 
HETATM   13  C10 UNL     1      20.480  12.859  17.102  1.00  0.00     0.200 C 
HETATM   14  C9  UNL     1      19.542  13.165  16.002  1.00  0.00     0.150 C 
HETATM   15  O8  UNL     1      18.453  13.862  16.548  1.00  0.00    -0.373 OA
BRANCH  14  16
HETATM   16  C8  UNL     1      19.014  12.061  15.181  1.00  0.00     0.025 C 
HETATM   17  C4  UNL     1      19.784  11.512  14.015  1.00  0.00    -0.038 C 
HETATM   18  C5  UNL     1      18.801  10.837  13.041  1.00  0.00     0.015 C 
HETATM   19  C6  UNL     1      20.348  10.474  14.924  1.00  0.00     0.010 C 
HETATM   20  C7  UNL     1      19.133  10.677  15.824  1.00  0.00     0.009 C 
BRANCH  17  21
HETATM   21  C3  UNL     1      20.772  12.386  13.364  1.00  0.00     0.009 C 
BRANCH  21  22
HETATM   22  C2  UNL     1      21.776  11.721  12.456  1.00  0.00    -0.004 C 
HETATM   23  C1  UNL     1      23.064  11.352  13.106  1.00  0.00     0.005 C 
ENDBRANCH  21  22
ENDBRANCH  17  21
ENDBRANCH  14  16
ENDBRANCH   7   8
ENDBRANCH   1   7
BRANCH   6  24
HETATM   24  N1  UNL     1      15.456  14.025  16.276  1.00  0.00    -0.348 N 
HETATM   25  C20 UNL     1      15.497  14.710  15.060  1.00  0.00     0.243 C 
HETATM   26  O7  UNL     1      14.772  15.718  14.874  1.00  0.00    -0.272 OA
ATOM     27  H1  UNL     1      16.062  13.210  16.368  1.00  0.00     0.163 HD
BRANCH  25  28
HETATM   28  C21 UNL     1      16.392  14.266  13.973  1.00  0.00     0.332 C 
BRANCH  28  29
HETATM   29  N2  UNL     1      17.524  15.136  13.807  1.00  0.00    -0.071 N 
ATOM     30  H23 UNL     1      17.986  15.312  14.698  1.00  0.00     0.274 HD
ATOM     31  H22 UNL     1      18.285  14.660  13.321  1.00  0.00     0.274 HD
ATOM     32  H21 UNL     1      17.278  16.008  13.339  1.00  0.00     0.274 HD
ENDBRANCH  28  29
ENDBRANCH  25  28
ENDBRANCH   6  24
BRANCH   3  33
HETATM   33  C16 UNL     1      13.300  15.737  20.282  1.00  0.00     0.198 C 
BRANCH  33  34
HETATM   34  O4  UNL     1      12.062  15.952  20.879  1.00  0.00    -0.398 OA
ATOM     35  H4  UNL     1      12.137  16.373  21.728  1.00  0.00     0.209 HD
ENDBRANCH  33  34
ENDBRANCH   3  33
BRANCH   5  36
HETATM   36  O6  UNL     1      12.567  13.973  16.330  1.00  0.00    -0.391 OA
ATOM     37  H6  UNL     1      12.822  13.822  15.428  1.00  0.00     0.210 HD
ENDBRANCH   5  36
BRANCH   4  38
HETATM   38  O5  UNL     1      11.559  14.931  18.390  1.00  0.00    -0.390 OA
ATOM     39  H5  UNL     1      10.777  15.418  18.626  1.00  0.00     0.210 HD
ENDBRANCH   4  38
TORSDOF 12
ENDMDL
MODEL 5
REMARK VINA RESULT: -6.842710292      2.114      4.565
REMARK  12 active torsions:
REMARK  status: ('A' for Active; 'I' for Inactive)
REMARK    1  A    between atoms: C2_2  and  C3_3 
REMARK    2  A    between atoms: C3_3  and  C4_4 
REMARK    3  A    between atoms: C8_8  and  C9_9 
REMARK    4  A    between atoms: C13_14  and  O2_15 
REMARK    5  A    between atoms: O2_15  and  C14_16 
REMARK    6  A    between atoms: C15_18  and  C16_19 
REMARK    7  A    between atoms: C16_19  and  O4_20 
REMARK    8  A    between atoms: C17_22  and  O5_23 
REMARK    9  A    between atoms: C18_25  and  O6_26 
REMARK   10  A    between atoms: C19_28  and  N1_29 
REMARK       I    between atoms: N1_29  and  C20_31 
REMARK   11  A    between atoms: C20_31  and  C21_33 
REMARK   12  A    between atoms: C21_33  and  N2_34 
ROOT
HETATM    1  C14 UNL     1      15.384  14.928  15.480  1.00  0.00     0.286 C 
HETATM    2  O3  UNL     1      15.784  15.033  16.805  1.00  0.00    -0.349 OA
HETATM    3  C15 UNL     1      14.866  14.619  17.723  1.00  0.00     0.179 C 
HETATM    4  C17 UNL     1      13.615  15.414  17.658  1.00  0.00     0.180 C 
HETATM    5  C18 UNL     1      13.447  16.203  16.388  1.00  0.00     0.177 C 
HETATM    6  C19 UNL     1      14.057  15.508  15.195  1.00  0.00     0.170 C 
ENDROOT
BRANCH   1   7
HETATM    7  O2  UNL     1      16.363  15.501  14.674  1.00  0.00    -0.351 OA
BRANCH   7   8
HETATM    8  C13 UNL     1      17.165  14.568  14.038  1.00  0.00     0.158 C 
HETATM    9  C12 UNL     1      16.646  13.125  14.212  1.00  0.00     0.069 C 
HETATM   10  C11 UNL     1      18.109  12.731  14.182  1.00  0.00     0.155 C 
HETATM   11  O1  UNL     1      18.474  11.753  15.068  1.00  0.00    -0.381 OA
HETATM   12  C22 UNL     1      18.396  14.100  14.765  1.00  0.00     0.180 C 
HETATM   13  C10 UNL     1      19.630  12.222  15.748  1.00  0.00     0.200 C 
HETATM   14  C9  UNL     1      19.137  13.169  16.769  1.00  0.00     0.150 C 
HETATM   15  O8  UNL     1      18.286  14.086  16.130  1.00  0.00    -0.373 OA
BRANCH  14  16
HETATM   16  C8  UNL     1      20.110  13.931  17.571  1.00  0.00     0.025 C 
HETATM   17  C4  UNL     1      19.710  14.623  18.842  1.00  0.00    -0.038 C 
HETATM   18  C5  UNL     1      20.705  15.764  19.124  1.00  0.00     0.015 C 
HETATM   19  C6  UNL     1      20.142  13.411  19.595  1.00  0.00     0.010 C 
HETATM   20  C7  UNL     1      21.050  13.069  18.418  1.00  0.00     0.009 C 
BRANCH  17  21
HETATM   21  C3  UNL     1      18.298  15.001  19.010  1.00  0.00     0.009 C 
BRANCH  21  22
HETATM   22  C2  UNL     1      18.019  16.265  19.781  1.00  0.00    -0.004 C 
HETATM   23  C1  UNL     1      16.791  16.999  19.365  1.00  0.00     0.005 C 
ENDBRANCH  21  22
ENDBRANCH  17  21
ENDBRANCH  14  16
ENDBRANCH   7   8
ENDBRANCH   1   7
BRANCH   6  24
HETATM   24  N1  UNL     1      14.163  16.525  14.163  1.00  0.00    -0.348 N 
HETATM   25  C20 UNL     1      13.395  16.599  12.999  1.00  0.00     0.243 C 
HETATM   26  O7  UNL     1      12.519  15.732  12.762  1.00  0.00    -0.272 OA
ATOM     27  H1  UNL     1      14.864  17.253  14.301  1.00  0.00     0.163 HD
BRANCH  25  28
HETATM   28  C21 UNL     1      13.595  17.694  12.030  1.00  0.00     0.332 C 
BRANCH  28  29
HETATM   29  N2  UNL     1      12.390  18.021  11.318  1.00  0.00    -0.071 N 
ATOM     30  H23 UNL     1      12.600  18.460  10.422  1.00  0.00     0.274 HD
ATOM     31  H22 UNL     1      11.922  17.180  10.982  1.00  0.00     0.274 HD
ATOM     32  H21 UNL     1      11.757  18.599  11.872  1.00  0.00     0.274 HD
ENDBRANCH  28  29
ENDBRANCH  25  28
ENDBRANCH   6  24
BRANCH   3  33
HETATM   33  C16 UNL     1      14.660  13.134  17.610  1.00  0.00     0.198 C 
BRANCH  33  34
HETATM   34  O4  UNL     1      14.638  12.505  18.851  1.00  0.00    -0.398 OA
ATOM     35  H4  UNL     1      15.511  12.318  19.179  1.00  0.00     0.209 HD
ENDBRANCH  33  34
ENDBRANCH   3  33
BRANCH   5  36
HETATM   36  O6  UNL     1      12.089  16.386  16.170  1.00  0.00    -0.391 OA
ATOM     37  H6  UNL     1      11.614  15.818  16.765  1.00  0.00     0.210 HD
ENDBRANCH   5  36
BRANCH   4  38
HETATM   38  O5  UNL     1      12.467  14.668  17.925  1.00  0.00    -0.390 OA
ATOM     39  H5  UNL     1      12.124  14.801  18.801  1.00  0.00     0.210 HD
ENDBRANCH   4  38
TORSDOF 12
ENDMDL
