MODEL 1
REMARK VINA RESULT: -6.506307757      0.000      0.000
REMARK  13 active torsions:
REMARK  status: ('A' for Active; 'I' for Inactive)
REMARK    1  A    between atoms: C3_5  and  N2_6 
REMARK    2  A    between atoms: C5_13  and  C6_14 
REMARK    3  A    between atoms: C6_14  and  C7_16 
REMARK    4  A    between atoms: N5_19  and  C8_20 
REMARK    5  A    between atoms: C8_20  and  C9_21 
REMARK    6  A    between atoms: C9_21  and  C10_22 
REMARK    7  A    between atoms: C10_22  and  N6_23 
REMARK    8  A    between atoms: C13_30  and  C14_31 
REMARK    9  A    between atoms: C15_34  and  C16_35 
REMARK   10  A    between atoms: C17_38  and  C18_39 
REMARK   11  A    between atoms: N9_44  and  C20_45 
REMARK   12  A    between atoms: C22_48  and  C23_49 
REMARK   13  A    between atoms: C23_49  and  O12_50 
ROOT
HETATM    1  C7  UNL     1      70.943  36.722  66.157  1.00  0.00     0.180 A 
HETATM    2  N4  UNL     1      70.279  36.835  65.014  1.00  0.00    -0.272 N 
ATOM      3  H4  UNL     1      70.719  36.830  64.093  1.00  0.00     0.189 HD
HETATM    4  N5  UNL     1      68.955  36.958  65.217  1.00  0.00    -0.219 N 
HETATM    5  C19 UNL     1      68.826  36.904  66.570  1.00  0.00     0.350 A 
HETATM    6  O11 UNL     1      67.716  36.977  67.165  1.00  0.00    -0.244 OA
HETATM    7  N9  UNL     1      70.037  36.764  67.147  1.00  0.00    -0.264 N 
ENDROOT
BRANCH   4   8
HETATM    8  C8  UNL     1      67.967  37.226  64.224  1.00  0.00     0.096 C 
BRANCH   8   9
HETATM    9  C9  UNL     1      67.517  36.327  63.199  1.00  0.00     0.067 C 
BRANCH   9  10
HETATM   10  C10 UNL     1      67.433  34.839  63.485  1.00  0.00     0.144 C 
BRANCH  10  11
HETATM   11  N6  UNL     1      68.223  34.143  62.451  1.00  0.00    -0.248 N 
HETATM   12  C11 UNL     1      69.563  33.891  62.617  1.00  0.00     0.352 A 
HETATM   13  O3  UNL     1      70.165  34.206  63.671  1.00  0.00    -0.244 OA
HETATM   14  N7  UNL     1      70.048  33.291  61.514  1.00  0.00    -0.190 N 
HETATM   15  N8  UNL     1      69.054  33.169  60.682  1.00  0.00    -0.211 N 
HETATM   16  C17 UNL     1      71.239  32.743  60.892  1.00  0.00     0.153 A 
HETATM   17  C12 UNL     1      67.921  33.691  61.253  1.00  0.00     0.349 A 
HETATM   18  C13 UNL     1      69.490  32.558  59.463  1.00  0.00     0.257 A 
HETATM   19  O4  UNL     1      66.801  33.720  60.710  1.00  0.00    -0.245 OA
HETATM   20  C15 UNL     1      70.952  32.296  59.684  1.00  0.00     0.089 A 
BRANCH  18  21
HETATM   21  C14 UNL     1      69.339  33.557  58.346  1.00  0.00     0.204 C 
HETATM   22  O5  UNL     1      68.653  33.181  57.338  1.00  0.00    -0.646 OA
HETATM   23  O6  UNL     1      69.869  34.805  58.339  1.00  0.00    -0.646 OA
ENDBRANCH  18  21
BRANCH  20  24
HETATM   24  C16 UNL     1      71.768  31.675  58.677  1.00  0.00     0.210 C 
HETATM   25  O7  UNL     1      71.330  30.659  58.031  1.00  0.00    -0.644 OA
HETATM   26  O8  UNL     1      73.031  32.066  58.305  1.00  0.00    -0.644 OA
ENDBRANCH  20  24
BRANCH  16  27
HETATM   27  C18 UNL     1      72.526  32.717  61.549  1.00  0.00     0.230 C 
HETATM   28  O9  UNL     1      73.505  33.457  61.377  1.00  0.00    -0.643 OA
HETATM   29  O10 UNL     1      72.758  31.731  62.532  1.00  0.00    -0.643 OA
ENDBRANCH  16  27
ENDBRANCH  10  11
ENDBRANCH   9  10
ENDBRANCH   8   9
ENDBRANCH   4   8
BRANCH   1  30
HETATM   30  C6  UNL     1      72.414  36.634  66.228  1.00  0.00     0.235 C 
HETATM   31  O2  UNL     1      72.939  36.802  67.370  1.00  0.00    -0.283 OA
BRANCH  30  32
HETATM   32  C5  UNL     1      73.278  36.377  65.112  1.00  0.00     0.109 A 
HETATM   33  C2  UNL     1      73.692  35.156  64.649  1.00  0.00     0.042 A 
HETATM   34  C1  UNL     1      73.284  33.894  65.313  1.00  0.00     0.070 C 
HETATM   35  N1  UNL     1      74.498  35.043  63.575  1.00  0.00    -0.195 N 
HETATM   36  C3  UNL     1      74.945  36.101  62.894  1.00  0.00     0.679 A 
ATOM     37  H1  UNL     1      74.777  34.111  63.269  1.00  0.00     0.184 HD
HETATM   38  N3  UNL     1      74.560  37.316  63.320  1.00  0.00    -0.155 N 
HETATM   39  C4  UNL     1      73.752  37.486  64.394  1.00  0.00     0.276 A 
ATOM     40  H3  UNL     1      74.889  38.140  62.817  1.00  0.00     0.187 HD
HETATM   41  O1  UNL     1      73.466  38.669  64.693  1.00  0.00    -0.267 OA
BRANCH  36  42
HETATM   42  N2  UNL     1      75.722  35.939  61.869  1.00  0.00    -0.234 N 
ATOM     43  H22 UNL     1      75.388  36.036  60.910  1.00  0.00     0.174 HD
ATOM     44  H21 UNL     1      76.707  35.708  62.001  1.00  0.00     0.174 HD
ENDBRANCH  36  42
ENDBRANCH  30  32
ENDBRANCH   1  30
BRANCH   7  45
HETATM   45  C20 UNL     1      70.338  36.749  68.526  1.00  0.00     0.168 C 
HETATM   46  C21 UNL     1      69.677  37.840  69.346  1.00  0.00     0.112 C 
HETATM   47  S1  UNL     1      70.522  37.589  70.960  1.00  0.00    -0.149 SA
HETATM   48  C22 UNL     1      70.659  35.758  71.086  1.00  0.00     0.134 C 
HETATM   49  S2  UNL     1      69.873  35.292  69.478  1.00  0.00    -0.125 SA
BRANCH  48  50
HETATM   50  C23 UNL     1      69.887  35.246  72.255  1.00  0.00     0.190 C 
BRANCH  50  51
HETATM   51  O12 UNL     1      69.424  36.380  72.952  1.00  0.00    -0.399 OA
ATOM     52  H12 UNL     1      69.588  36.213  73.872  1.00  0.00     0.209 HD
ENDBRANCH  50  51
ENDBRANCH  48  50
ENDBRANCH   7  45
TORSDOF 13
ENDMDL
MODEL 2
REMARK VINA RESULT: -6.468132893      3.774      7.245
REMARK  13 active torsions:
REMARK  status: ('A' for Active; 'I' for Inactive)
REMARK    1  A    between atoms: C3_5  and  N2_6 
REMARK    2  A    between atoms: C5_13  and  C6_14 
REMARK    3  A    between atoms: C6_14  and  C7_16 
REMARK    4  A    between atoms: N5_19  and  C8_20 
REMARK    5  A    between atoms: C8_20  and  C9_21 
REMARK    6  A    between atoms: C9_21  and  C10_22 
REMARK    7  A    between atoms: C10_22  and  N6_23 
REMARK    8  A    between atoms: C13_30  and  C14_31 
REMARK    9  A    between atoms: C15_34  and  C16_35 
REMARK   10  A    between atoms: C17_38  and  C18_39 
REMARK   11  A    between atoms: N9_44  and  C20_45 
REMARK   12  A    between atoms: C22_48  and  C23_49 
REMARK   13  A    between atoms: C23_49  and  O12_50 
ROOT
HETATM    1  C7  UNL     1      70.034  37.244  70.761  1.00  0.00     0.180 A 
HETATM    2  N4  UNL     1      69.136  37.628  69.863  1.00  0.00    -0.272 N 
ATOM      3  H4  UNL     1      68.421  38.335  70.034  1.00  0.00     0.189 HD
HETATM    4  N5  UNL     1      69.286  36.972  68.698  1.00  0.00    -0.219 N 
HETATM    5  C19 UNL     1      70.349  36.152  68.919  1.00  0.00     0.350 A 
HETATM    6  O11 UNL     1      70.814  35.368  68.047  1.00  0.00    -0.244 OA
HETATM    7  N9  UNL     1      70.805  36.312  70.179  1.00  0.00    -0.264 N 
ENDROOT
BRANCH   4   8
HETATM    8  C8  UNL     1      68.420  37.045  67.567  1.00  0.00     0.096 C 
BRANCH   8   9
HETATM    9  C9  UNL     1      68.709  36.591  66.236  1.00  0.00     0.067 C 
BRANCH   9  10
HETATM   10  C10 UNL     1      69.437  37.506  65.268  1.00  0.00     0.144 C 
BRANCH  10  11
HETATM   11  N6  UNL     1      70.843  37.062  65.210  1.00  0.00    -0.248 N 
HETATM   12  C11 UNL     1      71.848  37.770  65.823  1.00  0.00     0.352 A 
HETATM   13  O3  UNL     1      71.609  38.803  66.493  1.00  0.00    -0.244 OA
HETATM   14  N7  UNL     1      73.030  37.176  65.577  1.00  0.00    -0.190 N 
HETATM   15  N8  UNL     1      72.784  36.134  64.837  1.00  0.00    -0.211 N 
HETATM   16  C17 UNL     1      74.461  37.252  65.804  1.00  0.00     0.153 A 
HETATM   17  C12 UNL     1      71.434  36.054  64.606  1.00  0.00     0.349 A 
HETATM   18  C13 UNL     1      74.000  35.453  64.506  1.00  0.00     0.257 A 
HETATM   19  O4  UNL     1      70.881  35.164  63.933  1.00  0.00    -0.245 OA
HETATM   20  C15 UNL     1      75.069  36.252  65.194  1.00  0.00     0.089 A 
BRANCH  18  21
HETATM   21  C14 UNL     1      74.208  35.543  63.017  1.00  0.00     0.204 C 
HETATM   22  O5  UNL     1      73.944  34.492  62.342  1.00  0.00    -0.646 OA
HETATM   23  O6  UNL     1      74.646  36.643  62.355  1.00  0.00    -0.646 OA
ENDBRANCH  18  21
BRANCH  20  24
HETATM   24  C16 UNL     1      76.456  35.884  65.110  1.00  0.00     0.210 C 
HETATM   25  O7  UNL     1      77.281  36.630  64.475  1.00  0.00    -0.644 OA
HETATM   26  O8  UNL     1      77.031  34.766  65.663  1.00  0.00    -0.644 OA
ENDBRANCH  20  24
BRANCH  16  27
HETATM   27  C18 UNL     1      75.077  38.294  66.595  1.00  0.00     0.230 C 
HETATM   28  O9  UNL     1      75.830  38.187  67.574  1.00  0.00    -0.643 OA
HETATM   29  O10 UNL     1      74.821  39.638  66.252  1.00  0.00    -0.643 OA
ENDBRANCH  16  27
ENDBRANCH  10  11
ENDBRANCH   9  10
ENDBRANCH   8   9
ENDBRANCH   4   8
BRANCH   1  30
HETATM   30  C6  UNL     1      70.058  37.758  72.144  1.00  0.00     0.235 C 
HETATM   31  O2  UNL     1      69.569  37.006  73.040  1.00  0.00    -0.283 OA
BRANCH  30  32
HETATM   32  C5  UNL     1      70.590  39.031  72.540  1.00  0.00     0.109 A 
HETATM   33  C2  UNL     1      71.844  39.289  73.030  1.00  0.00     0.042 A 
HETATM   34  C1  UNL     1      72.834  38.205  73.240  1.00  0.00     0.070 C 
HETATM   35  N1  UNL     1      72.233  40.538  73.354  1.00  0.00    -0.195 N 
HETATM   36  C3  UNL     1      71.434  41.600  73.223  1.00  0.00     0.679 A 
ATOM     37  H1  UNL     1      73.177  40.677  73.714  1.00  0.00     0.184 HD
HETATM   38  N3  UNL     1      70.196  41.384  72.746  1.00  0.00    -0.155 N 
HETATM   39  C4  UNL     1      69.754  40.150  72.405  1.00  0.00     0.276 A 
ATOM     40  H3  UNL     1      69.566  42.179  72.637  1.00  0.00     0.187 HD
HETATM   41  O1  UNL     1      68.579  40.080  71.974  1.00  0.00    -0.267 OA
BRANCH  36  42
HETATM   42  N2  UNL     1      71.855  42.780  73.553  1.00  0.00    -0.234 N 
ATOM     43  H22 UNL     1      71.495  43.629  73.118  1.00  0.00     0.174 HD
ATOM     44  H21 UNL     1      72.570  42.889  74.273  1.00  0.00     0.174 HD
ENDBRANCH  36  42
ENDBRANCH  30  32
ENDBRANCH   1  30
BRANCH   7  45
HETATM   45  C20 UNL     1      71.836  35.593  70.819  1.00  0.00     0.168 C 
HETATM   46  C21 UNL     1      71.630  34.092  70.894  1.00  0.00     0.112 C 
HETATM   47  S1  UNL     1      73.035  33.627  71.985  1.00  0.00    -0.149 SA
HETATM   48  C22 UNL     1      74.393  34.736  71.425  1.00  0.00     0.134 C 
HETATM   49  S2  UNL     1      73.488  35.666  70.107  1.00  0.00    -0.125 SA
BRANCH  48  50
HETATM   50  C23 UNL     1      75.531  33.947  70.872  1.00  0.00     0.190 C 
BRANCH  50  51
HETATM   51  O12 UNL     1      75.054  33.336  69.695  1.00  0.00    -0.399 OA
ATOM     52  H12 UNL     1      75.715  32.705  69.435  1.00  0.00     0.209 HD
ENDBRANCH  50  51
ENDBRANCH  48  50
ENDBRANCH   7  45
TORSDOF 13
ENDMDL
MODEL 3
REMARK VINA RESULT: -6.441003020      6.492      9.897
REMARK  13 active torsions:
REMARK  status: ('A' for Active; 'I' for Inactive)
REMARK    1  A    between atoms: C3_5  and  N2_6 
REMARK    2  A    between atoms: C5_13  and  C6_14 
REMARK    3  A    between atoms: C6_14  and  C7_16 
REMARK    4  A    between atoms: N5_19  and  C8_20 
REMARK    5  A    between atoms: C8_20  and  C9_21 
REMARK    6  A    between atoms: C9_21  and  C10_22 
REMARK    7  A    between atoms: C10_22  and  N6_23 
REMARK    8  A    between atoms: C13_30  and  C14_31 
REMARK    9  A    between atoms: C15_34  and  C16_35 
REMARK   10  A    between atoms: C17_38  and  C18_39 
REMARK   11  A    between atoms: N9_44  and  C20_45 
REMARK   12  A    between atoms: C22_48  and  C23_49 
REMARK   13  A    between atoms: C23_49  and  O12_50 
ROOT
HETATM    1  C7  UNL     1      64.143  30.702  70.010  1.00  0.00     0.180 A 
HETATM    2  N4  UNL     1      65.305  30.624  69.376  1.00  0.00    -0.272 N 
ATOM      3  H4  UNL     1      65.412  30.699  68.364  1.00  0.00     0.189 HD
HETATM    4  N5  UNL     1      66.327  30.434  70.231  1.00  0.00    -0.219 N 
HETATM    5  C19 UNL     1      65.730  30.408  71.452  1.00  0.00     0.350 A 
HETATM    6  O11 UNL     1      66.364  30.256  72.532  1.00  0.00    -0.244 OA
HETATM    7  N9  UNL     1      64.397  30.566  71.322  1.00  0.00    -0.264 N 
ENDROOT
BRANCH   4   8
HETATM    8  C8  UNL     1      67.686  30.181  69.882  1.00  0.00     0.096 C 
BRANCH   8   9
HETATM    9  C9  UNL     1      68.686  31.162  69.566  1.00  0.00     0.067 C 
BRANCH   9  10
HETATM   10  C10 UNL     1      68.497  32.602  70.007  1.00  0.00     0.144 C 
BRANCH  10  11
HETATM   11  N6  UNL     1      68.404  33.430  68.790  1.00  0.00    -0.248 N 
HETATM   12  C11 UNL     1      69.241  34.499  68.580  1.00  0.00     0.352 A 
HETATM   13  O3  UNL     1      70.147  34.793  69.395  1.00  0.00    -0.244 OA
HETATM   14  N7  UNL     1      68.914  35.105  67.424  1.00  0.00    -0.190 N 
HETATM   15  N8  UNL     1      67.910  34.447  66.922  1.00  0.00    -0.211 N 
HETATM   16  C17 UNL     1      69.236  36.204  66.533  1.00  0.00     0.153 A 
HETATM   17  C12 UNL     1      67.588  33.408  67.758  1.00  0.00     0.349 A 
HETATM   18  C13 UNL     1      67.480  35.045  65.693  1.00  0.00     0.257 A 
HETATM   19  O4  UNL     1      66.671  32.591  67.554  1.00  0.00    -0.245 OA
HETATM   20  C15 UNL     1      68.417  36.202  65.498  1.00  0.00     0.089 A 
BRANCH  18  21
HETATM   21  C14 UNL     1      66.084  35.577  65.884  1.00  0.00     0.204 C 
HETATM   22  O5  UNL     1      65.160  34.997  65.221  1.00  0.00    -0.646 OA
HETATM   23  O6  UNL     1      65.746  36.610  66.696  1.00  0.00    -0.646 OA
ENDBRANCH  18  21
BRANCH  20  24
HETATM   24  C16 UNL     1      68.319  37.067  64.355  1.00  0.00     0.210 C 
HETATM   25  O7  UNL     1      68.545  36.609  63.181  1.00  0.00    -0.644 OA
HETATM   26  O8  UNL     1      67.991  38.401  64.376  1.00  0.00    -0.644 OA
ENDBRANCH  20  24
BRANCH  16  27
HETATM   27  C18 UNL     1      70.311  37.136  66.792  1.00  0.00     0.230 C 
HETATM   28  O9  UNL     1      71.253  37.464  66.055  1.00  0.00    -0.643 OA
HETATM   29  O10 UNL     1      70.345  37.793  68.040  1.00  0.00    -0.643 OA
ENDBRANCH  16  27
ENDBRANCH  10  11
ENDBRANCH   9  10
ENDBRANCH   8   9
ENDBRANCH   4   8
BRANCH   1  30
HETATM   30  C6  UNL     1      62.852  30.846  69.310  1.00  0.00     0.235 C 
HETATM   31  O2  UNL     1      62.235  29.775  69.026  1.00  0.00    -0.283 OA
BRANCH  30  32
HETATM   32  C5  UNL     1      62.255  32.096  68.933  1.00  0.00     0.109 A 
HETATM   33  C2  UNL     1      61.261  32.770  69.591  1.00  0.00     0.042 A 
HETATM   34  C1  UNL     1      60.641  32.231  70.825  1.00  0.00     0.070 C 
HETATM   35  N1  UNL     1      60.792  33.952  69.142  1.00  0.00    -0.195 N 
HETATM   36  C3  UNL     1      61.256  34.540  68.037  1.00  0.00     0.679 A 
ATOM     37  H1  UNL     1      60.051  34.415  69.668  1.00  0.00     0.184 HD
HETATM   38  N3  UNL     1      62.232  33.906  67.365  1.00  0.00    -0.155 N 
HETATM   39  C4  UNL     1      62.740  32.718  67.771  1.00  0.00     0.276 A 
ATOM     40  H3  UNL     1      62.603  34.335  66.517  1.00  0.00     0.187 HD
HETATM   41  O1  UNL     1      63.646  32.226  67.058  1.00  0.00    -0.267 OA
BRANCH  36  42
HETATM   42  N2  UNL     1      60.768  35.675  67.646  1.00  0.00    -0.234 N 
ATOM     43  H22 UNL     1      61.183  36.568  67.910  1.00  0.00     0.174 HD
ATOM     44  H21 UNL     1      59.941  35.701  67.048  1.00  0.00     0.174 HD
ENDBRANCH  36  42
ENDBRANCH  30  32
ENDBRANCH   1  30
BRANCH   7  45
HETATM   45  C20 UNL     1      63.419  30.517  72.339  1.00  0.00     0.168 C 
HETATM   46  C21 UNL     1      63.499  29.313  73.256  1.00  0.00     0.112 C 
HETATM   47  S1  UNL     1      61.947  29.536  74.218  1.00  0.00    -0.149 SA
HETATM   48  C22 UNL     1      61.853  31.359  74.455  1.00  0.00     0.134 C 
HETATM   49  S2  UNL     1      63.386  31.853  73.547  1.00  0.00    -0.125 SA
BRANCH  48  50
HETATM   50  C23 UNL     1      61.923  31.711  75.902  1.00  0.00     0.190 C 
BRANCH  50  51
HETATM   51  O12 UNL     1      61.846  33.117  75.972  1.00  0.00    -0.399 OA
ATOM     52  H12 UNL     1      61.264  33.317  76.695  1.00  0.00     0.209 HD
ENDBRANCH  50  51
ENDBRANCH  48  50
ENDBRANCH   7  45
TORSDOF 13
ENDMDL
MODEL 4
REMARK VINA RESULT: -6.438243847      7.416     12.298
REMARK  13 active torsions:
REMARK  status: ('A' for Active; 'I' for Inactive)
REMARK    1  A    between atoms: C3_5  and  N2_6 
REMARK    2  A    between atoms: C5_13  and  C6_14 
REMARK    3  A    between atoms: C6_14  and  C7_16 
REMARK    4  A    between atoms: N5_19  and  C8_20 
REMARK    5  A    between atoms: C8_20  and  C9_21 
REMARK    6  A    between atoms: C9_21  and  C10_22 
REMARK    7  A    between atoms: C10_22  and  N6_23 
REMARK    8  A    between atoms: C13_30  and  C14_31 
REMARK    9  A    between atoms: C15_34  and  C16_35 
REMARK   10  A    between atoms: C17_38  and  C18_39 
REMARK   11  A    between atoms: N9_44  and  C20_45 
REMARK   12  A    between atoms: C22_48  and  C23_49 
REMARK   13  A    between atoms: C23_49  and  O12_50 
ROOT
HETATM    1  C7  UNL     1      65.491  32.220  66.915  1.00  0.00     0.180 A 
HETATM    2  N4  UNL     1      65.828  31.355  67.863  1.00  0.00    -0.272 N 
ATOM      3  H4  UNL     1      65.185  30.678  68.275  1.00  0.00     0.189 HD
HETATM    4  N5  UNL     1      67.121  31.480  68.213  1.00  0.00    -0.219 N 
HETATM    5  C19 UNL     1      67.581  32.478  67.412  1.00  0.00     0.350 A 
HETATM    6  O11 UNL     1      68.773  32.891  67.434  1.00  0.00    -0.244 OA
HETATM    7  N9  UNL     1      66.589  32.935  66.622  1.00  0.00    -0.264 N 
ENDROOT
BRANCH   4   8
HETATM    8  C8  UNL     1      67.778  30.801  69.282  1.00  0.00     0.096 C 
BRANCH   8   9
HETATM    9  C9  UNL     1      67.809  31.201  70.660  1.00  0.00     0.067 C 
BRANCH   9  10
HETATM   10  C10 UNL     1      67.218  30.293  71.723  1.00  0.00     0.144 C 
BRANCH  10  11
HETATM   11  N6  UNL     1      65.766  30.553  71.772  1.00  0.00    -0.248 N 
HETATM   12  C11 UNL     1      65.222  31.434  72.674  1.00  0.00     0.352 A 
HETATM   13  O3  UNL     1      65.940  32.087  73.470  1.00  0.00    -0.244 OA
HETATM   14  N7  UNL     1      63.884  31.449  72.537  1.00  0.00    -0.190 N 
HETATM   15  N8  UNL     1      63.592  30.610  71.586  1.00  0.00    -0.211 N 
HETATM   16  C17 UNL     1      62.650  32.023  73.040  1.00  0.00     0.153 A 
HETATM   17  C12 UNL     1      64.749  30.052  71.105  1.00  0.00     0.349 A 
HETATM   18  C13 UNL     1      62.174  30.545  71.389  1.00  0.00     0.257 A 
HETATM   19  O4  UNL     1      64.804  29.212  70.187  1.00  0.00    -0.245 OA
HETATM   20  C15 UNL     1      61.619  31.520  72.387  1.00  0.00     0.089 A 
BRANCH  18  21
HETATM   21  C14 UNL     1      61.705  29.160  71.750  1.00  0.00     0.204 C 
HETATM   22  O5  UNL     1      60.907  28.599  70.927  1.00  0.00    -0.646 OA
HETATM   23  O6  UNL     1      62.065  28.480  72.867  1.00  0.00    -0.646 OA
ENDBRANCH  18  21
BRANCH  20  24
HETATM   24  C16 UNL     1      60.206  31.755  72.505  1.00  0.00     0.210 C 
HETATM   25  O7  UNL     1      59.485  31.882  71.454  1.00  0.00    -0.644 OA
HETATM   26  O8  UNL     1      59.500  31.866  73.678  1.00  0.00    -0.644 OA
ENDBRANCH  20  24
BRANCH  16  27
HETATM   27  C18 UNL     1      62.615  33.001  74.104  1.00  0.00     0.230 C 
HETATM   28  O9  UNL     1      61.994  32.966  75.176  1.00  0.00    -0.643 OA
HETATM   29  O10 UNL     1      63.373  34.182  73.955  1.00  0.00    -0.643 OA
ENDBRANCH  16  27
ENDBRANCH  10  11
ENDBRANCH   9  10
ENDBRANCH   8   9
ENDBRANCH   4   8
BRANCH   1  30
HETATM   30  C6  UNL     1      64.118  32.342  66.388  1.00  0.00     0.235 C 
HETATM   31  O2  UNL     1      63.965  32.140  65.146  1.00  0.00    -0.283 OA
BRANCH  30  32
HETATM   32  C5  UNL     1      62.961  32.667  67.172  1.00  0.00     0.109 A 
HETATM   33  C2  UNL     1      62.139  31.795  67.837  1.00  0.00     0.042 A 
HETATM   34  C1  UNL     1      62.359  30.329  67.790  1.00  0.00     0.070 C 
HETATM   35  N1  UNL     1      61.085  32.228  68.557  1.00  0.00    -0.195 N 
HETATM   36  C3  UNL     1      60.770  33.520  68.671  1.00  0.00     0.679 A 
ATOM     37  H1  UNL     1      60.504  31.539  69.034  1.00  0.00     0.184 HD
HETATM   38  N3  UNL     1      61.555  34.404  68.031  1.00  0.00    -0.155 N 
HETATM   39  C4  UNL     1      62.626  34.025  67.294  1.00  0.00     0.276 A 
ATOM     40  H3  UNL     1      61.334  35.398  68.103  1.00  0.00     0.187 HD
HETATM   41  O1  UNL     1      63.277  34.944  66.744  1.00  0.00    -0.267 OA
BRANCH  36  42
HETATM   42  N2  UNL     1      59.743  33.884  69.373  1.00  0.00    -0.234 N 
ATOM     43  H22 UNL     1      59.526  34.863  69.555  1.00  0.00     0.174 HD
ATOM     44  H21 UNL     1      59.114  33.183  69.765  1.00  0.00     0.174 HD
ENDBRANCH  36  42
ENDBRANCH  30  32
ENDBRANCH   1  30
BRANCH   7  45
HETATM   45  C20 UNL     1      66.638  34.014  65.713  1.00  0.00     0.168 C 
HETATM   46  C21 UNL     1      66.556  35.393  66.339  1.00  0.00     0.112 C 
HETATM   47  S1  UNL     1      66.409  36.427  64.826  1.00  0.00    -0.149 SA
HETATM   48  C22 UNL     1      67.536  35.596  63.632  1.00  0.00     0.134 C 
HETATM   49  S2  UNL     1      68.114  34.199  64.697  1.00  0.00    -0.125 SA
BRANCH  48  50
HETATM   50  C23 UNL     1      68.656  36.499  63.240  1.00  0.00     0.190 C 
BRANCH  50  51
HETATM   51  O12 UNL     1      68.298  37.788  63.683  1.00  0.00    -0.399 OA
ATOM     52  H12 UNL     1      68.924  38.388  63.293  1.00  0.00     0.209 HD
ENDBRANCH  50  51
ENDBRANCH  48  50
ENDBRANCH   7  45
TORSDOF 13
ENDMDL
MODEL 5
REMARK VINA RESULT: -6.398175867      3.570      8.745
REMARK  13 active torsions:
REMARK  status: ('A' for Active; 'I' for Inactive)
REMARK    1  A    between atoms: C3_5  and  N2_6 
REMARK    2  A    between atoms: C5_13  and  C6_14 
REMARK    3  A    between atoms: C6_14  and  C7_16 
REMARK    4  A    between atoms: N5_19  and  C8_20 
REMARK    5  A    between atoms: C8_20  and  C9_21 
REMARK    6  A    between atoms: C9_21  and  C10_22 
REMARK    7  A    between atoms: C10_22  and  N6_23 
REMARK    8  A    between atoms: C13_30  and  C14_31 
REMARK    9  A    between atoms: C15_34  and  C16_35 
REMARK   10  A    between atoms: C17_38  and  C18_39 
REMARK   11  A    between atoms: N9_44  and  C20_45 
REMARK   12  A    between atoms: C22_48  and  C23_49 
REMARK   13  A    between atoms: C23_49  and  O12_50 
ROOT
HETATM    1  C7  UNL     1      70.830  31.584  63.631  1.00  0.00     0.180 A 
HETATM    2  N4  UNL     1      71.841  31.857  64.447  1.00  0.00    -0.272 N 
ATOM      3  H4  UNL     1      71.947  31.458  65.380  1.00  0.00     0.189 HD
HETATM    4  N5  UNL     1      72.708  32.722  63.892  1.00  0.00    -0.219 N 
HETATM    5  C19 UNL     1      72.181  32.970  62.663  1.00  0.00     0.350 A 
HETATM    6  O11 UNL     1      72.718  33.740  61.820  1.00  0.00    -0.244 OA
HETATM    7  N9  UNL     1      71.033  32.281  62.502  1.00  0.00    -0.264 N 
ENDROOT
BRANCH   4   8
HETATM    8  C8  UNL     1      73.831  33.324  64.534  1.00  0.00     0.096 C 
BRANCH   8   9
HETATM    9  C9  UNL     1      73.891  33.799  65.887  1.00  0.00     0.067 C 
BRANCH   9  10
HETATM   10  C10 UNL     1      73.394  35.194  66.220  1.00  0.00     0.144 C 
BRANCH  10  11
HETATM   11  N6  UNL     1      71.920  35.163  66.174  1.00  0.00    -0.248 N 
HETATM   12  C11 UNL     1      71.207  35.992  65.343  1.00  0.00     0.352 A 
HETATM   13  O3  UNL     1      71.780  36.783  64.556  1.00  0.00    -0.244 OA
HETATM   14  N7  UNL     1      69.890  35.793  65.531  1.00  0.00    -0.190 N 
HETATM   15  N8  UNL     1      69.772  34.876  66.447  1.00  0.00    -0.211 N 
HETATM   16  C17 UNL     1      68.561  36.209  65.123  1.00  0.00     0.153 A 
HETATM   17  C12 UNL     1      71.022  34.478  66.850  1.00  0.00     0.349 A 
HETATM   18  C13 UNL     1      68.392  34.619  66.729  1.00  0.00     0.257 A 
HETATM   19  O4  UNL     1      71.247  33.610  67.714  1.00  0.00    -0.245 OA
HETATM   20  C15 UNL     1      67.649  35.537  65.801  1.00  0.00     0.089 A 
BRANCH  18  21
HETATM   21  C14 UNL     1      68.109  35.031  68.150  1.00  0.00     0.204 C 
HETATM   22  O5  UNL     1      67.959  34.087  68.995  1.00  0.00    -0.646 OA
HETATM   23  O6  UNL     1      68.008  36.311  68.586  1.00  0.00    -0.646 OA
ENDBRANCH  18  21
BRANCH  20  24
HETATM   24  C16 UNL     1      66.213  35.578  65.771  1.00  0.00     0.210 C 
HETATM   25  O7  UNL     1      65.561  34.747  65.047  1.00  0.00    -0.644 OA
HETATM   26  O8  UNL     1      65.414  36.452  66.467  1.00  0.00    -0.644 OA
ENDBRANCH  20  24
BRANCH  16  27
HETATM   27  C18 UNL     1      68.329  37.216  64.112  1.00  0.00     0.230 C 
HETATM   28  O9  UNL     1      67.927  38.381  64.250  1.00  0.00    -0.643 OA
HETATM   29  O10 UNL     1      68.575  36.884  62.763  1.00  0.00    -0.643 OA
ENDBRANCH  16  27
ENDBRANCH  10  11
ENDBRANCH   9  10
ENDBRANCH   8   9
ENDBRANCH   4   8
BRANCH   1  30
HETATM   30  C6  UNL     1      69.702  30.712  64.011  1.00  0.00     0.235 C 
HETATM   31  O2  UNL     1      69.683  29.552  63.500  1.00  0.00    -0.283 OA
BRANCH  30  32
HETATM   32  C5  UNL     1      68.643  31.079  64.906  1.00  0.00     0.109 A 
HETATM   33  C2  UNL     1      67.389  31.516  64.569  1.00  0.00     0.042 A 
HETATM   34  C1  UNL     1      66.980  31.693  63.155  1.00  0.00     0.070 C 
HETATM   35  N1  UNL     1      66.469  31.818  65.508  1.00  0.00    -0.195 N 
HETATM   36  C3  UNL     1      66.713  31.713  66.817  1.00  0.00     0.679 A 
ATOM     37  H1  UNL     1      65.550  32.139  65.206  1.00  0.00     0.184 HD
HETATM   38  N3  UNL     1      67.934  31.287  67.184  1.00  0.00    -0.155 N 
HETATM   39  C4  UNL     1      68.894  30.971  66.283  1.00  0.00     0.276 A 
ATOM     40  H3  UNL     1      68.145  31.200  68.178  1.00  0.00     0.187 HD
HETATM   41  O1  UNL     1      69.992  30.588  66.751  1.00  0.00    -0.267 OA
BRANCH  36  42
HETATM   42  N2  UNL     1      65.796  32.019  67.680  1.00  0.00    -0.234 N 
ATOM     43  H22 UNL     1      65.524  32.984  67.869  1.00  0.00     0.174 HD
ATOM     44  H21 UNL     1      65.312  31.286  68.198  1.00  0.00     0.174 HD
ENDBRANCH  36  42
ENDBRANCH  30  32
ENDBRANCH   1  30
BRANCH   7  45
HETATM   45  C20 UNL     1      70.147  32.328  61.405  1.00  0.00     0.168 C 
HETATM   46  C21 UNL     1      69.457  33.661  61.185  1.00  0.00     0.112 C 
HETATM   47  S1  UNL     1      68.265  33.195  59.865  1.00  0.00    -0.149 SA
HETATM   48  C22 UNL     1      69.228  32.030  58.815  1.00  0.00     0.134 C 
HETATM   49  S2  UNL     1      70.817  32.027  59.761  1.00  0.00    -0.125 SA
BRANCH  48  50
HETATM   50  C23 UNL     1      69.398  32.573  57.437  1.00  0.00     0.190 C 
BRANCH  50  51
HETATM   51  O12 UNL     1      68.286  33.405  57.199  1.00  0.00    -0.399 OA
ATOM     52  H12 UNL     1      68.615  34.162  56.728  1.00  0.00     0.209 HD
ENDBRANCH  50  51
ENDBRANCH  48  50
ENDBRANCH   7  45
TORSDOF 13
ENDMDL
