MODEL 1
REMARK VINA RESULT: -6.931042343      0.000      0.000
REMARK  15 active torsions:
REMARK  status: ('A' for Active; 'I' for Inactive)
REMARK    1  A    between atoms: N1_2  and  C2_4 
REMARK    2  A    between atoms: N3_9  and  C4_10 
REMARK    3  A    between atoms: C4_10  and  C9_22 
REMARK    4  A    between atoms: N4_11  and  O2_13 
REMARK    5  A    between atoms: O2_13  and  C5_14 
REMARK    6  A    between atoms: C5_14  and  C8_17 
REMARK    7  A    between atoms: C8_17  and  O3_18 
REMARK    8  A    between atoms: C8_17  and  O4_20 
REMARK       I    between atoms: C9_22  and  N5_24 
REMARK    9  A    between atoms: C12_30  and  C13_31 
REMARK   10  A    between atoms: C14_34  and  C15_35 
REMARK   11  A    between atoms: C15_35  and  O9_36 
REMARK   12  A    between atoms: O9_36  and  C16_37 
REMARK   13  A    between atoms: C19_41  and  O11_42 
REMARK   14  A    between atoms: C21_44  and  O12_45 
REMARK   15  A    between atoms: N7_47  and  O13_48 
ROOT
HETATM    1  C9  UNL     1      69.398  37.771  69.242  1.00  0.00     0.293 C 
HETATM    2  O5  UNL     1      68.157  37.951  69.229  1.00  0.00    -0.264 OA
HETATM    3  N5  UNL     1      70.162  37.851  68.031  1.00  0.00    -0.317 N 
ATOM      4  H5  UNL     1      71.101  38.247  68.074  1.00  0.00     0.169 HD
HETATM    5  C10 UNL     1      69.725  37.453  66.911  1.00  0.00     0.115 C 
HETATM    6  C11 UNL     1      68.494  36.848  66.415  1.00  0.00     0.275 C 
HETATM    7  O6  UNL     1      67.292  36.736  66.768  1.00  0.00    -0.266 OA
HETATM    8  N6  UNL     1      69.279  36.405  65.278  1.00  0.00    -0.286 N 
HETATM    9  C12 UNL     1      69.356  35.453  64.190  1.00  0.00     0.125 C 
HETATM   10  C14 UNL     1      70.418  34.677  64.057  1.00  0.00     0.007 C 
HETATM   11  C23 UNL     1      71.498  34.842  65.182  1.00  0.00     0.119 C 
HETATM   12  S1  UNL     1      71.894  36.599  65.363  1.00  0.00    -0.132 SA
HETATM   13  C24 UNL     1      70.312  37.425  65.523  1.00  0.00     0.211 C 
ENDROOT
BRANCH   1  14
HETATM   14  C4  UNL     1      70.057  37.477  70.504  1.00  0.00     0.221 C 
HETATM   15  N4  UNL     1      70.664  36.349  70.646  1.00  0.00    -0.243 N 
ATOM     16  H4  UNL     1      71.122  36.152  71.537  1.00  0.00     0.196 HD
BRANCH  14  17
HETATM   17  N3  UNL     1      70.046  38.395  71.576  1.00  0.00    -0.167 N 
HETATM   18  C3  UNL     1      69.860  38.152  72.882  1.00  0.00     0.362 A 
HETATM   19  N2  UNL     1      69.925  39.305  73.561  1.00  0.00    -0.138 N 
HETATM   20  O1  UNL     1      69.657  37.005  73.359  1.00  0.00    -0.244 OA
HETATM   21  C2  UNL     1      70.154  40.285  72.684  1.00  0.00     0.697 A 
ATOM     22  H2  UNL     1      69.819  39.414  74.570  1.00  0.00     0.189 HD
HETATM   23  N8  UNL     1      70.225  39.706  71.474  1.00  0.00    -0.119 N 
ATOM     24  H8  UNL     1      70.393  40.204  70.599  1.00  0.00     0.206 HD
BRANCH  21  25
HETATM   25  N1  UNL     1      70.301  41.676  72.940  1.00  0.00    -0.229 N 
HETATM   26  C1  UNL     1      71.626  42.245  72.976  1.00  0.00     0.165 C 
ATOM     27  H1  UNL     1      69.481  42.263  73.096  1.00  0.00     0.177 HD
ENDBRANCH  21  25
ENDBRANCH  14  17
BRANCH  15  28
HETATM   28  O2  UNL     1      70.722  35.402  69.657  1.00  0.00    -0.263 OA
BRANCH  28  29
HETATM   29  C5  UNL     1      70.125  34.134  69.717  1.00  0.00     0.131 C 
HETATM   30  C6  UNL     1      70.868  33.211  70.665  1.00  0.00     0.053 C 
HETATM   31  C7  UNL     1      70.140  33.518  68.348  1.00  0.00     0.053 C 
BRANCH  29  32
HETATM   32  C8  UNL     1      68.688  34.220  70.242  1.00  0.00     0.290 C 
BRANCH  32  33
HETATM   33  O3  UNL     1      67.897  35.033  69.449  1.00  0.00    -0.368 OA
ATOM     34  H3  UNL     1      67.309  34.527  68.900  1.00  0.00     0.212 HD
ENDBRANCH  32  33
BRANCH  32  35
HETATM   35  O4  UNL     1      68.666  34.562  71.581  1.00  0.00    -0.368 OA
ATOM     36  H4  UNL     1      68.522  33.799  72.127  1.00  0.00     0.212 HD
ENDBRANCH  32  35
ENDBRANCH  29  32
ENDBRANCH  28  29
ENDBRANCH  15  28
ENDBRANCH   1  14
BRANCH   9  37
HETATM   37  C13 UNL     1      68.309  35.560  63.190  1.00  0.00     0.227 C 
HETATM   38  O7  UNL     1      68.434  35.924  62.040  1.00  0.00    -0.643 OA
HETATM   39  O8  UNL     1      66.994  35.202  63.561  1.00  0.00    -0.643 OA
ENDBRANCH   9  37
BRANCH  10  40
HETATM   40  C15 UNL     1      70.756  33.674  63.133  1.00  0.00     0.149 C 
BRANCH  40  41
HETATM   41  O9  UNL     1      70.156  32.837  62.310  1.00  0.00    -0.316 OA
BRANCH  41  42
HETATM   42  C16 UNL     1      70.977  32.324  61.282  1.00  0.00     0.375 C 
HETATM   43  O10 UNL     1      70.716  31.062  60.951  1.00  0.00    -0.339 OA
HETATM   44  C17 UNL     1      69.668  30.771  60.131  1.00  0.00     0.154 C 
HETATM   45  C18 UNL     1      68.307  30.867  60.753  1.00  0.00     0.042 C 
HETATM   46  C19 UNL     1      69.767  31.588  58.853  1.00  0.00     0.195 C 
HETATM   47  C21 UNL     1      69.769  33.036  59.302  1.00  0.00     0.256 C 
HETATM   48  N7  UNL     1      70.911  33.253  60.132  1.00  0.00    -0.114 NA
BRANCH  46  49
HETATM   49  O11 UNL     1      68.748  31.302  57.979  1.00  0.00    -0.384 OA
HETATM   50  C20 UNL     1      69.084  30.170  57.228  1.00  0.00     0.202 C 
ENDBRANCH  46  49
BRANCH  47  51
HETATM   51  O12 UNL     1      69.935  33.805  58.155  1.00  0.00    -0.371 OA
HETATM   52  C22 UNL     1      69.300  35.022  58.354  1.00  0.00     0.204 C 
ENDBRANCH  47  51
BRANCH  48  53
HETATM   53  O13 UNL     1      72.071  33.261  59.478  1.00  0.00    -0.306 OA
ATOM     54  H13 UNL     1      72.599  34.001  59.753  1.00  0.00     0.237 HD
ENDBRANCH  48  53
ENDBRANCH  41  42
ENDBRANCH  40  41
ENDBRANCH  10  40
TORSDOF 15
ENDMDL
MODEL 2
REMARK VINA RESULT: -6.708216689      2.330      3.734
REMARK  15 active torsions:
REMARK  status: ('A' for Active; 'I' for Inactive)
REMARK    1  A    between atoms: N1_2  and  C2_4 
REMARK    2  A    between atoms: N3_9  and  C4_10 
REMARK    3  A    between atoms: C4_10  and  C9_22 
REMARK    4  A    between atoms: N4_11  and  O2_13 
REMARK    5  A    between atoms: O2_13  and  C5_14 
REMARK    6  A    between atoms: C5_14  and  C8_17 
REMARK    7  A    between atoms: C8_17  and  O3_18 
REMARK    8  A    between atoms: C8_17  and  O4_20 
REMARK       I    between atoms: C9_22  and  N5_24 
REMARK    9  A    between atoms: C12_30  and  C13_31 
REMARK   10  A    between atoms: C14_34  and  C15_35 
REMARK   11  A    between atoms: C15_35  and  O9_36 
REMARK   12  A    between atoms: O9_36  and  C16_37 
REMARK   13  A    between atoms: C19_41  and  O11_42 
REMARK   14  A    between atoms: C21_44  and  O12_45 
REMARK   15  A    between atoms: N7_47  and  O13_48 
ROOT
HETATM    1  C9  UNL     1      69.105  35.507  68.859  1.00  0.00     0.293 C 
HETATM    2  O5  UNL     1      69.179  34.369  69.382  1.00  0.00    -0.264 OA
HETATM    3  N5  UNL     1      68.113  35.792  67.864  1.00  0.00    -0.317 N 
ATOM      4  H5  UNL     1      67.691  36.720  67.850  1.00  0.00     0.169 HD
HETATM    5  C10 UNL     1      67.737  34.945  67.001  1.00  0.00     0.115 C 
HETATM    6  C11 UNL     1      68.062  33.562  66.671  1.00  0.00     0.275 C 
HETATM    7  O6  UNL     1      68.585  32.560  67.224  1.00  0.00    -0.266 OA
HETATM    8  N6  UNL     1      67.497  33.838  65.364  1.00  0.00    -0.286 N 
HETATM    9  C12 UNL     1      67.457  33.421  63.978  1.00  0.00     0.125 C 
HETATM   10  C14 UNL     1      67.751  34.278  63.015  1.00  0.00     0.007 C 
HETATM   11  C23 UNL     1      68.190  35.699  63.511  1.00  0.00     0.119 C 
HETATM   12  S1  UNL     1      66.960  36.315  64.689  1.00  0.00    -0.132 SA
HETATM   13  C24 UNL     1      66.737  34.991  65.875  1.00  0.00     0.211 C 
ENDROOT
BRANCH   1  14
HETATM   14  C4  UNL     1      70.041  36.538  69.275  1.00  0.00     0.221 C 
HETATM   15  N4  UNL     1      71.050  36.810  68.520  1.00  0.00    -0.243 N 
ATOM     16  H4  UNL     1      71.702  37.535  68.821  1.00  0.00     0.196 HD
BRANCH  14  17
HETATM   17  N3  UNL     1      69.874  37.247  70.484  1.00  0.00    -0.167 N 
HETATM   18  C3  UNL     1      70.100  36.825  71.737  1.00  0.00     0.362 A 
HETATM   19  N2  UNL     1      69.813  37.812  72.595  1.00  0.00    -0.138 N 
HETATM   20  O1  UNL     1      70.516  35.671  72.024  1.00  0.00    -0.244 OA
HETATM   21  C2  UNL     1      69.404  38.867  71.886  1.00  0.00     0.697 A 
ATOM     22  H2  UNL     1      69.893  37.767  73.611  1.00  0.00     0.189 HD
HETATM   23  N8  UNL     1      69.449  38.499  70.594  1.00  0.00    -0.119 N 
ATOM     24  H8  UNL     1      69.193  39.098  69.809  1.00  0.00     0.206 HD
BRANCH  21  25
HETATM   25  N1  UNL     1      68.995  40.142  72.364  1.00  0.00    -0.229 N 
HETATM   26  C1  UNL     1      70.000  41.129  72.673  1.00  0.00     0.165 C 
ATOM     27  H1  UNL     1      68.005  40.355  72.487  1.00  0.00     0.177 HD
ENDBRANCH  21  25
ENDBRANCH  14  17
BRANCH  15  28
HETATM   28  O2  UNL     1      71.287  36.170  67.331  1.00  0.00    -0.263 OA
BRANCH  28  29
HETATM   29  C5  UNL     1      71.756  36.786  66.161  1.00  0.00     0.131 C 
HETATM   30  C6  UNL     1      71.586  35.888  64.950  1.00  0.00     0.053 C 
HETATM   31  C7  UNL     1      73.216  37.095  66.319  1.00  0.00     0.053 C 
BRANCH  29  32
HETATM   32  C8  UNL     1      70.974  38.068  65.856  1.00  0.00     0.290 C 
BRANCH  32  33
HETATM   33  O3  UNL     1      71.503  39.164  66.516  1.00  0.00    -0.368 OA
ATOM     34  H3  UNL     1      71.951  39.753  65.920  1.00  0.00     0.212 HD
ENDBRANCH  32  33
BRANCH  32  35
HETATM   35  O4  UNL     1      69.621  37.891  66.075  1.00  0.00    -0.368 OA
ATOM     36  H4  UNL     1      69.461  37.483  66.918  1.00  0.00     0.212 HD
ENDBRANCH  32  35
ENDBRANCH  29  32
ENDBRANCH  28  29
ENDBRANCH  15  28
ENDBRANCH   1  14
BRANCH   9  37
HETATM   37  C13 UNL     1      66.897  32.103  63.736  1.00  0.00     0.227 C 
HETATM   38  O7  UNL     1      67.467  31.145  63.260  1.00  0.00    -0.643 OA
HETATM   39  O8  UNL     1      65.548  31.878  64.089  1.00  0.00    -0.643 OA
ENDBRANCH   9  37
BRANCH  10  40
HETATM   40  C15 UNL     1      67.813  34.156  61.616  1.00  0.00     0.149 C 
BRANCH  40  41
HETATM   41  O9  UNL     1      68.701  33.890  60.679  1.00  0.00    -0.316 OA
BRANCH  41  42
HETATM   42  C16 UNL     1      68.166  33.740  59.380  1.00  0.00     0.375 C 
HETATM   43  O10 UNL     1      69.081  33.585  58.427  1.00  0.00    -0.339 OA
HETATM   44  C17 UNL     1      69.663  32.370  58.227  1.00  0.00     0.154 C 
HETATM   45  C18 UNL     1      70.684  31.960  59.244  1.00  0.00     0.042 C 
HETATM   46  C19 UNL     1      68.592  31.308  58.038  1.00  0.00     0.195 C 
HETATM   47  C21 UNL     1      67.757  31.350  59.302  1.00  0.00     0.256 C 
HETATM   48  N7  UNL     1      67.170  32.648  59.415  1.00  0.00    -0.114 NA
BRANCH  46  49
HETATM   49  O11 UNL     1      69.133  30.068  57.798  1.00  0.00    -0.384 OA
HETATM   50  C20 UNL     1      69.471  29.963  56.444  1.00  0.00     0.202 C 
ENDBRANCH  46  49
BRANCH  47  51
HETATM   51  O12 UNL     1      66.722  30.439  59.124  1.00  0.00    -0.371 OA
HETATM   52  C22 UNL     1      66.675  29.613  60.237  1.00  0.00     0.204 C 
ENDBRANCH  47  51
BRANCH  48  53
HETATM   53  O13 UNL     1      66.193  32.885  58.541  1.00  0.00    -0.306 OA
ATOM     54  H13 UNL     1      66.479  32.670  57.661  1.00  0.00     0.237 HD
ENDBRANCH  48  53
ENDBRANCH  41  42
ENDBRANCH  40  41
ENDBRANCH  10  40
TORSDOF 15
ENDMDL
MODEL 3
REMARK VINA RESULT: -6.625989293      2.147      4.400
REMARK  15 active torsions:
REMARK  status: ('A' for Active; 'I' for Inactive)
REMARK    1  A    between atoms: N1_2  and  C2_4 
REMARK    2  A    between atoms: N3_9  and  C4_10 
REMARK    3  A    between atoms: C4_10  and  C9_22 
REMARK    4  A    between atoms: N4_11  and  O2_13 
REMARK    5  A    between atoms: O2_13  and  C5_14 
REMARK    6  A    between atoms: C5_14  and  C8_17 
REMARK    7  A    between atoms: C8_17  and  O3_18 
REMARK    8  A    between atoms: C8_17  and  O4_20 
REMARK       I    between atoms: C9_22  and  N5_24 
REMARK    9  A    between atoms: C12_30  and  C13_31 
REMARK   10  A    between atoms: C14_34  and  C15_35 
REMARK   11  A    between atoms: C15_35  and  O9_36 
REMARK   12  A    between atoms: O9_36  and  C16_37 
REMARK   13  A    between atoms: C19_41  and  O11_42 
REMARK   14  A    between atoms: C21_44  and  O12_45 
REMARK   15  A    between atoms: N7_47  and  O13_48 
ROOT
HETATM    1  C9  UNL     1      69.927  37.621  70.208  1.00  0.00     0.293 C 
HETATM    2  O5  UNL     1      68.961  38.414  70.319  1.00  0.00    -0.264 OA
HETATM    3  N5  UNL     1      70.426  37.253  68.915  1.00  0.00    -0.317 N 
ATOM      4  H5  UNL     1      71.430  37.111  68.803  1.00  0.00     0.169 HD
HETATM    5  C10 UNL     1      69.678  37.095  67.905  1.00  0.00     0.115 C 
HETATM    6  C11 UNL     1      68.250  37.192  67.627  1.00  0.00     0.275 C 
HETATM    7  O6  UNL     1      67.227  37.727  68.128  1.00  0.00    -0.266 OA
HETATM    8  N6  UNL     1      68.515  36.367  66.463  1.00  0.00    -0.286 N 
HETATM    9  C12 UNL     1      67.929  35.472  65.487  1.00  0.00     0.125 C 
HETATM   10  C14 UNL     1      68.420  34.256  65.319  1.00  0.00     0.007 C 
HETATM   11  C23 UNL     1      69.598  33.883  66.285  1.00  0.00     0.119 C 
HETATM   12  S1  UNL     1      70.847  35.191  66.221  1.00  0.00    -0.132 SA
HETATM   13  C24 UNL     1      69.944  36.719  66.470  1.00  0.00     0.211 C 
ENDROOT
BRANCH   1  14
HETATM   14  C4  UNL     1      70.538  37.078  71.410  1.00  0.00     0.221 C 
HETATM   15  N4  UNL     1      71.240  37.854  72.161  1.00  0.00    -0.243 N 
ATOM     16  H4  UNL     1      71.666  37.463  73.002  1.00  0.00     0.196 HD
BRANCH  14  17
HETATM   17  N3  UNL     1      70.383  35.722  71.771  1.00  0.00    -0.167 N 
HETATM   18  C3  UNL     1      71.326  34.844  72.143  1.00  0.00     0.362 A 
HETATM   19  N2  UNL     1      70.753  33.661  72.400  1.00  0.00    -0.138 N 
HETATM   20  O1  UNL     1      72.551  35.123  72.225  1.00  0.00    -0.244 OA
HETATM   21  C2  UNL     1      69.440  33.787  72.192  1.00  0.00     0.697 A 
ATOM     22  H2  UNL     1      71.234  32.814  72.702  1.00  0.00     0.189 HD
HETATM   23  N8  UNL     1      69.235  35.058  71.807  1.00  0.00    -0.119 N 
ATOM     24  H8  UNL     1      68.325  35.456  71.576  1.00  0.00     0.206 HD
BRANCH  21  25
HETATM   25  N1  UNL     1      68.429  32.799  72.337  1.00  0.00    -0.229 N 
HETATM   26  C1  UNL     1      67.081  33.215  72.639  1.00  0.00     0.165 C 
ATOM     27  H1  UNL     1      68.653  31.809  72.230  1.00  0.00     0.177 HD
ENDBRANCH  21  25
ENDBRANCH  14  17
BRANCH  15  28
HETATM   28  O2  UNL     1      71.442  39.182  71.883  1.00  0.00    -0.263 OA
BRANCH  28  29
HETATM   29  C5  UNL     1      71.252  40.235  72.791  1.00  0.00     0.131 C 
HETATM   30  C6  UNL     1      71.705  41.561  72.209  1.00  0.00     0.053 C 
HETATM   31  C7  UNL     1      72.051  39.965  74.032  1.00  0.00     0.053 C 
BRANCH  29  32
HETATM   32  C8  UNL     1      69.770  40.405  73.142  1.00  0.00     0.290 C 
BRANCH  32  33
HETATM   33  O3  UNL     1      69.328  39.416  74.003  1.00  0.00    -0.368 OA
ATOM     34  H3  UNL     1      69.977  39.207  74.665  1.00  0.00     0.212 HD
ENDBRANCH  32  33
BRANCH  32  35
HETATM   35  O4  UNL     1      68.999  40.533  72.003  1.00  0.00    -0.368 OA
ATOM     36  H4  UNL     1      68.580  41.385  71.967  1.00  0.00     0.212 HD
ENDBRANCH  32  35
ENDBRANCH  29  32
ENDBRANCH  28  29
ENDBRANCH  15  28
ENDBRANCH   1  14
BRANCH   9  37
HETATM   37  C13 UNL     1      66.936  36.065  64.610  1.00  0.00     0.227 C 
HETATM   38  O7  UNL     1      65.963  35.519  64.136  1.00  0.00    -0.643 OA
HETATM   39  O8  UNL     1      67.086  37.425  64.257  1.00  0.00    -0.643 OA
ENDBRANCH   9  37
BRANCH  10  40
HETATM   40  C15 UNL     1      68.056  33.189  64.480  1.00  0.00     0.149 C 
BRANCH  40  41
HETATM   41  O9  UNL     1      68.398  32.680  63.313  1.00  0.00    -0.316 OA
BRANCH  41  42
HETATM   42  C16 UNL     1      68.051  33.473  62.197  1.00  0.00     0.375 C 
HETATM   43  O10 UNL     1      69.092  33.971  61.535  1.00  0.00    -0.339 OA
HETATM   44  C17 UNL     1      69.778  33.193  60.652  1.00  0.00     0.154 C 
HETATM   45  C18 UNL     1      70.683  32.162  61.256  1.00  0.00     0.042 C 
HETATM   46  C19 UNL     1      68.819  32.585  59.642  1.00  0.00     0.195 C 
HETATM   47  C21 UNL     1      67.823  31.790  60.464  1.00  0.00     0.256 C 
HETATM   48  N7  UNL     1      67.137  32.688  61.339  1.00  0.00    -0.114 NA
BRANCH  46  49
HETATM   49  O11 UNL     1      69.471  31.818  58.708  1.00  0.00    -0.384 OA
HETATM   50  C20 UNL     1      69.410  32.452  57.463  1.00  0.00     0.202 C 
ENDBRANCH  46  49
BRANCH  47  51
HETATM   51  O12 UNL     1      66.887  31.284  59.569  1.00  0.00    -0.371 OA
HETATM   52  C22 UNL     1      66.674  29.947  59.875  1.00  0.00     0.204 C 
ENDBRANCH  47  51
BRANCH  48  53
HETATM   53  O13 UNL     1      66.270  33.493  60.728  1.00  0.00    -0.306 OA
ATOM     54  H13 UNL     1      65.960  33.094  59.924  1.00  0.00     0.237 HD
ENDBRANCH  48  53
ENDBRANCH  41  42
ENDBRANCH  40  41
ENDBRANCH  10  40
TORSDOF 15
ENDMDL
MODEL 4
REMARK VINA RESULT: -6.587240174      6.484     11.435
REMARK  15 active torsions:
REMARK  status: ('A' for Active; 'I' for Inactive)
REMARK    1  A    between atoms: N1_2  and  C2_4 
REMARK    2  A    between atoms: N3_9  and  C4_10 
REMARK    3  A    between atoms: C4_10  and  C9_22 
REMARK    4  A    between atoms: N4_11  and  O2_13 
REMARK    5  A    between atoms: O2_13  and  C5_14 
REMARK    6  A    between atoms: C5_14  and  C8_17 
REMARK    7  A    between atoms: C8_17  and  O3_18 
REMARK    8  A    between atoms: C8_17  and  O4_20 
REMARK       I    between atoms: C9_22  and  N5_24 
REMARK    9  A    between atoms: C12_30  and  C13_31 
REMARK   10  A    between atoms: C14_34  and  C15_35 
REMARK   11  A    between atoms: C15_35  and  O9_36 
REMARK   12  A    between atoms: O9_36  and  C16_37 
REMARK   13  A    between atoms: C19_41  and  O11_42 
REMARK   14  A    between atoms: C21_44  and  O12_45 
REMARK   15  A    between atoms: N7_47  and  O13_48 
ROOT
HETATM    1  C9  UNL     1      65.430  34.686  65.834  1.00  0.00     0.293 C 
HETATM    2  O5  UNL     1      64.766  35.741  65.690  1.00  0.00    -0.264 OA
HETATM    3  N5  UNL     1      64.773  33.417  65.947  1.00  0.00    -0.317 N 
ATOM      4  H5  UNL     1      65.216  32.601  65.526  1.00  0.00     0.169 HD
HETATM    5  C10 UNL     1      63.668  33.263  66.546  1.00  0.00     0.115 C 
HETATM    6  C11 UNL     1      62.728  34.120  67.259  1.00  0.00     0.275 C 
HETATM    7  O6  UNL     1      62.442  35.342  67.338  1.00  0.00    -0.266 OA
HETATM    8  N6  UNL     1      62.229  32.904  67.874  1.00  0.00    -0.286 N 
HETATM    9  C12 UNL     1      61.500  32.359  69.000  1.00  0.00     0.125 C 
HETATM   10  C14 UNL     1      62.047  31.425  69.760  1.00  0.00     0.007 C 
HETATM   11  C23 UNL     1      63.518  31.042  69.374  1.00  0.00     0.119 C 
HETATM   12  S1  UNL     1      63.582  30.674  67.602  1.00  0.00    -0.132 SA
HETATM   13  C24 UNL     1      62.789  32.066  66.801  1.00  0.00     0.211 C 
ENDROOT
BRANCH   1  14
HETATM   14  C4  UNL     1      66.881  34.766  65.885  1.00  0.00     0.221 C 
HETATM   15  N4  UNL     1      67.571  34.252  64.925  1.00  0.00    -0.243 N 
ATOM     16  H4  UNL     1      68.588  34.311  64.971  1.00  0.00     0.196 HD
BRANCH  14  17
HETATM   17  N3  UNL     1      67.551  35.389  66.959  1.00  0.00    -0.167 N 
HETATM   18  C3  UNL     1      68.284  34.821  67.929  1.00  0.00     0.362 A 
HETATM   19  N2  UNL     1      68.744  35.773  68.751  1.00  0.00    -0.138 N 
HETATM   20  O1  UNL     1      68.487  33.582  68.019  1.00  0.00    -0.244 OA
HETATM   21  C2  UNL     1      68.302  36.951  68.304  1.00  0.00     0.697 A 
ATOM     22  H2  UNL     1      69.327  35.624  69.574  1.00  0.00     0.189 HD
HETATM   23  N8  UNL     1      67.573  36.693  67.205  1.00  0.00    -0.119 N 
ATOM     24  H8  UNL     1      67.104  37.400  66.639  1.00  0.00     0.206 HD
BRANCH  21  25
HETATM   25  N1  UNL     1      68.534  38.242  68.852  1.00  0.00    -0.229 N 
HETATM   26  C1  UNL     1      69.294  38.358  70.072  1.00  0.00     0.165 C 
ATOM     27  H1  UNL     1      68.168  39.074  68.389  1.00  0.00     0.177 HD
ENDBRANCH  21  25
ENDBRANCH  14  17
BRANCH  15  28
HETATM   28  O2  UNL     1      67.000  33.628  63.846  1.00  0.00    -0.263 OA
BRANCH  28  29
HETATM   29  C5  UNL     1      67.346  32.353  63.373  1.00  0.00     0.131 C 
HETATM   30  C6  UNL     1      68.794  32.019  63.677  1.00  0.00     0.053 C 
HETATM   31  C7  UNL     1      67.152  32.310  61.885  1.00  0.00     0.053 C 
BRANCH  29  32
HETATM   32  C8  UNL     1      66.505  31.263  64.048  1.00  0.00     0.290 C 
BRANCH  32  33
HETATM   33  O3  UNL     1      65.164  31.371  63.721  1.00  0.00    -0.368 OA
ATOM     34  H3  UNL     1      64.608  30.951  64.367  1.00  0.00     0.212 HD
ENDBRANCH  32  33
BRANCH  32  35
HETATM   35  O4  UNL     1      66.741  31.222  65.408  1.00  0.00    -0.368 OA
ATOM     36  H4  UNL     1      66.051  31.663  65.889  1.00  0.00     0.212 HD
ENDBRANCH  32  35
ENDBRANCH  29  32
ENDBRANCH  28  29
ENDBRANCH  15  28
ENDBRANCH   1  14
BRANCH   9  37
HETATM   37  C13 UNL     1      60.107  32.757  69.096  1.00  0.00     0.227 C 
HETATM   38  O7  UNL     1      59.143  32.026  69.182  1.00  0.00    -0.643 OA
HETATM   39  O8  UNL     1      59.808  34.138  69.101  1.00  0.00    -0.643 OA
ENDBRANCH   9  37
BRANCH  10  40
HETATM   40  C15 UNL     1      61.597  30.739  70.900  1.00  0.00     0.149 C 
BRANCH  40  41
HETATM   41  O9  UNL     1      61.821  30.715  72.199  1.00  0.00    -0.316 OA
BRANCH  41  42
HETATM   42  C16 UNL     1      61.635  31.951  72.857  1.00  0.00     0.375 C 
HETATM   43  O10 UNL     1      60.522  32.024  73.580  1.00  0.00    -0.339 OA
HETATM   44  C17 UNL     1      60.473  31.463  74.821  1.00  0.00     0.154 C 
HETATM   45  C18 UNL     1      60.373  29.968  74.858  1.00  0.00     0.042 C 
HETATM   46  C19 UNL     1      61.626  31.977  75.668  1.00  0.00     0.195 C 
HETATM   47  C21 UNL     1      62.882  31.596  74.908  1.00  0.00     0.256 C 
HETATM   48  N7  UNL     1      62.857  32.247  73.636  1.00  0.00    -0.114 NA
BRANCH  46  49
HETATM   49  O11 UNL     1      61.598  31.464  76.941  1.00  0.00    -0.384 OA
HETATM   50  C20 UNL     1      60.749  32.241  77.736  1.00  0.00     0.202 C 
ENDBRANCH  46  49
BRANCH  47  51
HETATM   51  O12 UNL     1      63.951  32.121  75.624  1.00  0.00    -0.371 OA
HETATM   52  C22 UNL     1      64.996  31.209  75.575  1.00  0.00     0.204 C 
ENDBRANCH  47  51
BRANCH  48  53
HETATM   53  O13 UNL     1      63.065  33.562  73.689  1.00  0.00    -0.306 OA
ATOM     54  H13 UNL     1      63.238  33.832  74.583  1.00  0.00     0.237 HD
ENDBRANCH  48  53
ENDBRANCH  41  42
ENDBRANCH  40  41
ENDBRANCH  10  40
TORSDOF 15
ENDMDL
MODEL 5
REMARK VINA RESULT: -6.579585202      5.520     10.786
REMARK  15 active torsions:
REMARK  status: ('A' for Active; 'I' for Inactive)
REMARK    1  A    between atoms: N1_2  and  C2_4 
REMARK    2  A    between atoms: N3_9  and  C4_10 
REMARK    3  A    between atoms: C4_10  and  C9_22 
REMARK    4  A    between atoms: N4_11  and  O2_13 
REMARK    5  A    between atoms: O2_13  and  C5_14 
REMARK    6  A    between atoms: C5_14  and  C8_17 
REMARK    7  A    between atoms: C8_17  and  O3_18 
REMARK    8  A    between atoms: C8_17  and  O4_20 
REMARK       I    between atoms: C9_22  and  N5_24 
REMARK    9  A    between atoms: C12_30  and  C13_31 
REMARK   10  A    between atoms: C14_34  and  C15_35 
REMARK   11  A    between atoms: C15_35  and  O9_36 
REMARK   12  A    between atoms: O9_36  and  C16_37 
REMARK   13  A    between atoms: C19_41  and  O11_42 
REMARK   14  A    between atoms: C21_44  and  O12_45 
REMARK   15  A    between atoms: N7_47  and  O13_48 
ROOT
HETATM    1  C9  UNL     1      66.766  34.639  64.612  1.00  0.00     0.293 C 
HETATM    2  O5  UNL     1      65.856  35.497  64.508  1.00  0.00    -0.264 OA
HETATM    3  N5  UNL     1      66.447  33.255  64.807  1.00  0.00    -0.317 N 
ATOM      4  H5  UNL     1      67.038  32.552  64.363  1.00  0.00     0.169 HD
HETATM    5  C10 UNL     1      65.465  32.864  65.505  1.00  0.00     0.115 C 
HETATM    6  C11 UNL     1      64.407  33.498  66.283  1.00  0.00     0.275 C 
HETATM    7  O6  UNL     1      63.842  34.619  66.365  1.00  0.00    -0.266 OA
HETATM    8  N6  UNL     1      64.270  32.224  66.962  1.00  0.00    -0.286 N 
HETATM    9  C12 UNL     1      63.790  31.564  68.159  1.00  0.00     0.125 C 
HETATM   10  C14 UNL     1      64.607  30.820  68.884  1.00  0.00     0.007 C 
HETATM   11  C23 UNL     1      66.090  30.785  68.375  1.00  0.00     0.119 C 
HETATM   12  S1  UNL     1      66.096  30.374  66.612  1.00  0.00    -0.132 SA
HETATM   13  C24 UNL     1      64.926  31.502  65.859  1.00  0.00     0.211 C 
ENDROOT
BRANCH   1  14
HETATM   14  C4  UNL     1      68.153  35.066  64.532  1.00  0.00     0.221 C 
HETATM   15  N4  UNL     1      68.917  34.548  63.632  1.00  0.00    -0.243 N 
ATOM     16  H4  UNL     1      69.889  34.853  63.584  1.00  0.00     0.196 HD
BRANCH  14  17
HETATM   17  N3  UNL     1      68.684  36.030  65.415  1.00  0.00    -0.167 N 
HETATM   18  C3  UNL     1      69.767  36.805  65.254  1.00  0.00     0.362 A 
HETATM   19  N2  UNL     1      69.920  37.583  66.333  1.00  0.00    -0.138 N 
HETATM   20  O1  UNL     1      70.502  36.777  64.232  1.00  0.00    -0.244 OA
HETATM   21  C2  UNL     1      68.931  37.303  67.185  1.00  0.00     0.697 A 
ATOM     22  H2  UNL     1      70.661  38.268  66.479  1.00  0.00     0.189 HD
HETATM   23  N8  UNL     1      68.184  36.348  66.603  1.00  0.00    -0.119 N 
ATOM     24  H8  UNL     1      67.351  35.928  67.015  1.00  0.00     0.206 HD
BRANCH  21  25
HETATM   25  N1  UNL     1      68.681  37.877  68.461  1.00  0.00    -0.229 N 
HETATM   26  C1  UNL     1      69.746  37.915  69.432  1.00  0.00     0.165 C 
ATOM     27  H1  UNL     1      67.761  38.256  68.687  1.00  0.00     0.177 HD
ENDBRANCH  21  25
ENDBRANCH  14  17
BRANCH  15  28
HETATM   28  O2  UNL     1      68.482  33.606  62.735  1.00  0.00    -0.263 OA
BRANCH  28  29
HETATM   29  C5  UNL     1      68.326  33.814  61.357  1.00  0.00     0.131 C 
HETATM   30  C6  UNL     1      69.523  33.303  60.576  1.00  0.00     0.053 C 
HETATM   31  C7  UNL     1      68.182  35.284  61.094  1.00  0.00     0.053 C 
BRANCH  29  32
HETATM   32  C8  UNL     1      67.108  33.058  60.815  1.00  0.00     0.290 C 
BRANCH  32  33
HETATM   33  O3  UNL     1      66.273  33.884  60.082  1.00  0.00    -0.368 OA
ATOM     34  H3  UNL     1      66.405  33.780  59.147  1.00  0.00     0.212 HD
ENDBRANCH  32  33
BRANCH  32  35
HETATM   35  O4  UNL     1      66.460  32.369  61.822  1.00  0.00    -0.368 OA
ATOM     36  H4  UNL     1      65.843  31.741  61.466  1.00  0.00     0.212 HD
ENDBRANCH  32  35
ENDBRANCH  29  32
ENDBRANCH  28  29
ENDBRANCH  15  28
ENDBRANCH   1  14
BRANCH   9  37
HETATM   37  C13 UNL     1      62.355  31.621  68.372  1.00  0.00     0.227 C 
HETATM   38  O7  UNL     1      61.555  30.729  68.191  1.00  0.00    -0.643 OA
HETATM   39  O8  UNL     1      61.799  32.830  68.847  1.00  0.00    -0.643 OA
ENDBRANCH   9  37
BRANCH  10  40
HETATM   40  C15 UNL     1      64.432  30.091  70.072  1.00  0.00     0.149 C 
BRANCH  40  41
HETATM   41  O9  UNL     1      64.138  30.311  71.339  1.00  0.00    -0.316 OA
BRANCH  41  42
HETATM   42  C16 UNL     1      62.784  30.625  71.588  1.00  0.00     0.375 C 
HETATM   43  O10 UNL     1      62.150  29.745  72.358  1.00  0.00    -0.339 OA
HETATM   44  C17 UNL     1      62.309  29.779  73.710  1.00  0.00     0.154 C 
HETATM   45  C18 UNL     1      63.616  29.257  74.226  1.00  0.00     0.042 C 
HETATM   46  C19 UNL     1      62.008  31.173  74.233  1.00  0.00     0.195 C 
HETATM   47  C21 UNL     1      62.976  32.090  73.513  1.00  0.00     0.256 C 
HETATM   48  N7  UNL     1      62.719  32.008  72.109  1.00  0.00    -0.114 NA
BRANCH  46  49
HETATM   49  O11 UNL     1      62.122  31.247  75.600  1.00  0.00    -0.384 OA
HETATM   50  C20 UNL     1      60.846  31.265  76.173  1.00  0.00     0.202 C 
ENDBRANCH  46  49
BRANCH  47  51
HETATM   51  O12 UNL     1      62.671  33.385  73.917  1.00  0.00    -0.371 OA
HETATM   52  C22 UNL     1      63.803  33.935  74.500  1.00  0.00     0.204 C 
ENDBRANCH  47  51
BRANCH  48  53
HETATM   53  O13 UNL     1      61.588  32.596  71.724  1.00  0.00    -0.306 OA
ATOM     54  H13 UNL     1      60.967  32.617  72.442  1.00  0.00     0.237 HD
ENDBRANCH  48  53
ENDBRANCH  41  42
ENDBRANCH  40  41
ENDBRANCH  10  40
TORSDOF 15
ENDMDL
