MODEL 1
REMARK VINA RESULT: -7.908829345      0.000      0.000
REMARK  14 active torsions:
REMARK  status: ('A' for Active; 'I' for Inactive)
REMARK       I    between atoms: C2_2  and  N1_4 
REMARK    1  A    between atoms: C4_9  and  C5_10 
REMARK    2  A    between atoms: C5_10  and  O2_11 
REMARK    3  A    between atoms: O2_11  and  N3_12 
REMARK    4  A    between atoms: C6_16  and  O6_17 
REMARK    5  A    between atoms: O6_17  and  C7_18 
REMARK    6  A    between atoms: C7_18  and  C9_20 
REMARK    7  A    between atoms: C9_20  and  N4_21 
REMARK    8  A    between atoms: C9_20  and  C12_26 
REMARK       I    between atoms: N4_21  and  C10_23 
REMARK    9  A    between atoms: C12_26  and  C13_28 
REMARK   10  A    between atoms: N8_35  and  C14_36 
REMARK   11  A    between atoms: C14_36  and  C15_37 
REMARK   12  A    between atoms: C18_45  and  C19_46 
REMARK   13  A    between atoms: C21_50  and  N12_51 
REMARK   14  A    between atoms: C24_61  and  O10_62 
ROOT
HETATM    1  C13 UNL     1      70.435  37.445  66.365  1.00  0.00     0.188 A 
HETATM    2  N5  UNL     1      69.202  37.820  65.825  1.00  0.00    -0.265 N 
ATOM      3  H5  UNL     1      69.075  38.289  64.928  1.00  0.00     0.190 HD
HETATM    4  N6  UNL     1      68.244  37.484  66.632  1.00  0.00    -0.226 N 
ATOM      5  H6  UNL     1      67.247  37.641  66.484  1.00  0.00     0.210 HD
HETATM    6  N7  UNL     1      68.787  36.910  67.666  1.00  0.00    -0.224 N 
ATOM      7  H7  UNL     1      68.274  36.542  68.466  1.00  0.00     0.210 HD
HETATM    8  N8  UNL     1      70.131  36.873  67.522  1.00  0.00    -0.253 N 
ENDROOT
BRANCH   1   9
HETATM    9  C12 UNL     1      71.650  37.714  65.658  1.00  0.00     0.221 C 
HETATM   10  O8  UNL     1      72.431  38.599  66.201  1.00  0.00    -0.287 OA
BRANCH   9  11
HETATM   11  C9  UNL     1      72.208  37.171  64.412  1.00  0.00     0.191 C 
BRANCH  11  12
HETATM   12  C7  UNL     1      71.610  35.815  64.110  1.00  0.00     0.151 C 
HETATM   13  C8  UNL     1      71.991  34.892  65.278  1.00  0.00     0.042 C 
BRANCH  12  14
HETATM   14  O6  UNL     1      70.248  35.870  63.968  1.00  0.00    -0.350 OA
BRANCH  14  15
HETATM   15  C6  UNL     1      69.637  34.645  64.114  1.00  0.00     0.304 C 
HETATM   16  O5  UNL     1      68.546  34.935  65.045  1.00  0.00    -0.303 OA
HETATM   17  C4  UNL     1      67.653  33.938  65.380  1.00  0.00     0.149 C 
HETATM   18  N2  UNL     1      67.479  32.959  64.619  1.00  0.00    -0.326 N 
HETATM   19  C3  UNL     1      68.185  32.813  63.373  1.00  0.00     0.119 C 
ATOM     20  H2  UNL     1      66.811  32.238  64.891  1.00  0.00     0.169 HD
HETATM   21  N1  UNL     1      68.144  31.710  62.754  1.00  0.00    -0.315 N 
HETATM   22  C24 UNL     1      68.952  34.040  62.940  1.00  0.00     0.241 C 
HETATM   23  C2  UNL     1      68.752  31.397  61.555  1.00  0.00     0.219 C 
ATOM     24  H1  UNL     1      67.599  30.967  63.192  1.00  0.00     0.170 HD
HETATM   25  C1  UNL     1      69.981  30.535  61.434  1.00  0.00     0.117 C 
HETATM   26  O1  UNL     1      68.332  31.807  60.412  1.00  0.00    -0.274 OA
BRANCH  17  27
HETATM   27  C5  UNL     1      66.921  34.098  66.684  1.00  0.00     0.292 C 
BRANCH  27  28
HETATM   28  O2  UNL     1      66.355  35.366  66.809  1.00  0.00    -0.213 OA
BRANCH  28  29
HETATM   29  N3  UNL     1      65.318  35.684  65.972  1.00  0.00     0.005 N 
HETATM   30  O3  UNL     1      64.198  35.186  66.140  1.00  0.00    -0.511 OA
HETATM   31  O4  UNL     1      65.566  36.566  64.949  1.00  0.00    -0.511 OA
ENDBRANCH  28  29
ENDBRANCH  27  28
ENDBRANCH  17  27
BRANCH  22  32
HETATM   32  O10 UNL     1      69.788  33.681  61.919  1.00  0.00    -0.383 OA
ATOM     33  H10 UNL     1      69.511  32.834  61.592  1.00  0.00     0.210 HD
ENDBRANCH  22  32
ENDBRANCH  14  15
ENDBRANCH  12  14
ENDBRANCH  11  12
BRANCH  11  34
HETATM   34  N4  UNL     1      73.670  36.968  64.609  1.00  0.00    -0.347 N 
HETATM   35  C10 UNL     1      74.618  37.231  63.616  1.00  0.00     0.214 C 
HETATM   36  C11 UNL     1      76.059  37.010  63.894  1.00  0.00     0.117 C 
HETATM   37  O7  UNL     1      74.277  37.654  62.491  1.00  0.00    -0.274 OA
ATOM     38  H4  UNL     1      73.994  36.621  65.511  1.00  0.00     0.163 HD
ENDBRANCH  11  34
ENDBRANCH   9  11
ENDBRANCH   1   9
BRANCH   8  39
HETATM   39  C14 UNL     1      70.934  36.210  68.508  1.00  0.00     0.187 C 
BRANCH  39  40
HETATM   40  C15 UNL     1      70.291  36.267  69.891  1.00  0.00    -0.049 C 
HETATM   41  C16 UNL     1      69.864  35.106  70.309  1.00  0.00     0.080 C 
HETATM   42  C17 UNL     1      69.204  34.851  71.606  1.00  0.00     0.260 C 
HETATM   43  O9  UNL     1      68.439  33.873  71.698  1.00  0.00    -0.267 OA
HETATM   44  N9  UNL     1      69.382  35.660  72.788  1.00  0.00    -0.266 N 
HETATM   45  N10 UNL     1      69.836  36.963  72.762  1.00  0.00    -0.301 N 
ATOM     46  H9  UNL     1      69.160  35.245  73.692  1.00  0.00     0.190 HD
HETATM   47  C18 UNL     1      70.204  37.798  71.887  1.00  0.00     0.045 C 
ATOM     48  H10 UNL     1      69.888  37.359  73.701  1.00  0.00     0.186 HD
HETATM   49  C23 UNL     1      70.292  37.627  70.428  1.00  0.00     0.095 C 
BRANCH  47  50
HETATM   50  C19 UNL     1      70.612  39.118  72.414  1.00  0.00     0.048 A 
HETATM   51  C20 UNL     1      71.959  39.286  72.758  1.00  0.00     0.123 A 
HETATM   52  N11 UNL     1      72.455  40.446  73.219  1.00  0.00    -0.201 N 
HETATM   53  C21 UNL     1      71.634  41.496  73.359  1.00  0.00     0.677 A 
ATOM     54  H11 UNL     1      73.443  40.527  73.459  1.00  0.00     0.183 HD
HETATM   55  N13 UNL     1      70.363  41.348  73.037  1.00  0.00    -0.176 N 
HETATM   56  C22 UNL     1      69.784  40.195  72.561  1.00  0.00     0.128 A 
ATOM     57  H13 UNL     1      69.756  42.160  73.151  1.00  0.00     0.186 HD
HETATM   58  N14 UNL     1      68.573  40.178  72.301  1.00  0.00    -0.384 N 
ATOM     59 2H14 UNL     1      68.144  39.322  71.948  1.00  0.00     0.157 HD
ATOM     60 1H14 UNL     1      67.955  40.981  72.411  1.00  0.00     0.157 HD
BRANCH  53  61
HETATM   61  N12 UNL     1      72.110  42.629  73.806  1.00  0.00    -0.234 N 
ATOM     62 2H12 UNL     1      72.723  42.676  74.619  1.00  0.00     0.174 HD
ATOM     63 1H12 UNL     1      71.864  43.498  73.331  1.00  0.00     0.174 HD
ENDBRANCH  53  61
ENDBRANCH  47  50
ENDBRANCH  39  40
ENDBRANCH   8  39
TORSDOF 14
ENDMDL
MODEL 2
REMARK VINA RESULT: -7.610578817      2.346      5.051
REMARK  14 active torsions:
REMARK  status: ('A' for Active; 'I' for Inactive)
REMARK       I    between atoms: C2_2  and  N1_4 
REMARK    1  A    between atoms: C4_9  and  C5_10 
REMARK    2  A    between atoms: C5_10  and  O2_11 
REMARK    3  A    between atoms: O2_11  and  N3_12 
REMARK    4  A    between atoms: C6_16  and  O6_17 
REMARK    5  A    between atoms: O6_17  and  C7_18 
REMARK    6  A    between atoms: C7_18  and  C9_20 
REMARK    7  A    between atoms: C9_20  and  N4_21 
REMARK    8  A    between atoms: C9_20  and  C12_26 
REMARK       I    between atoms: N4_21  and  C10_23 
REMARK    9  A    between atoms: C12_26  and  C13_28 
REMARK   10  A    between atoms: N8_35  and  C14_36 
REMARK   11  A    between atoms: C14_36  and  C15_37 
REMARK   12  A    between atoms: C18_45  and  C19_46 
REMARK   13  A    between atoms: C21_50  and  N12_51 
REMARK   14  A    between atoms: C24_61  and  O10_62 
ROOT
HETATM    1  C13 UNL     1      69.539  36.895  67.026  1.00  0.00     0.188 A 
HETATM    2  N5  UNL     1      69.564  37.974  66.139  1.00  0.00    -0.265 N 
ATOM      3  H5  UNL     1      68.785  38.264  65.547  1.00  0.00     0.190 HD
HETATM    4  N6  UNL     1      70.724  38.553  66.179  1.00  0.00    -0.226 N 
ATOM      5  H6  UNL     1      71.013  39.364  65.632  1.00  0.00     0.210 HD
HETATM    6  N7  UNL     1      71.452  37.910  67.044  1.00  0.00    -0.224 N 
ATOM      7  H7  UNL     1      72.416  38.142  67.284  1.00  0.00     0.210 HD
HETATM    8  N8  UNL     1      70.744  36.890  67.579  1.00  0.00    -0.253 N 
ENDROOT
BRANCH   1   9
HETATM    9  C12 UNL     1      68.361  36.092  67.159  1.00  0.00     0.221 C 
HETATM   10  O8  UNL     1      67.452  36.558  67.961  1.00  0.00    -0.287 OA
BRANCH   9  11
HETATM   11  C9  UNL     1      67.962  34.816  66.549  1.00  0.00     0.191 C 
BRANCH  11  12
HETATM   12  C7  UNL     1      68.802  33.682  67.094  1.00  0.00     0.151 C 
HETATM   13  C8  UNL     1      67.916  32.908  68.081  1.00  0.00     0.042 C 
BRANCH  12  14
HETATM   14  O6  UNL     1      69.255  32.852  66.103  1.00  0.00    -0.350 OA
BRANCH  14  15
HETATM   15  C6  UNL     1      70.629  32.790  66.032  1.00  0.00     0.304 C 
HETATM   16  O5  UNL     1      70.990  34.124  65.551  1.00  0.00    -0.303 OA
HETATM   17  C4  UNL     1      72.320  34.465  65.421  1.00  0.00     0.149 C 
HETATM   18  N2  UNL     1      73.197  33.865  66.084  1.00  0.00    -0.326 N 
HETATM   19  C3  UNL     1      72.880  32.803  67.003  1.00  0.00     0.119 C 
ATOM     20  H2  UNL     1      74.173  34.140  65.969  1.00  0.00     0.169 HD
HETATM   21  N1  UNL     1      73.810  32.084  67.474  1.00  0.00    -0.315 N 
HETATM   22  C24 UNL     1      71.407  32.642  67.292  1.00  0.00     0.241 C 
HETATM   23  C2  UNL     1      73.689  31.034  68.363  1.00  0.00     0.219 C 
ATOM     24  H1  UNL     1      74.755  32.306  67.161  1.00  0.00     0.170 HD
HETATM   25  C1  UNL     1      73.813  29.584  67.975  1.00  0.00     0.117 C 
HETATM   26  O1  UNL     1      73.461  31.183  69.618  1.00  0.00    -0.274 OA
BRANCH  17  27
HETATM   27  C5  UNL     1      72.641  35.575  64.459  1.00  0.00     0.292 C 
BRANCH  27  28
HETATM   28  O2  UNL     1      73.198  36.677  65.104  1.00  0.00    -0.213 OA
BRANCH  28  29
HETATM   29  N3  UNL     1      73.582  37.740  64.329  1.00  0.00     0.005 N 
HETATM   30  O3  UNL     1      73.951  37.566  63.161  1.00  0.00    -0.511 OA
HETATM   31  O4  UNL     1      73.542  38.992  64.891  1.00  0.00    -0.511 OA
ENDBRANCH  28  29
ENDBRANCH  27  28
ENDBRANCH  17  27
BRANCH  22  32
HETATM   32  O10 UNL     1      71.226  31.448  67.933  1.00  0.00    -0.383 OA
ATOM     33  H10 UNL     1      71.640  30.768  67.415  1.00  0.00     0.210 HD
ENDBRANCH  22  32
ENDBRANCH  14  15
ENDBRANCH  12  14
ENDBRANCH  11  12
BRANCH  11  34
HETATM   34  N4  UNL     1      68.235  34.897  65.088  1.00  0.00    -0.347 N 
HETATM   35  C10 UNL     1      67.238  35.137  64.137  1.00  0.00     0.214 C 
HETATM   36  C11 UNL     1      67.593  35.211  62.698  1.00  0.00     0.117 C 
HETATM   37  O7  UNL     1      66.046  35.295  64.475  1.00  0.00    -0.274 OA
ATOM     38  H4  UNL     1      69.194  34.771  64.765  1.00  0.00     0.163 HD
ENDBRANCH  11  34
ENDBRANCH   9  11
ENDBRANCH   1   9
BRANCH   8  39
HETATM   39  C14 UNL     1      71.322  36.091  68.620  1.00  0.00     0.187 C 
BRANCH  39  40
HETATM   40  C15 UNL     1      70.531  36.201  69.921  1.00  0.00    -0.049 C 
HETATM   41  C16 UNL     1      70.028  35.063  70.316  1.00  0.00     0.080 C 
HETATM   42  C17 UNL     1      69.221  34.860  71.537  1.00  0.00     0.260 C 
HETATM   43  O9  UNL     1      68.423  33.904  71.567  1.00  0.00    -0.267 OA
HETATM   44  N9  UNL     1      69.290  35.696  72.712  1.00  0.00    -0.266 N 
HETATM   45  N10 UNL     1      69.779  36.986  72.706  1.00  0.00    -0.301 N 
ATOM     46  H9  UNL     1      68.957  35.311  73.596  1.00  0.00     0.190 HD
HETATM   47  C18 UNL     1      70.265  37.787  71.857  1.00  0.00     0.045 C 
ATOM     48  H10 UNL     1      69.738  37.405  73.635  1.00  0.00     0.186 HD
HETATM   49  C23 UNL     1      70.510  37.575  70.422  1.00  0.00     0.095 C 
BRANCH  47  50
HETATM   50  C19 UNL     1      70.649  39.111  72.394  1.00  0.00     0.048 A 
HETATM   51  C20 UNL     1      71.989  39.295  72.757  1.00  0.00     0.123 A 
HETATM   52  N11 UNL     1      72.464  40.459  73.229  1.00  0.00    -0.201 N 
HETATM   53  C21 UNL     1      71.628  41.498  73.362  1.00  0.00     0.677 A 
ATOM     54  H11 UNL     1      73.447  40.552  73.483  1.00  0.00     0.183 HD
HETATM   55  N13 UNL     1      70.363  41.335  73.022  1.00  0.00    -0.176 N 
HETATM   56  C22 UNL     1      69.805  40.176  72.533  1.00  0.00     0.128 A 
ATOM     57  H13 UNL     1      69.744  42.139  73.131  1.00  0.00     0.186 HD
HETATM   58  N14 UNL     1      68.599  40.145  72.257  1.00  0.00    -0.384 N 
ATOM     59 2H14 UNL     1      68.186  39.285  71.895  1.00  0.00     0.157 HD
ATOM     60 1H14 UNL     1      67.969  40.939  72.361  1.00  0.00     0.157 HD
BRANCH  53  61
HETATM   61  N12 UNL     1      72.083  42.635  73.819  1.00  0.00    -0.234 N 
ATOM     62 2H12 UNL     1      72.223  42.801  74.815  1.00  0.00     0.174 HD
ATOM     63 1H12 UNL     1      72.305  43.386  73.165  1.00  0.00     0.174 HD
ENDBRANCH  53  61
ENDBRANCH  47  50
ENDBRANCH  39  40
ENDBRANCH   8  39
TORSDOF 14
ENDMDL
MODEL 3
REMARK VINA RESULT: -7.463760992      2.506      3.780
REMARK  14 active torsions:
REMARK  status: ('A' for Active; 'I' for Inactive)
REMARK       I    between atoms: C2_2  and  N1_4 
REMARK    1  A    between atoms: C4_9  and  C5_10 
REMARK    2  A    between atoms: C5_10  and  O2_11 
REMARK    3  A    between atoms: O2_11  and  N3_12 
REMARK    4  A    between atoms: C6_16  and  O6_17 
REMARK    5  A    between atoms: O6_17  and  C7_18 
REMARK    6  A    between atoms: C7_18  and  C9_20 
REMARK    7  A    between atoms: C9_20  and  N4_21 
REMARK    8  A    between atoms: C9_20  and  C12_26 
REMARK       I    between atoms: N4_21  and  C10_23 
REMARK    9  A    between atoms: C12_26  and  C13_28 
REMARK   10  A    between atoms: N8_35  and  C14_36 
REMARK   11  A    between atoms: C14_36  and  C15_37 
REMARK   12  A    between atoms: C18_45  and  C19_46 
REMARK   13  A    between atoms: C21_50  and  N12_51 
REMARK   14  A    between atoms: C24_61  and  O10_62 
ROOT
HETATM    1  C13 UNL     1      69.455  35.642  67.323  1.00  0.00     0.188 A 
HETATM    2  N5  UNL     1      69.058  36.562  66.350  1.00  0.00    -0.265 N 
ATOM      3  H5  UNL     1      68.277  36.433  65.706  1.00  0.00     0.190 HD
HETATM    4  N6  UNL     1      69.828  37.606  66.387  1.00  0.00    -0.226 N 
ATOM      5  H6  UNL     1      69.761  38.427  65.786  1.00  0.00     0.210 HD
HETATM    6  N7  UNL     1      70.702  37.413  67.331  1.00  0.00    -0.224 N 
ATOM      7  H7  UNL     1      71.439  38.070  67.588  1.00  0.00     0.210 HD
HETATM    8  N8  UNL     1      70.491  36.215  67.921  1.00  0.00    -0.253 N 
ENDROOT
BRANCH   1   9
HETATM    9  C12 UNL     1      68.757  34.401  67.477  1.00  0.00     0.221 C 
HETATM   10  O8  UNL     1      67.809  34.398  68.365  1.00  0.00    -0.287 OA
BRANCH   9  11
HETATM   11  C9  UNL     1      68.899  33.100  66.810  1.00  0.00     0.191 C 
BRANCH  11  12
HETATM   12  C7  UNL     1      69.648  33.252  65.505  1.00  0.00     0.151 C 
HETATM   13  C8  UNL     1      71.118  32.913  65.795  1.00  0.00     0.042 C 
BRANCH  12  14
HETATM   14  O6  UNL     1      69.151  32.434  64.525  1.00  0.00    -0.350 OA
BRANCH  14  15
HETATM   15  C6  UNL     1      68.590  33.124  63.474  1.00  0.00     0.304 C 
HETATM   16  O5  UNL     1      68.192  34.390  64.091  1.00  0.00    -0.303 OA
HETATM   17  C4  UNL     1      67.645  35.386  63.311  1.00  0.00     0.149 C 
HETATM   18  N2  UNL     1      67.869  35.424  62.079  1.00  0.00    -0.326 N 
HETATM   19  C3  UNL     1      68.692  34.448  61.413  1.00  0.00     0.119 C 
ATOM     20  H2  UNL     1      67.452  36.173  61.527  1.00  0.00     0.169 HD
HETATM   21  N1  UNL     1      68.705  34.397  60.148  1.00  0.00    -0.315 N 
HETATM   22  C24 UNL     1      69.461  33.539  62.341  1.00  0.00     0.241 C 
HETATM   23  C2  UNL     1      69.433  33.537  59.351  1.00  0.00     0.219 C 
ATOM     24  H1  UNL     1      68.108  35.069  59.663  1.00  0.00     0.170 HD
HETATM   25  C1  UNL     1      68.839  32.360  58.621  1.00  0.00     0.117 C 
HETATM   26  O1  UNL     1      70.695  33.650  59.143  1.00  0.00    -0.274 OA
BRANCH  17  27
HETATM   27  C5  UNL     1      66.785  36.399  64.015  1.00  0.00     0.292 C 
BRANCH  27  28
HETATM   28  O2  UNL     1      65.626  35.825  64.533  1.00  0.00    -0.213 OA
BRANCH  28  29
HETATM   29  N3  UNL     1      65.575  35.608  65.886  1.00  0.00     0.005 N 
HETATM   30  O3  UNL     1      65.170  34.529  66.334  1.00  0.00    -0.511 OA
HETATM   31  O4  UNL     1      65.986  36.622  66.715  1.00  0.00    -0.511 OA
ENDBRANCH  28  29
ENDBRANCH  27  28
ENDBRANCH  17  27
BRANCH  22  32
HETATM   32  O10 UNL     1      69.963  32.502  61.603  1.00  0.00    -0.383 OA
ATOM     33  H10 UNL     1      69.895  31.710  62.122  1.00  0.00     0.210 HD
ENDBRANCH  22  32
ENDBRANCH  14  15
ENDBRANCH  12  14
ENDBRANCH  11  12
BRANCH  11  34
HETATM   34  N4  UNL     1      67.537  32.601  66.475  1.00  0.00    -0.347 N 
HETATM   35  C10 UNL     1      67.025  31.394  66.963  1.00  0.00     0.214 C 
HETATM   36  C11 UNL     1      65.653  30.970  66.588  1.00  0.00     0.117 C 
HETATM   37  O7  UNL     1      67.701  30.661  67.715  1.00  0.00    -0.274 OA
ATOM     38  H4  UNL     1      66.951  33.165  65.861  1.00  0.00     0.163 HD
ENDBRANCH  11  34
ENDBRANCH   9  11
ENDBRANCH   1   9
BRANCH   8  39
HETATM   39  C14 UNL     1      71.289  35.826  69.047  1.00  0.00     0.187 C 
BRANCH  39  40
HETATM   40  C15 UNL     1      70.538  36.016  70.363  1.00  0.00    -0.049 C 
HETATM   41  C16 UNL     1      70.077  34.899  70.858  1.00  0.00     0.080 C 
HETATM   42  C17 UNL     1      69.316  34.770  72.118  1.00  0.00     0.260 C 
HETATM   43  O9  UNL     1      68.544  33.802  72.246  1.00  0.00    -0.267 OA
HETATM   44  N9  UNL     1      69.402  35.693  73.225  1.00  0.00    -0.266 N 
HETATM   45  N10 UNL     1      69.859  36.989  73.106  1.00  0.00    -0.301 N 
ATOM     46  H9  UNL     1      69.109  35.368  74.146  1.00  0.00     0.190 HD
HETATM   47  C18 UNL     1      70.297  37.736  72.185  1.00  0.00     0.045 C 
ATOM     48  H10 UNL     1      69.838  37.476  74.003  1.00  0.00     0.186 HD
HETATM   49  C23 UNL     1      70.500  37.422  70.761  1.00  0.00     0.095 C 
BRANCH  47  50
HETATM   50  C19 UNL     1      70.666  39.104  72.608  1.00  0.00     0.048 A 
HETATM   51  C20 UNL     1      71.993  39.322  72.999  1.00  0.00     0.123 A 
HETATM   52  N11 UNL     1      72.454  40.526  73.376  1.00  0.00    -0.201 N 
HETATM   53  C21 UNL     1      71.616  41.572  73.383  1.00  0.00     0.677 A 
ATOM     54  H11 UNL     1      73.428  40.643  73.654  1.00  0.00     0.183 HD
HETATM   55  N13 UNL     1      70.363  41.377  73.016  1.00  0.00    -0.176 N 
HETATM   56  C22 UNL     1      69.820  40.177  72.619  1.00  0.00     0.128 A 
ATOM     57  H13 UNL     1      69.743  42.187  73.028  1.00  0.00     0.186 HD
HETATM   58  N14 UNL     1      68.624  40.119  72.306  1.00  0.00    -0.384 N 
ATOM     59 2H14 UNL     1      68.221  39.229  72.011  1.00  0.00     0.157 HD
ATOM     60 1H14 UNL     1      67.992  40.919  72.313  1.00  0.00     0.157 HD
BRANCH  53  61
HETATM   61  N12 UNL     1      72.057  42.748  73.747  1.00  0.00    -0.234 N 
ATOM     62 2H12 UNL     1      72.752  42.860  74.485  1.00  0.00     0.174 HD
ATOM     63 1H12 UNL     1      71.699  43.584  73.285  1.00  0.00     0.174 HD
ENDBRANCH  53  61
ENDBRANCH  47  50
ENDBRANCH  39  40
ENDBRANCH   8  39
TORSDOF 14
ENDMDL
MODEL 4
REMARK VINA RESULT: -7.395961989      3.234      4.862
REMARK  14 active torsions:
REMARK  status: ('A' for Active; 'I' for Inactive)
REMARK       I    between atoms: C2_2  and  N1_4 
REMARK    1  A    between atoms: C4_9  and  C5_10 
REMARK    2  A    between atoms: C5_10  and  O2_11 
REMARK    3  A    between atoms: O2_11  and  N3_12 
REMARK    4  A    between atoms: C6_16  and  O6_17 
REMARK    5  A    between atoms: O6_17  and  C7_18 
REMARK    6  A    between atoms: C7_18  and  C9_20 
REMARK    7  A    between atoms: C9_20  and  N4_21 
REMARK    8  A    between atoms: C9_20  and  C12_26 
REMARK       I    between atoms: N4_21  and  C10_23 
REMARK    9  A    between atoms: C12_26  and  C13_28 
REMARK   10  A    between atoms: N8_35  and  C14_36 
REMARK   11  A    between atoms: C14_36  and  C15_37 
REMARK   12  A    between atoms: C18_45  and  C19_46 
REMARK   13  A    between atoms: C21_50  and  N12_51 
REMARK   14  A    between atoms: C24_61  and  O10_62 
ROOT
HETATM    1  C13 UNL     1      69.355  36.835  66.960  1.00  0.00     0.188 A 
HETATM    2  N5  UNL     1      69.370  37.916  66.075  1.00  0.00    -0.265 N 
ATOM      3  H5  UNL     1      68.579  38.217  65.504  1.00  0.00     0.190 HD
HETATM    4  N6  UNL     1      70.538  38.482  66.087  1.00  0.00    -0.226 N 
ATOM      5  H6  UNL     1      70.821  39.291  65.535  1.00  0.00     0.210 HD
HETATM    6  N7  UNL     1      71.280  37.828  66.931  1.00  0.00    -0.224 N 
ATOM      7  H7  UNL     1      72.253  38.048  67.147  1.00  0.00     0.210 HD
HETATM    8  N8  UNL     1      70.574  36.814  67.481  1.00  0.00    -0.253 N 
ENDROOT
BRANCH   1   9
HETATM    9  C12 UNL     1      68.172  36.045  67.121  1.00  0.00     0.221 C 
HETATM   10  O8  UNL     1      67.394  36.394  68.100  1.00  0.00    -0.287 OA
BRANCH   9  11
HETATM   11  C9  UNL     1      67.646  34.892  66.377  1.00  0.00     0.191 C 
BRANCH  11  12
HETATM   12  C7  UNL     1      66.200  35.121  65.998  1.00  0.00     0.151 C 
HETATM   13  C8  UNL     1      66.175  36.330  65.050  1.00  0.00     0.042 C 
BRANCH  12  14
HETATM   14  O6  UNL     1      65.644  34.025  65.392  1.00  0.00    -0.350 OA
BRANCH  14  15
HETATM   15  C6  UNL     1      64.803  33.315  66.219  1.00  0.00     0.304 C 
HETATM   16  O5  UNL     1      63.700  34.250  66.442  1.00  0.00    -0.303 OA
HETATM   17  C4  UNL     1      62.608  33.852  67.184  1.00  0.00     0.149 C 
HETATM   18  N2  UNL     1      62.328  32.637  67.301  1.00  0.00    -0.326 N 
HETATM   19  C3  UNL     1      63.113  31.600  66.683  1.00  0.00     0.119 C 
ATOM     20  H2  UNL     1      61.514  32.372  67.855  1.00  0.00     0.169 HD
HETATM   21  N1  UNL     1      62.926  30.392  67.012  1.00  0.00    -0.315 N 
HETATM   22  C24 UNL     1      64.134  32.096  65.688  1.00  0.00     0.241 C 
HETATM   23  C2  UNL     1      63.578  29.279  66.521  1.00  0.00     0.219 C 
ATOM     24  H1  UNL     1      62.211  30.222  67.720  1.00  0.00     0.170 HD
HETATM   25  C1  UNL     1      64.630  28.516  67.284  1.00  0.00     0.117 C 
HETATM   26  O1  UNL     1      63.356  28.772  65.362  1.00  0.00    -0.274 OA
BRANCH  17  27
HETATM   27  C5  UNL     1      61.796  34.942  67.827  1.00  0.00     0.292 C 
BRANCH  27  28
HETATM   28  O2  UNL     1      60.464  34.567  67.993  1.00  0.00    -0.213 OA
BRANCH  28  29
HETATM   29  N3  UNL     1      60.155  33.777  69.069  1.00  0.00     0.005 N 
HETATM   30  O3  UNL     1      59.058  33.211  69.140  1.00  0.00    -0.511 OA
HETATM   31  O4  UNL     1      61.100  33.640  70.056  1.00  0.00    -0.511 OA
ENDBRANCH  28  29
ENDBRANCH  27  28
ENDBRANCH  17  27
BRANCH  22  32
HETATM   32  O10 UNL     1      64.984  31.064  65.399  1.00  0.00    -0.383 OA
ATOM     33  H10 UNL     1      64.466  30.276  65.287  1.00  0.00     0.210 HD
ENDBRANCH  22  32
ENDBRANCH  14  15
ENDBRANCH  12  14
ENDBRANCH  11  12
BRANCH  11  34
HETATM   34  N4  UNL     1      67.679  33.707  67.277  1.00  0.00    -0.347 N 
HETATM   35  C10 UNL     1      68.786  32.859  67.384  1.00  0.00     0.214 C 
HETATM   36  C11 UNL     1      68.741  31.701  68.311  1.00  0.00     0.117 C 
HETATM   37  O7  UNL     1      69.820  33.058  66.713  1.00  0.00    -0.274 OA
ATOM     38  H4  UNL     1      66.854  33.503  67.841  1.00  0.00     0.163 HD
ENDBRANCH  11  34
ENDBRANCH   9  11
ENDBRANCH   1   9
BRANCH   8  39
HETATM   39  C14 UNL     1      71.170  36.005  68.504  1.00  0.00     0.187 C 
BRANCH  39  40
HETATM   40  C15 UNL     1      70.410  36.115  69.824  1.00  0.00    -0.049 C 
HETATM   41  C16 UNL     1      69.913  34.978  70.228  1.00  0.00     0.080 C 
HETATM   42  C17 UNL     1      69.135  34.775  71.468  1.00  0.00     0.260 C 
HETATM   43  O9  UNL     1      68.335  33.821  71.514  1.00  0.00    -0.267 OA
HETATM   44  N9  UNL     1      69.234  35.607  72.642  1.00  0.00    -0.266 N 
HETATM   45  N10 UNL     1      69.726  36.896  72.627  1.00  0.00    -0.301 N 
ATOM     46  H9  UNL     1      68.921  35.222  73.533  1.00  0.00     0.190 HD
HETATM   47  C18 UNL     1      70.194  37.698  71.769  1.00  0.00     0.045 C 
ATOM     48  H10 UNL     1      69.708  37.314  73.557  1.00  0.00     0.186 HD
HETATM   49  C23 UNL     1      70.404  37.488  70.327  1.00  0.00     0.095 C 
BRANCH  47  50
HETATM   50  C19 UNL     1      70.595  39.020  72.299  1.00  0.00     0.048 A 
HETATM   51  C20 UNL     1      71.939  39.193  72.651  1.00  0.00     0.123 A 
HETATM   52  N11 UNL     1      72.428  40.354  73.116  1.00  0.00    -0.201 N 
HETATM   53  C21 UNL     1      71.602  41.400  73.253  1.00  0.00     0.677 A 
ATOM     54  H11 UNL     1      73.414  40.438  73.362  1.00  0.00     0.183 HD
HETATM   55  N13 UNL     1      70.333  41.248  72.924  1.00  0.00    -0.176 N 
HETATM   56  C22 UNL     1      69.761  40.093  72.443  1.00  0.00     0.128 A 
ATOM     57  H13 UNL     1      69.722  42.057  73.035  1.00  0.00     0.186 HD
HETATM   58  N14 UNL     1      68.552  40.071  72.177  1.00  0.00    -0.384 N 
ATOM     59 2H14 UNL     1      68.129  39.215  71.820  1.00  0.00     0.157 HD
ATOM     60 1H14 UNL     1      67.930  40.872  72.284  1.00  0.00     0.157 HD
BRANCH  53  61
HETATM   61  N12 UNL     1      72.071  42.535  73.704  1.00  0.00    -0.234 N 
ATOM     62 2H12 UNL     1      72.340  43.295  73.080  1.00  0.00     0.174 HD
ATOM     63 1H12 UNL     1      72.174  42.672  74.709  1.00  0.00     0.174 HD
ENDBRANCH  53  61
ENDBRANCH  47  50
ENDBRANCH  39  40
ENDBRANCH   8  39
TORSDOF 14
ENDMDL
MODEL 5
REMARK VINA RESULT: -7.254172883      2.546      4.214
REMARK  14 active torsions:
REMARK  status: ('A' for Active; 'I' for Inactive)
REMARK       I    between atoms: C2_2  and  N1_4 
REMARK    1  A    between atoms: C4_9  and  C5_10 
REMARK    2  A    between atoms: C5_10  and  O2_11 
REMARK    3  A    between atoms: O2_11  and  N3_12 
REMARK    4  A    between atoms: C6_16  and  O6_17 
REMARK    5  A    between atoms: O6_17  and  C7_18 
REMARK    6  A    between atoms: C7_18  and  C9_20 
REMARK    7  A    between atoms: C9_20  and  N4_21 
REMARK    8  A    between atoms: C9_20  and  C12_26 
REMARK       I    between atoms: N4_21  and  C10_23 
REMARK    9  A    between atoms: C12_26  and  C13_28 
REMARK   10  A    between atoms: N8_35  and  C14_36 
REMARK   11  A    between atoms: C14_36  and  C15_37 
REMARK   12  A    between atoms: C18_45  and  C19_46 
REMARK   13  A    between atoms: C21_50  and  N12_51 
REMARK   14  A    between atoms: C24_61  and  O10_62 
ROOT
HETATM    1  C13 UNL     1      69.351  36.904  66.497  1.00  0.00     0.188 A 
HETATM    2  N5  UNL     1      69.576  38.128  65.864  1.00  0.00    -0.265 N 
ATOM      3  H5  UNL     1      68.891  38.629  65.297  1.00  0.00     0.190 HD
HETATM    4  N6  UNL     1      70.785  38.535  66.103  1.00  0.00    -0.226 N 
ATOM      5  H6  UNL     1      71.210  39.397  65.762  1.00  0.00     0.210 HD
HETATM    6  N7  UNL     1      71.355  37.642  66.858  1.00  0.00    -0.224 N 
ATOM      7  H7  UNL     1      72.313  37.696  67.205  1.00  0.00     0.210 HD
HETATM    8  N8  UNL     1      70.493  36.633  67.115  1.00  0.00    -0.253 N 
ENDROOT
BRANCH   1   9
HETATM    9  C12 UNL     1      68.084  36.246  66.378  1.00  0.00     0.221 C 
HETATM   10  O8  UNL     1      67.148  36.686  67.163  1.00  0.00    -0.287 OA
BRANCH   9  11
HETATM   11  C9  UNL     1      67.619  35.150  65.518  1.00  0.00     0.191 C 
BRANCH  11  12
HETATM   12  C7  UNL     1      68.000  35.408  64.077  1.00  0.00     0.151 C 
HETATM   13  C8  UNL     1      69.392  34.792  63.869  1.00  0.00     0.042 C 
BRANCH  12  14
HETATM   14  O6  UNL     1      67.099  34.866  63.198  1.00  0.00    -0.350 OA
BRANCH  14  15
HETATM   15  C6  UNL     1      67.498  33.649  62.693  1.00  0.00     0.304 C 
HETATM   16  O5  UNL     1      66.651  32.702  63.417  1.00  0.00    -0.303 OA
HETATM   17  C4  UNL     1      66.721  31.358  63.118  1.00  0.00     0.149 C 
HETATM   18  N2  UNL     1      67.137  30.977  61.999  1.00  0.00    -0.326 N 
HETATM   19  C3  UNL     1      67.561  31.898  60.978  1.00  0.00     0.119 C 
ATOM     20  H2  UNL     1      67.176  29.976  61.805  1.00  0.00     0.169 HD
HETATM   21  N1  UNL     1      68.178  31.465  59.961  1.00  0.00    -0.315 N 
HETATM   22  C24 UNL     1      67.231  33.344  61.261  1.00  0.00     0.241 C 
HETATM   23  C2  UNL     1      68.650  32.199  58.891  1.00  0.00     0.219 C 
ATOM     24  H1  UNL     1      68.346  30.460  59.929  1.00  0.00     0.170 HD
HETATM   25  C1  UNL     1      70.103  32.531  58.673  1.00  0.00     0.117 C 
HETATM   26  O1  UNL     1      67.899  32.677  57.964  1.00  0.00    -0.274 OA
BRANCH  17  27
HETATM   27  C5  UNL     1      66.277  30.403  64.191  1.00  0.00     0.292 C 
BRANCH  27  28
HETATM   28  O2  UNL     1      64.936  30.050  64.050  1.00  0.00    -0.213 OA
BRANCH  28  29
HETATM   29  N3  UNL     1      64.018  30.724  64.813  1.00  0.00     0.005 N 
HETATM   30  O3  UNL     1      63.253  31.547  64.296  1.00  0.00    -0.511 OA
HETATM   31  O4  UNL     1      63.980  30.455  66.158  1.00  0.00    -0.511 OA
ENDBRANCH  28  29
ENDBRANCH  27  28
ENDBRANCH  17  27
BRANCH  22  32
HETATM   32  O10 UNL     1      67.926  34.121  60.376  1.00  0.00    -0.383 OA
ATOM     33  H10 UNL     1      68.336  34.827  60.861  1.00  0.00     0.210 HD
ENDBRANCH  22  32
ENDBRANCH  14  15
ENDBRANCH  12  14
ENDBRANCH  11  12
BRANCH  11  34
HETATM   34  N4  UNL     1      66.132  35.116  65.575  1.00  0.00    -0.347 N 
HETATM   35  C10 UNL     1      65.414  34.086  66.192  1.00  0.00     0.214 C 
HETATM   36  C11 UNL     1      63.931  34.130  66.213  1.00  0.00     0.117 C 
HETATM   37  O7  UNL     1      66.000  33.123  66.731  1.00  0.00    -0.274 OA
ATOM     38  H4  UNL     1      65.611  35.880  65.145  1.00  0.00     0.163 HD
ENDBRANCH  11  34
ENDBRANCH   9  11
ENDBRANCH   1   9
BRANCH   8  39
HETATM   39  C14 UNL     1      70.881  35.571  67.997  1.00  0.00     0.187 C 
BRANCH  39  40
HETATM   40  C15 UNL     1      70.137  35.644  69.329  1.00  0.00    -0.049 C 
HETATM   41  C16 UNL     1      69.626  34.500  69.696  1.00  0.00     0.080 C 
HETATM   42  C17 UNL     1      68.858  34.263  70.935  1.00  0.00     0.260 C 
HETATM   43  O9  UNL     1      68.043  33.321  70.954  1.00  0.00    -0.267 OA
HETATM   44  N9  UNL     1      68.982  35.049  72.138  1.00  0.00    -0.266 N 
HETATM   45  N10 UNL     1      69.496  36.329  72.166  1.00  0.00    -0.301 N 
ATOM     46  H9  UNL     1      68.673  34.635  73.017  1.00  0.00     0.190 HD
HETATM   47  C18 UNL     1      69.968  37.155  71.334  1.00  0.00     0.045 C 
ATOM     48  H10 UNL     1      69.494  36.712  73.112  1.00  0.00     0.186 HD
HETATM   49  C23 UNL     1      70.160  36.996  69.883  1.00  0.00     0.095 C 
BRANCH  47  50
HETATM   50  C19 UNL     1      70.396  38.449  71.909  1.00  0.00     0.048 A 
HETATM   51  C20 UNL     1      69.467  39.497  71.900  1.00  0.00     0.123 A 
HETATM   52  N11 UNL     1      69.728  40.708  72.418  1.00  0.00    -0.201 N 
HETATM   53  C21 UNL     1      70.928  40.935  72.971  1.00  0.00     0.677 A 
ATOM     54  H11 UNL     1      69.024  41.445  72.390  1.00  0.00     0.183 HD
HETATM   55  N13 UNL     1      71.810  39.954  72.985  1.00  0.00    -0.176 N 
HETATM   56  C22 UNL     1      71.615  38.691  72.475  1.00  0.00     0.128 A 
ATOM     57  H13 UNL     1      72.716  40.149  73.412  1.00  0.00     0.186 HD
HETATM   58  N14 UNL     1      72.527  37.856  72.541  1.00  0.00    -0.384 N 
ATOM     59 2H14 UNL     1      72.382  36.920  72.163  1.00  0.00     0.157 HD
ATOM     60 1H14 UNL     1      73.437  38.037  72.963  1.00  0.00     0.157 HD
BRANCH  53  61
HETATM   61  N12 UNL     1      71.189  42.112  73.479  1.00  0.00    -0.234 N 
ATOM     62 2H12 UNL     1      71.549  42.879  72.912  1.00  0.00     0.174 HD
ATOM     63 1H12 UNL     1      71.032  42.275  74.474  1.00  0.00     0.174 HD
ENDBRANCH  53  61
ENDBRANCH  47  50
ENDBRANCH  39  40
ENDBRANCH   8  39
TORSDOF 14
ENDMDL
