MODEL 1
REMARK VINA RESULT: -6.062103812      0.000      0.000
REMARK  18 active torsions:
REMARK  status: ('A' for Active; 'I' for Inactive)
REMARK    1  A    between atoms: N1_1  and  N2_4 
REMARK    2  A    between atoms: N2_4  and  C1_6 
REMARK    3  A    between atoms: N5_13  and  C4_14 
REMARK    4  A    between atoms: C4_14  and  C5_15 
REMARK    5  A    between atoms: C4_14  and  C6_18 
REMARK    6  A    between atoms: C5_15  and  O1_16 
REMARK    7  A    between atoms: C6_18  and  S1_19 
REMARK    8  A    between atoms: S1_19  and  S2_20 
REMARK    9  A    between atoms: S2_20  and  C7_21 
REMARK   10  A    between atoms: C9_23  and  S3_24 
REMARK   11  A    between atoms: C11_29  and  S4_30 
REMARK   12  A    between atoms: C12_34  and  S5_35 
REMARK   13  A    between atoms: S5_35  and  N6_36 
REMARK   14  A    between atoms: N7_42  and  C14_43 
REMARK   15  A    between atoms: C14_43  and  O10_44 
REMARK   16  A    between atoms: O10_44  and  C15_45 
REMARK   17  A    between atoms: C15_45  and  C16_47 
REMARK   18  A    between atoms: C16_47  and  O12_48 
ROOT
HETATM    1  C4  UNL     1      65.241  32.274  65.850  1.00  0.00     0.126 C 
ENDROOT
BRANCH   1   2
HETATM    2  N5  UNL     1      64.488  33.451  66.206  1.00  0.00    -0.318 N 
HETATM    3  C3  UNL     1      64.813  34.733  65.911  1.00  0.00     0.186 A 
HETATM    4  N4  UNL     1      63.919  35.584  66.389  1.00  0.00    -0.335 N 
HETATM    5  C2  UNL     1      62.984  34.856  67.010  1.00  0.00     0.168 A 
ATOM      6  H4  UNL     1      63.938  36.601  66.300  1.00  0.00     0.168 HD
HETATM    7  N3  UNL     1      61.837  34.967  67.699  1.00  0.00    -0.171 N 
HETATM    8  C13 UNL     1      63.343  33.513  66.895  1.00  0.00     0.179 A 
HETATM    9  C1  UNL     1      61.441  33.729  68.033  1.00  0.00     0.707 A 
ATOM     10  H3  UNL     1      61.353  35.835  67.926  1.00  0.00     0.186 HD
HETATM   11  N7  UNL     1      62.342  32.840  67.553  1.00  0.00    -0.117 N 
BRANCH   9  12
HETATM   12  N2  UNL     1      60.389  33.413  68.741  1.00  0.00    -0.138 N 
ATOM     13  H2  UNL     1      59.472  33.317  68.305  1.00  0.00     0.205 HD
BRANCH  12  14
HETATM   14  N1  UNL     1      60.559  33.211  70.110  1.00  0.00    -0.331 N 
ATOM     15  H12 UNL     1      60.849  32.298  70.461  1.00  0.00     0.177 HD
ATOM     16  H11 UNL     1      60.386  33.999  70.734  1.00  0.00     0.177 HD
ENDBRANCH  12  14
ENDBRANCH   9  12
BRANCH  11  17
HETATM   17  C14 UNL     1      62.321  31.399  67.618  1.00  0.00     0.264 C 
BRANCH  17  18
HETATM   18  O10 UNL     1      61.535  30.794  68.550  1.00  0.00    -0.271 OA
BRANCH  18  19
HETATM   19  C15 UNL     1      60.647  29.800  68.554  1.00  0.00     0.288 C 
HETATM   20  O11 UNL     1      60.879  28.761  67.905  1.00  0.00    -0.262 OA
BRANCH  19  21
HETATM   21  C16 UNL     1      59.344  29.818  69.294  1.00  0.00     0.275 C 
BRANCH  21  22
HETATM   22  O12 UNL     1      58.663  31.005  69.184  1.00  0.00    -0.391 OA
ATOM     23  H12 UNL     1      57.965  31.105  69.820  1.00  0.00     0.210 HD
ENDBRANCH  21  22
ENDBRANCH  19  21
ENDBRANCH  18  19
ENDBRANCH  17  18
ENDBRANCH  11  17
ENDBRANCH   1   2
BRANCH   1  24
HETATM   24  C5  UNL     1      64.456  31.278  65.068  1.00  0.00     0.190 C 
BRANCH  24  25
HETATM   25  O1  UNL     1      64.893  31.208  63.731  1.00  0.00    -0.399 OA
ATOM     26  H1  UNL     1      64.928  30.310  63.422  1.00  0.00     0.209 HD
ENDBRANCH  24  25
ENDBRANCH   1  24
BRANCH   1  27
HETATM   27  C6  UNL     1      65.945  31.714  67.033  1.00  0.00     0.114 C 
BRANCH  27  28
HETATM   28  S1  UNL     1      67.660  32.076  67.205  1.00  0.00    -0.090 SA
BRANCH  28  29
HETATM   29  S2  UNL     1      68.890  31.949  65.522  1.00  0.00    -0.056 SA
BRANCH  29  30
HETATM   30  C7  UNL     1      68.653  33.379  64.437  1.00  0.00     0.038 A 
HETATM   31  C8  UNL     1      68.754  34.646  65.051  1.00  0.00     0.047 A 
HETATM   32  C9  UNL     1      68.586  35.788  64.314  1.00  0.00     0.083 A 
HETATM   33  C10 UNL     1      68.322  35.628  62.983  1.00  0.00     0.054 A 
HETATM   34  C11 UNL     1      68.214  34.383  62.349  1.00  0.00     0.106 A 
HETATM   35  C12 UNL     1      68.386  33.221  63.114  1.00  0.00     0.121 A 
BRANCH  32  36
HETATM   36  S3  UNL     1      68.703  37.386  65.047  1.00  0.00     0.137 S 
HETATM   37  O2  UNL     1      67.930  38.361  64.239  1.00  0.00    -0.591 OA
HETATM   38  O3  UNL     1      70.145  37.801  65.164  1.00  0.00    -0.591 OA
HETATM   39  O4  UNL     1      68.019  37.312  66.596  1.00  0.00    -0.591 OA
ENDBRANCH  32  36
BRANCH  34  40
HETATM   40  S4  UNL     1      67.912  34.283  60.646  1.00  0.00     0.139 S 
HETATM   41  O5  UNL     1      68.218  35.694  60.087  1.00  0.00    -0.591 OA
HETATM   42  O6  UNL     1      68.902  33.409  59.914  1.00  0.00    -0.591 OA
HETATM   43  O7  UNL     1      66.333  34.003  60.234  1.00  0.00    -0.591 OA
ENDBRANCH  34  40
BRANCH  35  44
HETATM   44  S5  UNL     1      68.144  31.679  62.360  1.00  0.00     0.259 S 
HETATM   45  O8  UNL     1      67.830  30.692  63.446  1.00  0.00    -0.201 OA
HETATM   46  O9  UNL     1      69.300  31.136  61.621  1.00  0.00    -0.201 OA
BRANCH  44  47
HETATM   47  N6  UNL     1      66.689  31.739  61.393  1.00  0.00    -0.324 N 
ATOM     48  H62 UNL     1      66.656  31.591  60.384  1.00  0.00     0.169 HD
ATOM     49  H61 UNL     1      65.894  31.943  61.998  1.00  0.00     0.169 HD
ENDBRANCH  44  47
ENDBRANCH  35  44
ENDBRANCH  29  30
ENDBRANCH  28  29
ENDBRANCH  27  28
ENDBRANCH   1  27
TORSDOF 18
ENDMDL
MODEL 2
REMARK VINA RESULT: -5.931287434      5.201      8.159
REMARK  18 active torsions:
REMARK  status: ('A' for Active; 'I' for Inactive)
REMARK    1  A    between atoms: N1_1  and  N2_4 
REMARK    2  A    between atoms: N2_4  and  C1_6 
REMARK    3  A    between atoms: N5_13  and  C4_14 
REMARK    4  A    between atoms: C4_14  and  C5_15 
REMARK    5  A    between atoms: C4_14  and  C6_18 
REMARK    6  A    between atoms: C5_15  and  O1_16 
REMARK    7  A    between atoms: C6_18  and  S1_19 
REMARK    8  A    between atoms: S1_19  and  S2_20 
REMARK    9  A    between atoms: S2_20  and  C7_21 
REMARK   10  A    between atoms: C9_23  and  S3_24 
REMARK   11  A    between atoms: C11_29  and  S4_30 
REMARK   12  A    between atoms: C12_34  and  S5_35 
REMARK   13  A    between atoms: S5_35  and  N6_36 
REMARK   14  A    between atoms: N7_42  and  C14_43 
REMARK   15  A    between atoms: C14_43  and  O10_44 
REMARK   16  A    between atoms: O10_44  and  C15_45 
REMARK   17  A    between atoms: C15_45  and  C16_47 
REMARK   18  A    between atoms: C16_47  and  O12_48 
ROOT
HETATM    1  C4  UNL     1      73.560  35.886  66.629  1.00  0.00     0.126 C 
ENDROOT
BRANCH   1   2
HETATM    2  N5  UNL     1      72.312  36.590  66.471  1.00  0.00    -0.318 N 
HETATM    3  C3  UNL     1      71.859  37.182  65.338  1.00  0.00     0.186 A 
HETATM    4  N4  UNL     1      70.679  37.753  65.525  1.00  0.00    -0.335 N 
HETATM    5  C2  UNL     1      70.343  37.537  66.802  1.00  0.00     0.168 A 
ATOM      6  H4  UNL     1      70.132  38.260  64.830  1.00  0.00     0.168 HD
HETATM    7  N3  UNL     1      69.373  37.779  67.699  1.00  0.00    -0.171 N 
HETATM    8  C13 UNL     1      71.371  36.805  67.397  1.00  0.00     0.179 A 
HETATM    9  C1  UNL     1      69.745  37.222  68.861  1.00  0.00     0.707 A 
ATOM     10  H3  UNL     1      68.509  38.293  67.527  1.00  0.00     0.186 HD
HETATM   11  N7  UNL     1      70.950  36.629  68.693  1.00  0.00    -0.117 N 
BRANCH   9  12
HETATM   12  N2  UNL     1      69.090  37.268  69.991  1.00  0.00    -0.138 N 
ATOM     13  H2  UNL     1      68.412  36.546  70.236  1.00  0.00     0.205 HD
BRANCH  12  14
HETATM   14  N1  UNL     1      69.347  38.334  70.852  1.00  0.00    -0.331 N 
ATOM     15  H12 UNL     1      69.209  39.294  70.534  1.00  0.00     0.177 HD
ATOM     16  H11 UNL     1      69.672  38.119  71.795  1.00  0.00     0.177 HD
ENDBRANCH  12  14
ENDBRANCH   9  12
BRANCH  11  17
HETATM   17  C14 UNL     1      71.728  35.865  69.638  1.00  0.00     0.264 C 
BRANCH  17  18
HETATM   18  O10 UNL     1      71.198  35.600  70.864  1.00  0.00    -0.271 OA
BRANCH  18  19
HETATM   19  C15 UNL     1      71.573  35.787  72.130  1.00  0.00     0.288 C 
HETATM   20  O11 UNL     1      72.786  35.849  72.412  1.00  0.00    -0.262 OA
BRANCH  19  21
HETATM   21  C16 UNL     1      70.635  35.933  73.289  1.00  0.00     0.275 C 
BRANCH  21  22
HETATM   22  O12 UNL     1      69.321  36.083  72.919  1.00  0.00    -0.391 OA
ATOM     23  H12 UNL     1      68.764  36.408  73.616  1.00  0.00     0.210 HD
ENDBRANCH  21  22
ENDBRANCH  19  21
ENDBRANCH  18  19
ENDBRANCH  17  18
ENDBRANCH  11  17
ENDBRANCH   1   2
BRANCH   1  24
HETATM   24  C5  UNL     1      74.728  36.784  66.844  1.00  0.00     0.190 C 
BRANCH  24  25
HETATM   25  O1  UNL     1      75.178  36.739  68.178  1.00  0.00    -0.399 OA
ATOM     26  H1  UNL     1      76.061  37.079  68.261  1.00  0.00     0.209 HD
ENDBRANCH  24  25
ENDBRANCH   1  24
BRANCH   1  27
HETATM   27  C6  UNL     1      73.744  34.881  65.550  1.00  0.00     0.114 C 
BRANCH  27  28
HETATM   28  S1  UNL     1      73.097  33.265  65.824  1.00  0.00    -0.090 SA
BRANCH  28  29
HETATM   29  S2  UNL     1      71.252  32.765  64.986  1.00  0.00    -0.056 SA
BRANCH  29  30
HETATM   30  C7  UNL     1      69.892  33.517  65.916  1.00  0.00     0.038 A 
HETATM   31  C8  UNL     1      69.783  33.136  67.270  1.00  0.00     0.047 A 
HETATM   32  C9  UNL     1      68.785  33.648  68.056  1.00  0.00     0.083 A 
HETATM   33  C10 UNL     1      67.924  34.527  67.461  1.00  0.00     0.054 A 
HETATM   34  C11 UNL     1      68.008  34.921  66.119  1.00  0.00     0.106 A 
HETATM   35  C12 UNL     1      69.032  34.389  65.325  1.00  0.00     0.121 A 
BRANCH  32  36
HETATM   36  S3  UNL     1      68.617  33.194  69.750  1.00  0.00     0.137 S 
HETATM   37  O2  UNL     1      67.560  32.161  69.885  1.00  0.00    -0.591 OA
HETATM   38  O3  UNL     1      68.302  34.406  70.586  1.00  0.00    -0.591 OA
HETATM   39  O4  UNL     1      70.086  32.528  70.270  1.00  0.00    -0.591 OA
ENDBRANCH  32  36
BRANCH  34  40
HETATM   40  S4  UNL     1      66.889  36.071  65.465  1.00  0.00     0.139 S 
HETATM   41  O5  UNL     1      65.905  36.394  66.616  1.00  0.00    -0.591 OA
HETATM   42  O6  UNL     1      67.517  37.413  65.171  1.00  0.00    -0.591 OA
HETATM   43  O7  UNL     1      65.931  35.494  64.244  1.00  0.00    -0.591 OA
ENDBRANCH  34  40
BRANCH  35  44
HETATM   44  S5  UNL     1      69.075  34.783  63.637  1.00  0.00     0.259 S 
HETATM   45  O8  UNL     1      70.328  34.186  63.067  1.00  0.00    -0.201 OA
HETATM   46  O9  UNL     1      69.113  36.223  63.315  1.00  0.00    -0.201 OA
BRANCH  44  47
HETATM   47  N6  UNL     1      67.779  33.940  62.821  1.00  0.00    -0.324 N 
ATOM     48  H62 UNL     1      66.813  33.906  63.147  1.00  0.00     0.169 HD
ATOM     49  H61 UNL     1      68.148  33.496  61.980  1.00  0.00     0.169 HD
ENDBRANCH  44  47
ENDBRANCH  35  44
ENDBRANCH  29  30
ENDBRANCH  28  29
ENDBRANCH  27  28
ENDBRANCH   1  27
TORSDOF 18
ENDMDL
MODEL 3
REMARK VINA RESULT: -5.903436820      6.208      8.960
REMARK  18 active torsions:
REMARK  status: ('A' for Active; 'I' for Inactive)
REMARK    1  A    between atoms: N1_1  and  N2_4 
REMARK    2  A    between atoms: N2_4  and  C1_6 
REMARK    3  A    between atoms: N5_13  and  C4_14 
REMARK    4  A    between atoms: C4_14  and  C5_15 
REMARK    5  A    between atoms: C4_14  and  C6_18 
REMARK    6  A    between atoms: C5_15  and  O1_16 
REMARK    7  A    between atoms: C6_18  and  S1_19 
REMARK    8  A    between atoms: S1_19  and  S2_20 
REMARK    9  A    between atoms: S2_20  and  C7_21 
REMARK   10  A    between atoms: C9_23  and  S3_24 
REMARK   11  A    between atoms: C11_29  and  S4_30 
REMARK   12  A    between atoms: C12_34  and  S5_35 
REMARK   13  A    between atoms: S5_35  and  N6_36 
REMARK   14  A    between atoms: N7_42  and  C14_43 
REMARK   15  A    between atoms: C14_43  and  O10_44 
REMARK   16  A    between atoms: O10_44  and  C15_45 
REMARK   17  A    between atoms: C15_45  and  C16_47 
REMARK   18  A    between atoms: C16_47  and  O12_48 
ROOT
HETATM    1  C4  UNL     1      71.194  35.503  70.463  1.00  0.00     0.126 C 
ENDROOT
BRANCH   1   2
HETATM    2  N5  UNL     1      70.407  36.667  70.140  1.00  0.00    -0.318 N 
HETATM    3  C3  UNL     1      69.896  36.981  68.924  1.00  0.00     0.186 A 
HETATM    4  N4  UNL     1      69.228  38.123  68.958  1.00  0.00    -0.335 N 
HETATM    5  C2  UNL     1      69.296  38.575  70.215  1.00  0.00     0.168 A 
ATOM      6  H4  UNL     1      68.753  38.573  68.175  1.00  0.00     0.168 HD
HETATM    7  N3  UNL     1      68.903  39.592  70.999  1.00  0.00    -0.171 N 
HETATM    8  C13 UNL     1      70.038  37.658  70.959  1.00  0.00     0.179 A 
HETATM    9  C1  UNL     1      69.372  39.358  72.234  1.00  0.00     0.707 A 
ATOM     10  H3  UNL     1      68.349  40.398  70.709  1.00  0.00     0.186 HD
HETATM   11  N7  UNL     1      70.059  38.192  72.225  1.00  0.00    -0.117 N 
BRANCH   9  12
HETATM   12  N2  UNL     1      69.238  40.134  73.278  1.00  0.00    -0.138 N 
ATOM     13  H2  UNL     1      68.803  39.792  74.135  1.00  0.00     0.205 HD
BRANCH  12  14
HETATM   14  N1  UNL     1      69.707  41.444  73.183  1.00  0.00    -0.331 N 
ATOM     15  H12 UNL     1      69.740  41.911  72.276  1.00  0.00     0.177 HD
ATOM     16  H11 UNL     1      70.009  41.905  74.040  1.00  0.00     0.177 HD
ENDBRANCH  12  14
ENDBRANCH   9  12
BRANCH  11  17
HETATM   17  C14 UNL     1      70.700  37.505  73.320  1.00  0.00     0.264 C 
BRANCH  17  18
HETATM   18  O10 UNL     1      71.436  38.227  74.208  1.00  0.00    -0.271 OA
BRANCH  18  19
HETATM   19  C15 UNL     1      72.485  39.048  74.139  1.00  0.00     0.288 C 
HETATM   20  O11 UNL     1      72.318  40.276  74.273  1.00  0.00    -0.262 OA
BRANCH  19  21
HETATM   21  C16 UNL     1      73.900  38.614  73.905  1.00  0.00     0.275 C 
BRANCH  21  22
HETATM   22  O12 UNL     1      74.253  38.576  72.579  1.00  0.00    -0.391 OA
ATOM     23  H12 UNL     1      75.111  38.943  72.402  1.00  0.00     0.210 HD
ENDBRANCH  21  22
ENDBRANCH  19  21
ENDBRANCH  18  19
ENDBRANCH  17  18
ENDBRANCH  11  17
ENDBRANCH   1   2
BRANCH   1  24
HETATM   24  C5  UNL     1      72.652  35.681  70.218  1.00  0.00     0.190 C 
BRANCH  24  25
HETATM   25  O1  UNL     1      73.319  36.138  71.371  1.00  0.00    -0.399 OA
ATOM     26  H1  UNL     1      73.435  35.442  72.007  1.00  0.00     0.209 HD
ENDBRANCH  24  25
ENDBRANCH   1  24
BRANCH   1  27
HETATM   27  C6  UNL     1      70.610  34.279  69.853  1.00  0.00     0.114 C 
BRANCH  27  28
HETATM   28  S1  UNL     1      71.705  33.194  69.001  1.00  0.00    -0.090 SA
BRANCH  28  29
HETATM   29  S2  UNL     1      71.612  33.103  66.917  1.00  0.00    -0.056 SA
BRANCH  29  30
HETATM   30  C7  UNL     1      71.214  34.725  66.215  1.00  0.00     0.038 A 
HETATM   31  C8  UNL     1      72.292  35.626  66.087  1.00  0.00     0.047 A 
HETATM   32  C9  UNL     1      72.091  36.878  65.571  1.00  0.00     0.083 A 
HETATM   33  C10 UNL     1      70.814  37.192  65.198  1.00  0.00     0.054 A 
HETATM   34  C11 UNL     1      69.726  36.318  65.316  1.00  0.00     0.106 A 
HETATM   35  C12 UNL     1      69.944  35.040  65.847  1.00  0.00     0.121 A 
BRANCH  32  36
HETATM   36  S3  UNL     1      73.413  38.030  65.399  1.00  0.00     0.137 S 
HETATM   37  O2  UNL     1      72.980  39.361  65.890  1.00  0.00    -0.591 OA
HETATM   38  O3  UNL     1      73.859  38.100  63.962  1.00  0.00    -0.591 OA
HETATM   39  O4  UNL     1      74.708  37.501  66.356  1.00  0.00    -0.591 OA
ENDBRANCH  32  36
BRANCH  34  40
HETATM   40  S4  UNL     1      68.148  36.796  64.780  1.00  0.00     0.139 S 
HETATM   41  O5  UNL     1      68.279  38.286  64.382  1.00  0.00    -0.591 OA
HETATM   42  O6  UNL     1      67.732  36.136  63.487  1.00  0.00    -0.591 OA
HETATM   43  O7  UNL     1      66.980  36.777  65.953  1.00  0.00    -0.591 OA
ENDBRANCH  34  40
BRANCH  35  44
HETATM   44  S5  UNL     1      68.584  33.995  66.100  1.00  0.00     0.259 S 
HETATM   45  O8  UNL     1      69.117  32.652  66.505  1.00  0.00    -0.201 OA
HETATM   46  O9  UNL     1      67.722  33.766  64.925  1.00  0.00    -0.201 OA
BRANCH  44  47
HETATM   47  N6  UNL     1      67.691  34.549  67.498  1.00  0.00    -0.324 N 
ATOM     48  H62 UNL     1      67.584  34.021  68.364  1.00  0.00     0.169 HD
ATOM     49  H61 UNL     1      67.303  35.471  67.301  1.00  0.00     0.169 HD
ENDBRANCH  44  47
ENDBRANCH  35  44
ENDBRANCH  29  30
ENDBRANCH  28  29
ENDBRANCH  27  28
ENDBRANCH   1  27
TORSDOF 18
ENDMDL
MODEL 4
REMARK VINA RESULT: -5.874932290      1.675      3.850
REMARK  18 active torsions:
REMARK  status: ('A' for Active; 'I' for Inactive)
REMARK    1  A    between atoms: N1_1  and  N2_4 
REMARK    2  A    between atoms: N2_4  and  C1_6 
REMARK    3  A    between atoms: N5_13  and  C4_14 
REMARK    4  A    between atoms: C4_14  and  C5_15 
REMARK    5  A    between atoms: C4_14  and  C6_18 
REMARK    6  A    between atoms: C5_15  and  O1_16 
REMARK    7  A    between atoms: C6_18  and  S1_19 
REMARK    8  A    between atoms: S1_19  and  S2_20 
REMARK    9  A    between atoms: S2_20  and  C7_21 
REMARK   10  A    between atoms: C9_23  and  S3_24 
REMARK   11  A    between atoms: C11_29  and  S4_30 
REMARK   12  A    between atoms: C12_34  and  S5_35 
REMARK   13  A    between atoms: S5_35  and  N6_36 
REMARK   14  A    between atoms: N7_42  and  C14_43 
REMARK   15  A    between atoms: C14_43  and  O10_44 
REMARK   16  A    between atoms: O10_44  and  C15_45 
REMARK   17  A    between atoms: C15_45  and  C16_47 
REMARK   18  A    between atoms: C16_47  and  O12_48 
ROOT
HETATM    1  C4  UNL     1      63.991  32.677  66.024  1.00  0.00     0.126 C 
ENDROOT
BRANCH   1   2
HETATM    2  N5  UNL     1      63.088  33.512  66.776  1.00  0.00    -0.318 N 
HETATM    3  C3  UNL     1      62.975  34.859  66.687  1.00  0.00     0.186 A 
HETATM    4  N4  UNL     1      62.058  35.327  67.520  1.00  0.00    -0.335 N 
HETATM    5  C2  UNL     1      61.554  34.273  68.173  1.00  0.00     0.168 A 
ATOM      6  H4  UNL     1      61.788  36.303  67.641  1.00  0.00     0.168 HD
HETATM    7  N3  UNL     1      60.654  33.938  69.111  1.00  0.00    -0.171 N 
HETATM    8  C13 UNL     1      62.203  33.130  67.704  1.00  0.00     0.179 A 
HETATM    9  C1  UNL     1      60.702  32.606  69.263  1.00  0.00     0.707 A 
ATOM     10  H3  UNL     1      60.043  34.580  69.617  1.00  0.00     0.186 HD
HETATM   11  N7  UNL     1      61.633  32.104  68.418  1.00  0.00    -0.117 N 
BRANCH   9  12
HETATM   12  N2  UNL     1      60.005  31.894  70.110  1.00  0.00    -0.138 N 
ATOM     13  H2  UNL     1      60.405  31.070  70.557  1.00  0.00     0.205 HD
BRANCH  12  14
HETATM   14  N1  UNL     1      58.698  32.297  70.382  1.00  0.00    -0.331 N 
ATOM     15  H12 UNL     1      58.413  32.498  71.340  1.00  0.00     0.177 HD
ATOM     16  H11 UNL     1      58.052  32.380  69.597  1.00  0.00     0.177 HD
ENDBRANCH  12  14
ENDBRANCH   9  12
BRANCH  11  17
HETATM   17  C14 UNL     1      62.006  30.730  68.187  1.00  0.00     0.264 C 
BRANCH  17  18
HETATM   18  O10 UNL     1      61.207  29.741  68.675  1.00  0.00    -0.271 OA
BRANCH  18  19
HETATM   19  C15 UNL     1      60.434  28.789  68.152  1.00  0.00     0.288 C 
HETATM   20  O11 UNL     1      60.952  27.865  67.494  1.00  0.00    -0.262 OA
BRANCH  19  21
HETATM   21  C16 UNL     1      58.943  28.724  68.288  1.00  0.00     0.275 C 
BRANCH  21  22
HETATM   22  O12 UNL     1      58.383  29.881  68.770  1.00  0.00    -0.391 OA
ATOM     23  H12 UNL     1      57.719  30.250  68.199  1.00  0.00     0.210 HD
ENDBRANCH  21  22
ENDBRANCH  19  21
ENDBRANCH  18  19
ENDBRANCH  17  18
ENDBRANCH  11  17
ENDBRANCH   1   2
BRANCH   1  24
HETATM   24  C5  UNL     1      63.332  31.499  65.395  1.00  0.00     0.190 C 
BRANCH  24  25
HETATM   25  O1  UNL     1      63.317  31.602  63.991  1.00  0.00    -0.399 OA
ATOM     26  H1  UNL     1      62.463  31.387  63.634  1.00  0.00     0.209 HD
ENDBRANCH  24  25
ENDBRANCH   1  24
BRANCH   1  27
HETATM   27  C6  UNL     1      65.205  32.354  66.819  1.00  0.00     0.114 C 
BRANCH  27  28
HETATM   28  S1  UNL     1      66.333  31.183  66.142  1.00  0.00    -0.090 SA
BRANCH  28  29
HETATM   29  S2  UNL     1      68.281  31.796  65.708  1.00  0.00    -0.056 SA
BRANCH  29  30
HETATM   30  C7  UNL     1      68.278  33.334  64.751  1.00  0.00     0.038 A 
HETATM   31  C8  UNL     1      68.059  33.199  63.364  1.00  0.00     0.047 A 
HETATM   32  C9  UNL     1      68.043  34.305  62.555  1.00  0.00     0.083 A 
HETATM   33  C10 UNL     1      68.246  35.513  63.160  1.00  0.00     0.054 A 
HETATM   34  C11 UNL     1      68.467  35.674  64.535  1.00  0.00     0.106 A 
HETATM   35  C12 UNL     1      68.484  34.536  65.351  1.00  0.00     0.121 A 
BRANCH  32  36
HETATM   36  S3  UNL     1      67.776  34.175  60.819  1.00  0.00     0.137 S 
HETATM   37  O2  UNL     1      68.116  35.464  60.166  1.00  0.00    -0.591 OA
HETATM   38  O3  UNL     1      66.348  33.786  60.539  1.00  0.00    -0.591 OA
HETATM   39  O4  UNL     1      68.808  32.977  60.209  1.00  0.00    -0.591 OA
ENDBRANCH  32  36
BRANCH  34  40
HETATM   40  S4  UNL     1      68.678  37.254  65.215  1.00  0.00     0.139 S 
HETATM   41  O5  UNL     1      67.959  38.223  64.245  1.00  0.00    -0.591 OA
HETATM   42  O6  UNL     1      67.926  37.451  66.510  1.00  0.00    -0.591 OA
HETATM   43  O7  UNL     1      70.244  37.790  65.258  1.00  0.00    -0.591 OA
ENDBRANCH  34  40
BRANCH  35  44
HETATM   44  S5  UNL     1      68.868  34.717  67.032  1.00  0.00     0.259 S 
HETATM   45  O8  UNL     1      69.347  33.384  67.530  1.00  0.00    -0.201 OA
HETATM   46  O9  UNL     1      67.748  35.113  67.908  1.00  0.00    -0.201 OA
BRANCH  44  47
HETATM   47  N6  UNL     1      70.257  35.767  67.191  1.00  0.00    -0.324 N 
ATOM     48  H62 UNL     1      71.022  35.822  66.518  1.00  0.00     0.169 HD
ATOM     49  H61 UNL     1      70.171  36.304  68.053  1.00  0.00     0.169 HD
ENDBRANCH  44  47
ENDBRANCH  35  44
ENDBRANCH  29  30
ENDBRANCH  28  29
ENDBRANCH  27  28
ENDBRANCH   1  27
TORSDOF 18
ENDMDL
MODEL 5
REMARK VINA RESULT: -5.864605715      6.376      9.487
REMARK  18 active torsions:
REMARK  status: ('A' for Active; 'I' for Inactive)
REMARK    1  A    between atoms: N1_1  and  N2_4 
REMARK    2  A    between atoms: N2_4  and  C1_6 
REMARK    3  A    between atoms: N5_13  and  C4_14 
REMARK    4  A    between atoms: C4_14  and  C5_15 
REMARK    5  A    between atoms: C4_14  and  C6_18 
REMARK    6  A    between atoms: C5_15  and  O1_16 
REMARK    7  A    between atoms: C6_18  and  S1_19 
REMARK    8  A    between atoms: S1_19  and  S2_20 
REMARK    9  A    between atoms: S2_20  and  C7_21 
REMARK   10  A    between atoms: C9_23  and  S3_24 
REMARK   11  A    between atoms: C11_29  and  S4_30 
REMARK   12  A    between atoms: C12_34  and  S5_35 
REMARK   13  A    between atoms: S5_35  and  N6_36 
REMARK   14  A    between atoms: N7_42  and  C14_43 
REMARK   15  A    between atoms: C14_43  and  O10_44 
REMARK   16  A    between atoms: O10_44  and  C15_45 
REMARK   17  A    between atoms: C15_45  and  C16_47 
REMARK   18  A    between atoms: C16_47  and  O12_48 
ROOT
HETATM    1  C4  UNL     1      71.213  35.536  70.895  1.00  0.00     0.126 C 
ENDROOT
BRANCH   1   2
HETATM    2  N5  UNL     1      70.410  36.663  70.489  1.00  0.00    -0.318 N 
HETATM    3  C3  UNL     1      69.876  36.871  69.261  1.00  0.00     0.186 A 
HETATM    4  N4  UNL     1      69.198  38.006  69.211  1.00  0.00    -0.335 N 
HETATM    5  C2  UNL     1      69.284  38.563  70.424  1.00  0.00     0.168 A 
ATOM      6  H4  UNL     1      68.706  38.385  68.401  1.00  0.00     0.168 HD
HETATM    7  N3  UNL     1      68.896  39.640  71.127  1.00  0.00    -0.171 N 
HETATM    8  C13 UNL     1      70.047  37.717  71.229  1.00  0.00     0.179 A 
HETATM    9  C1  UNL     1      69.389  39.514  72.369  1.00  0.00     0.707 A 
ATOM     10  H3  UNL     1      68.330  40.414  70.780  1.00  0.00     0.186 HD
HETATM   11  N7  UNL     1      70.085  38.356  72.445  1.00  0.00    -0.117 N 
BRANCH   9  12
HETATM   12  N2  UNL     1      69.265  40.373  73.346  1.00  0.00    -0.138 N 
ATOM     13  H2  UNL     1      68.778  40.125  74.206  1.00  0.00     0.205 HD
BRANCH  12  14
HETATM   14  N1  UNL     1      69.821  41.641  73.175  1.00  0.00    -0.331 N 
ATOM     15  H12 UNL     1      70.360  41.854  72.335  1.00  0.00     0.177 HD
ATOM     16  H11 UNL     1      69.670  42.331  73.910  1.00  0.00     0.177 HD
ENDBRANCH  12  14
ENDBRANCH   9  12
BRANCH  11  17
HETATM   17  C14 UNL     1      70.751  37.768  73.582  1.00  0.00     0.264 C 
BRANCH  17  18
HETATM   18  O10 UNL     1      71.718  38.483  74.219  1.00  0.00    -0.271 OA
BRANCH  18  19
HETATM   19  C15 UNL     1      72.813  39.151  73.854  1.00  0.00     0.288 C 
HETATM   20  O11 UNL     1      73.548  38.690  72.958  1.00  0.00    -0.262 OA
BRANCH  19  21
HETATM   21  C16 UNL     1      73.260  40.454  74.444  1.00  0.00     0.275 C 
BRANCH  21  22
HETATM   22  O12 UNL     1      72.259  41.389  74.537  1.00  0.00    -0.391 OA
ATOM     23  H12 UNL     1      71.851  41.427  75.394  1.00  0.00     0.210 HD
ENDBRANCH  21  22
ENDBRANCH  19  21
ENDBRANCH  18  19
ENDBRANCH  17  18
ENDBRANCH  11  17
ENDBRANCH   1   2
BRANCH   1  24
HETATM   24  C5  UNL     1      72.678  35.797  70.840  1.00  0.00     0.190 C 
BRANCH  24  25
HETATM   25  O1  UNL     1      73.245  35.843  72.129  1.00  0.00    -0.399 OA
ATOM     26  H1  UNL     1      73.484  34.977  72.436  1.00  0.00     0.209 HD
ENDBRANCH  24  25
ENDBRANCH   1  24
BRANCH   1  27
HETATM   27  C6  UNL     1      70.780  34.296  70.200  1.00  0.00     0.114 C 
BRANCH  27  28
HETATM   28  S1  UNL     1      71.742  33.754  68.828  1.00  0.00    -0.090 SA
BRANCH  28  29
HETATM   29  S2  UNL     1      71.001  34.051  66.898  1.00  0.00    -0.056 SA
BRANCH  29  30
HETATM   30  C7  UNL     1      69.222  33.723  66.830  1.00  0.00     0.038 A 
HETATM   31  C8  UNL     1      68.806  32.462  67.309  1.00  0.00     0.047 A 
HETATM   32  C9  UNL     1      67.479  32.120  67.295  1.00  0.00     0.083 A 
HETATM   33  C10 UNL     1      66.609  33.050  66.802  1.00  0.00     0.054 A 
HETATM   34  C11 UNL     1      66.995  34.308  66.319  1.00  0.00     0.106 A 
HETATM   35  C12 UNL     1      68.355  34.646  66.337  1.00  0.00     0.121 A 
BRANCH  32  36
HETATM   36  S3  UNL     1      66.924  30.554  67.882  1.00  0.00     0.137 S 
HETATM   37  O2  UNL     1      65.953  30.754  68.986  1.00  0.00    -0.591 OA
HETATM   38  O3  UNL     1      68.095  29.722  68.333  1.00  0.00    -0.591 OA
HETATM   39  O4  UNL     1      66.134  29.759  66.611  1.00  0.00    -0.591 OA
ENDBRANCH  32  36
BRANCH  34  40
HETATM   40  S4  UNL     1      65.810  35.436  65.748  1.00  0.00     0.139 S 
HETATM   41  O5  UNL     1      64.464  34.672  65.775  1.00  0.00    -0.591 OA
HETATM   42  O6  UNL     1      65.568  36.582  66.701  1.00  0.00    -0.591 OA
HETATM   43  O7  UNL     1      65.996  35.900  64.170  1.00  0.00    -0.591 OA
ENDBRANCH  34  40
BRANCH  35  44
HETATM   44  S5  UNL     1      68.851  36.153  65.639  1.00  0.00     0.259 S 
HETATM   45  O8  UNL     1      70.314  36.324  65.930  1.00  0.00    -0.201 OA
HETATM   46  O9  UNL     1      68.177  37.357  66.162  1.00  0.00    -0.201 OA
BRANCH  44  47
HETATM   47  N6  UNL     1      68.765  36.031  63.897  1.00  0.00    -0.324 N 
ATOM     48  H62 UNL     1      68.068  35.489  63.387  1.00  0.00     0.169 HD
ATOM     49  H61 UNL     1      69.516  36.585  63.486  1.00  0.00     0.169 HD
ENDBRANCH  44  47
ENDBRANCH  35  44
ENDBRANCH  29  30
ENDBRANCH  28  29
ENDBRANCH  27  28
ENDBRANCH   1  27
TORSDOF 18
ENDMDL
