MODEL 1
REMARK VINA RESULT: -5.439566895      0.000      0.000
REMARK  21 active torsions:
REMARK  status: ('A' for Active; 'I' for Inactive)
REMARK    1  A    between atoms: C2_2  and  O1_3 
REMARK    2  A    between atoms: O1_3  and  C3_4 
REMARK    3  A    between atoms: C3_4  and  C4_6 
REMARK    4  A    between atoms: C4_6  and  C5_7 
REMARK    5  A    between atoms: C6_8  and  O3_9 
REMARK    6  A    between atoms: C9_13  and  C10_14 
REMARK    7  A    between atoms: C10_14  and  O4_15 
REMARK    8  A    between atoms: C10_14  and  O5_17 
REMARK    9  A    between atoms: C12_19  and  O6_20 
REMARK   10  A    between atoms: C13_22  and  O7_23 
REMARK   11  A    between atoms: C14_25  and  C15_26 
REMARK       I    between atoms: C15_26  and  N1_28 
REMARK   12  A    between atoms: N1_28  and  C16_30 
REMARK   13  A    between atoms: C16_30  and  C17_31 
REMARK   14  A    between atoms: C16_30  and  C18_36 
REMARK   15  A    between atoms: C17_31  and  N2_32 
REMARK   16  A    between atoms: C22_43  and  O12_44 
REMARK   17  A    between atoms: C22_43  and  C23_46 
REMARK   18  A    between atoms: C23_46  and  O14_48 
REMARK   19  A    between atoms: O14_48  and  C24_49 
REMARK   20  A    between atoms: C24_49  and  C25_50 
REMARK   21  A    between atoms: C25_50  and  O16_52 
ROOT
HETATM    1  C5  UNL     1      63.377  32.483  66.879  1.00  0.00     0.019 A 
HETATM    2  C6  UNL     1      63.651  33.844  66.702  1.00  0.00     0.089 A 
HETATM    3  C7  UNL     1      64.872  34.189  66.145  1.00  0.00     0.054 A 
HETATM    4  C8  UNL     1      65.839  33.293  65.754  1.00  0.00     0.012 A 
HETATM    5  C9  UNL     1      65.555  31.939  65.924  1.00  0.00     0.066 A 
HETATM    6  C12 UNL     1      64.302  31.590  66.497  1.00  0.00     0.090 A 
HETATM    7  C13 UNL     1      67.192  33.745  65.274  1.00  0.00     0.107 C 
HETATM    8  C14 UNL     1      68.200  33.392  66.277  1.00  0.00     0.128 C 
HETATM    9  C19 UNL     1      69.379  34.340  66.499  1.00  0.00     0.071 C 
HETATM   10  C20 UNL     1      70.715  33.605  66.431  1.00  0.00     0.019 C 
HETATM   11  C21 UNL     1      69.438  35.467  65.585  1.00  0.00     0.176 C 
HETATM   12  O11 UNL     1      70.528  35.853  65.127  1.00  0.00    -0.294 OA
HETATM   13  C22 UNL     1      68.174  36.105  65.240  1.00  0.00     0.213 C 
HETATM   14  C27 UNL     1      67.236  35.103  64.675  1.00  0.00     0.085 C 
HETATM   15  C28 UNL     1      65.890  35.843  64.605  1.00  0.00     0.096 C 
HETATM   16  C29 UNL     1      65.145  35.619  65.870  1.00  0.00     0.163 C 
HETATM   17  O17 UNL     1      64.764  36.478  66.657  1.00  0.00    -0.292 OA
ENDROOT
BRANCH   8  18
HETATM   18  C15 UNL     1      67.753  33.059  67.658  1.00  0.00     0.226 C 
HETATM   19  O8  UNL     1      67.153  33.777  68.457  1.00  0.00    -0.273 OA
HETATM   20  N1  UNL     1      68.028  31.739  68.203  1.00  0.00    -0.344 N 
ATOM     21  H1  UNL     1      68.519  31.067  67.613  1.00  0.00     0.163 HD
BRANCH  20  22
HETATM   22  C16 UNL     1      67.648  31.330  69.516  1.00  0.00     0.211 C 
BRANCH  22  23
HETATM   23  C17 UNL     1      66.184  30.865  69.443  1.00  0.00     0.265 C 
BRANCH  23  24
HETATM   24  N2  UNL     1      66.099  29.509  68.971  1.00  0.00    -0.077 N 
ATOM     25  H23 UNL     1      65.149  29.145  69.042  1.00  0.00     0.274 HD
ATOM     26  H22 UNL     1      66.211  29.454  67.959  1.00  0.00     0.274 HD
ATOM     27  H21 UNL     1      66.769  28.911  69.457  1.00  0.00     0.274 HD
ENDBRANCH  23  24
ENDBRANCH  22  23
BRANCH  22  28
HETATM   28  C18 UNL     1      68.476  30.266  70.093  1.00  0.00     0.198 C 
HETATM   29  O9  UNL     1      69.361  29.698  69.371  1.00  0.00    -0.646 OA
HETATM   30  O10 UNL     1      68.332  29.855  71.396  1.00  0.00    -0.646 OA
ENDBRANCH  22  28
ENDBRANCH  20  22
ENDBRANCH   8  18
BRANCH   7  31
HETATM   31  O7  UNL     1      67.351  32.933  64.104  1.00  0.00    -0.383 OA
ATOM     32  H7  UNL     1      68.010  33.426  63.629  1.00  0.00     0.211 HD
ENDBRANCH   7  31
BRANCH   5  33
HETATM   33  C10 UNL     1      66.355  30.831  65.528  1.00  0.00     0.191 C 
BRANCH  33  34
HETATM   34  O4  UNL     1      66.245  30.473  64.279  1.00  0.00    -0.340 OA
ATOM     35  H4  UNL     1      65.647  29.755  64.109  1.00  0.00     0.220 HD
ENDBRANCH  33  34
BRANCH  33  36
HETATM   36  O5  UNL     1      67.232  30.028  66.136  1.00  0.00    -0.335 OA
HETATM   37  C11 UNL     1      68.342  29.420  65.515  1.00  0.00     0.212 C 
ENDBRANCH  33  36
ENDBRANCH   5  33
BRANCH  13  38
HETATM   38  O12 UNL     1      67.601  36.890  66.236  1.00  0.00    -0.372 OA
ATOM     39  H12 UNL     1      66.833  36.525  66.659  1.00  0.00     0.211 HD
ENDBRANCH  13  38
BRANCH  13  40
HETATM   40  C23 UNL     1      68.502  37.078  64.126  1.00  0.00     0.302 C 
HETATM   41  O13 UNL     1      68.289  38.296  64.281  1.00  0.00    -0.261 OA
BRANCH  40  42
HETATM   42  O14 UNL     1      69.031  36.560  62.984  1.00  0.00    -0.309 OA
BRANCH  42  43
HETATM   43  C24 UNL     1      68.272  36.362  61.833  1.00  0.00     0.289 C 
BRANCH  43  44
HETATM   44  C25 UNL     1      68.145  34.891  61.632  1.00  0.00     0.282 C 
HETATM   45  O15 UNL     1      69.151  34.127  61.823  1.00  0.00    -0.263 OA
BRANCH  44  46
HETATM   46  O16 UNL     1      66.974  34.263  61.238  1.00  0.00    -0.325 OA
HETATM   47  C26 UNL     1      67.035  33.088  60.425  1.00  0.00     0.213 C 
ENDBRANCH  44  46
ENDBRANCH  43  44
ENDBRANCH  42  43
ENDBRANCH  40  42
ENDBRANCH  13  40
BRANCH   2  48
HETATM   48  O3  UNL     1      62.723  34.759  67.079  1.00  0.00    -0.359 OA
ATOM     49  H3  UNL     1      62.177  35.163  66.416  1.00  0.00     0.217 HD
ENDBRANCH   2  48
BRANCH   6  50
HETATM   50  O6  UNL     1      63.980  30.233  66.690  1.00  0.00    -0.359 OA
ATOM     51  H6  UNL     1      64.531  29.600  66.246  1.00  0.00     0.217 HD
ENDBRANCH   6  50
BRANCH   1  52
HETATM   52  C4  UNL     1      62.078  32.170  67.501  1.00  0.00     0.155 C 
BRANCH  52  53
HETATM   53  C3  UNL     1      62.051  32.402  68.968  1.00  0.00     0.263 C 
HETATM   54  O2  UNL     1      62.710  31.658  69.719  1.00  0.00    -0.265 OA
BRANCH  53  55
HETATM   55  O1  UNL     1      61.307  33.423  69.511  1.00  0.00    -0.322 OA
BRANCH  55  56
HETATM   56  C2  UNL     1      60.009  33.757  69.116  1.00  0.00     0.174 C 
HETATM   57  C1  UNL     1      58.975  32.725  69.477  1.00  0.00     0.034 C 
ENDBRANCH  55  56
ENDBRANCH  53  55
ENDBRANCH  52  53
ENDBRANCH   1  52
TORSDOF 21
ENDMDL
MODEL 2
REMARK VINA RESULT: -5.427383230      3.754      6.267
REMARK  21 active torsions:
REMARK  status: ('A' for Active; 'I' for Inactive)
REMARK    1  A    between atoms: C2_2  and  O1_3 
REMARK    2  A    between atoms: O1_3  and  C3_4 
REMARK    3  A    between atoms: C3_4  and  C4_6 
REMARK    4  A    between atoms: C4_6  and  C5_7 
REMARK    5  A    between atoms: C6_8  and  O3_9 
REMARK    6  A    between atoms: C9_13  and  C10_14 
REMARK    7  A    between atoms: C10_14  and  O4_15 
REMARK    8  A    between atoms: C10_14  and  O5_17 
REMARK    9  A    between atoms: C12_19  and  O6_20 
REMARK   10  A    between atoms: C13_22  and  O7_23 
REMARK   11  A    between atoms: C14_25  and  C15_26 
REMARK       I    between atoms: C15_26  and  N1_28 
REMARK   12  A    between atoms: N1_28  and  C16_30 
REMARK   13  A    between atoms: C16_30  and  C17_31 
REMARK   14  A    between atoms: C16_30  and  C18_36 
REMARK   15  A    between atoms: C17_31  and  N2_32 
REMARK   16  A    between atoms: C22_43  and  O12_44 
REMARK   17  A    between atoms: C22_43  and  C23_46 
REMARK   18  A    between atoms: C23_46  and  O14_48 
REMARK   19  A    between atoms: O14_48  and  C24_49 
REMARK   20  A    between atoms: C24_49  and  C25_50 
REMARK   21  A    between atoms: C25_50  and  O16_52 
ROOT
HETATM    1  C5  UNL     1      68.067  36.160  64.328  1.00  0.00     0.019 A 
HETATM    2  C6  UNL     1      69.043  37.042  64.803  1.00  0.00     0.089 A 
HETATM    3  C7  UNL     1      70.359  36.608  64.808  1.00  0.00     0.054 A 
HETATM    4  C8  UNL     1      70.780  35.370  64.382  1.00  0.00     0.012 A 
HETATM    5  C9  UNL     1      69.804  34.500  63.901  1.00  0.00     0.066 A 
HETATM    6  C12 UNL     1      68.455  34.949  63.900  1.00  0.00     0.090 A 
HETATM    7  C13 UNL     1      72.208  34.922  64.535  1.00  0.00     0.107 C 
HETATM    8  C14 UNL     1      72.275  33.868  65.552  1.00  0.00     0.128 C 
HETATM    9  C19 UNL     1      73.499  33.806  66.466  1.00  0.00     0.071 C 
HETATM   10  C20 UNL     1      74.114  32.409  66.491  1.00  0.00     0.019 C 
HETATM   11  C21 UNL     1      74.552  34.755  66.144  1.00  0.00     0.176 C 
HETATM   12  O11 UNL     1      75.746  34.420  66.214  1.00  0.00    -0.294 OA
HETATM   13  C22 UNL     1      74.135  36.092  65.742  1.00  0.00     0.213 C 
HETATM   14  C27 UNL     1      73.218  36.010  64.577  1.00  0.00     0.085 C 
HETATM   15  C28 UNL     1      72.664  37.436  64.431  1.00  0.00     0.096 C 
HETATM   16  C29 UNL     1      71.416  37.558  65.226  1.00  0.00     0.163 C 
HETATM   17  O17 UNL     1      71.209  38.339  66.148  1.00  0.00    -0.292 OA
ENDROOT
BRANCH   8  18
HETATM   18  C15 UNL     1      71.130  33.702  66.489  1.00  0.00     0.226 C 
HETATM   19  O8  UNL     1      70.319  32.779  66.543  1.00  0.00    -0.273 OA
HETATM   20  N1  UNL     1      70.871  34.723  67.493  1.00  0.00    -0.344 N 
ATOM     21  H1  UNL     1      71.493  35.529  67.531  1.00  0.00     0.163 HD
BRANCH  20  22
HETATM   22  C16 UNL     1      69.794  34.657  68.428  1.00  0.00     0.211 C 
BRANCH  22  23
HETATM   23  C17 UNL     1      70.374  34.139  69.755  1.00  0.00     0.265 C 
BRANCH  23  24
HETATM   24  N2  UNL     1      70.050  35.026  70.838  1.00  0.00    -0.077 N 
ATOM     25  H23 UNL     1      69.120  35.431  70.728  1.00  0.00     0.274 HD
ATOM     26  H22 UNL     1      69.896  34.518  71.709  1.00  0.00     0.274 HD
ATOM     27  H21 UNL     1      70.764  35.747  70.945  1.00  0.00     0.274 HD
ENDBRANCH  23  24
ENDBRANCH  22  23
BRANCH  22  28
HETATM   28  C18 UNL     1      69.100  35.929  68.656  1.00  0.00     0.198 C 
HETATM   29  O9  UNL     1      67.846  35.928  68.882  1.00  0.00    -0.646 OA
HETATM   30  O10 UNL     1      69.761  37.133  68.637  1.00  0.00    -0.646 OA
ENDBRANCH  22  28
ENDBRANCH  20  22
ENDBRANCH   8  18
BRANCH   7  31
HETATM   31  O7  UNL     1      72.462  34.373  63.236  1.00  0.00    -0.383 OA
ATOM     32  H7  UNL     1      72.869  33.546  63.465  1.00  0.00     0.211 HD
ENDBRANCH   7  31
BRANCH   5  33
HETATM   33  C10 UNL     1      69.998  33.207  63.338  1.00  0.00     0.191 C 
BRANCH  33  34
HETATM   34  O4  UNL     1      69.510  32.214  64.027  1.00  0.00    -0.340 OA
ATOM     35  H4  UNL     1      69.169  31.489  63.516  1.00  0.00     0.220 HD
ENDBRANCH  33  34
BRANCH  33  36
HETATM   36  O5  UNL     1      70.577  32.729  62.234  1.00  0.00    -0.335 OA
HETATM   37  C11 UNL     1      70.135  32.967  60.917  1.00  0.00     0.212 C 
ENDBRANCH  33  36
ENDBRANCH   5  33
BRANCH  13  38
HETATM   38  O12 UNL     1      73.653  36.908  66.760  1.00  0.00    -0.372 OA
ATOM     39  H12 UNL     1      73.117  37.641  66.483  1.00  0.00     0.211 HD
ENDBRANCH  13  38
BRANCH  13  40
HETATM   40  C23 UNL     1      75.396  36.781  65.261  1.00  0.00     0.302 C 
HETATM   41  O13 UNL     1      75.890  37.711  65.929  1.00  0.00    -0.261 OA
BRANCH  40  42
HETATM   42  O14 UNL     1      75.943  36.336  64.097  1.00  0.00    -0.309 OA
BRANCH  42  43
HETATM   43  C24 UNL     1      76.207  37.186  63.025  1.00  0.00     0.289 C 
BRANCH  43  44
HETATM   44  C25 UNL     1      75.843  36.454  61.778  1.00  0.00     0.282 C 
HETATM   45  O15 UNL     1      74.961  35.530  61.809  1.00  0.00    -0.263 OA
BRANCH  44  46
HETATM   46  O16 UNL     1      76.413  36.706  60.540  1.00  0.00    -0.325 OA
HETATM   47  C26 UNL     1      76.459  35.673  59.553  1.00  0.00     0.213 C 
ENDBRANCH  44  46
ENDBRANCH  43  44
ENDBRANCH  42  43
ENDBRANCH  40  42
ENDBRANCH  13  40
BRANCH   2  48
HETATM   48  O3  UNL     1      68.667  38.272  65.236  1.00  0.00    -0.359 OA
ATOM     49  H3  UNL     1      68.526  38.412  66.165  1.00  0.00     0.217 HD
ENDBRANCH   2  48
BRANCH   6  50
HETATM   50  O6  UNL     1      67.438  34.097  63.426  1.00  0.00    -0.359 OA
ATOM     51  H6  UNL     1      66.905  34.431  62.715  1.00  0.00     0.217 HD
ENDBRANCH   6  50
BRANCH   1  52
HETATM   52  C4  UNL     1      66.682  36.659  64.370  1.00  0.00     0.155 C 
BRANCH  52  53
HETATM   53  C3  UNL     1      65.861  36.044  65.446  1.00  0.00     0.263 C 
HETATM   54  O2  UNL     1      65.730  36.639  66.533  1.00  0.00    -0.265 OA
BRANCH  53  55
HETATM   55  O1  UNL     1      65.248  34.827  65.263  1.00  0.00    -0.322 OA
BRANCH  55  56
HETATM   56  C2  UNL     1      65.198  33.812  66.222  1.00  0.00     0.174 C 
HETATM   57  C1  UNL     1      66.549  33.312  66.657  1.00  0.00     0.034 C 
ENDBRANCH  55  56
ENDBRANCH  53  55
ENDBRANCH  52  53
ENDBRANCH   1  52
TORSDOF 21
ENDMDL
MODEL 3
REMARK VINA RESULT: -5.414121880      3.002      6.007
REMARK  21 active torsions:
REMARK  status: ('A' for Active; 'I' for Inactive)
REMARK    1  A    between atoms: C2_2  and  O1_3 
REMARK    2  A    between atoms: O1_3  and  C3_4 
REMARK    3  A    between atoms: C3_4  and  C4_6 
REMARK    4  A    between atoms: C4_6  and  C5_7 
REMARK    5  A    between atoms: C6_8  and  O3_9 
REMARK    6  A    between atoms: C9_13  and  C10_14 
REMARK    7  A    between atoms: C10_14  and  O4_15 
REMARK    8  A    between atoms: C10_14  and  O5_17 
REMARK    9  A    between atoms: C12_19  and  O6_20 
REMARK   10  A    between atoms: C13_22  and  O7_23 
REMARK   11  A    between atoms: C14_25  and  C15_26 
REMARK       I    between atoms: C15_26  and  N1_28 
REMARK   12  A    between atoms: N1_28  and  C16_30 
REMARK   13  A    between atoms: C16_30  and  C17_31 
REMARK   14  A    between atoms: C16_30  and  C18_36 
REMARK   15  A    between atoms: C17_31  and  N2_32 
REMARK   16  A    between atoms: C22_43  and  O12_44 
REMARK   17  A    between atoms: C22_43  and  C23_46 
REMARK   18  A    between atoms: C23_46  and  O14_48 
REMARK   19  A    between atoms: O14_48  and  C24_49 
REMARK   20  A    between atoms: C24_49  and  C25_50 
REMARK   21  A    between atoms: C25_50  and  O16_52 
ROOT
HETATM    1  C5  UNL     1      65.438  31.450  66.994  1.00  0.00     0.019 A 
HETATM    2  C6  UNL     1      66.499  31.382  67.903  1.00  0.00     0.089 A 
HETATM    3  C7  UNL     1      67.310  32.497  68.036  1.00  0.00     0.054 A 
HETATM    4  C8  UNL     1      67.152  33.671  67.336  1.00  0.00     0.012 A 
HETATM    5  C9  UNL     1      66.088  33.736  66.439  1.00  0.00     0.066 A 
HETATM    6  C12 UNL     1      65.260  32.588  66.306  1.00  0.00     0.090 A 
HETATM    7  C13 UNL     1      68.147  34.795  67.438  1.00  0.00     0.107 C 
HETATM    8  C14 UNL     1      68.879  34.906  66.173  1.00  0.00     0.128 C 
HETATM    9  C19 UNL     1      70.356  35.301  66.212  1.00  0.00     0.071 C 
HETATM   10  C20 UNL     1      70.654  36.464  65.270  1.00  0.00     0.019 C 
HETATM   11  C21 UNL     1      70.863  35.647  67.528  1.00  0.00     0.176 C 
HETATM   12  O11 UNL     1      71.654  36.594  67.671  1.00  0.00    -0.294 OA
HETATM   13  C22 UNL     1      70.399  34.838  68.648  1.00  0.00     0.213 C 
HETATM   14  C27 UNL     1      68.916  34.854  68.707  1.00  0.00     0.085 C 
HETATM   15  C28 UNL     1      68.567  33.776  69.746  1.00  0.00     0.096 C 
HETATM   16  C29 UNL     1      68.385  32.475  69.055  1.00  0.00     0.163 C 
HETATM   17  O17 UNL     1      69.020  31.445  69.253  1.00  0.00    -0.292 OA
ENDROOT
BRANCH   8  18
HETATM   18  C15 UNL     1      68.847  33.760  65.223  1.00  0.00     0.226 C 
HETATM   19  O8  UNL     1      69.212  32.602  65.416  1.00  0.00    -0.273 OA
HETATM   20  N1  UNL     1      68.337  33.960  63.876  1.00  0.00    -0.344 N 
ATOM     21  H1  UNL     1      68.005  34.889  63.619  1.00  0.00     0.163 HD
BRANCH  20  22
HETATM   22  C16 UNL     1      68.275  32.927  62.893  1.00  0.00     0.211 C 
BRANCH  22  23
HETATM   23  C17 UNL     1      67.176  31.945  63.333  1.00  0.00     0.265 C 
BRANCH  23  24
HETATM   24  N2  UNL     1      66.479  31.409  62.194  1.00  0.00    -0.077 N 
ATOM     25  H23 UNL     1      67.045  31.464  61.347  1.00  0.00     0.274 HD
ATOM     26  H22 UNL     1      66.386  30.395  62.252  1.00  0.00     0.274 HD
ATOM     27  H21 UNL     1      65.574  31.864  62.073  1.00  0.00     0.274 HD
ENDBRANCH  23  24
ENDBRANCH  22  23
BRANCH  22  28
HETATM   28  C18 UNL     1      68.003  33.392  61.528  1.00  0.00     0.198 C 
HETATM   29  O9  UNL     1      68.623  32.861  60.549  1.00  0.00    -0.646 OA
HETATM   30  O10 UNL     1      67.094  34.388  61.265  1.00  0.00    -0.646 OA
ENDBRANCH  22  28
ENDBRANCH  20  22
ENDBRANCH   8  18
BRANCH   7  31
HETATM   31  O7  UNL     1      67.273  35.919  67.605  1.00  0.00    -0.383 OA
ATOM     32  H7  UNL     1      67.097  36.148  66.700  1.00  0.00     0.211 HD
ENDBRANCH   7  31
BRANCH   5  33
HETATM   33  C10 UNL     1      65.676  34.857  65.665  1.00  0.00     0.191 C 
BRANCH  33  34
HETATM   34  O4  UNL     1      64.707  35.567  66.172  1.00  0.00    -0.340 OA
ATOM     35  H4  UNL     1      64.520  36.384  65.726  1.00  0.00     0.220 HD
ENDBRANCH  33  34
BRANCH  33  36
HETATM   36  O5  UNL     1      66.045  35.394  64.499  1.00  0.00    -0.335 OA
HETATM   37  C11 UNL     1      66.469  36.725  64.317  1.00  0.00     0.212 C 
ENDBRANCH  33  36
ENDBRANCH   5  33
BRANCH  13  38
HETATM   38  O12 UNL     1      70.935  33.557  68.733  1.00  0.00    -0.372 OA
ATOM     39  H12 UNL     1      71.373  33.345  69.549  1.00  0.00     0.211 HD
ENDBRANCH  13  38
BRANCH  13  40
HETATM   40  C23 UNL     1      70.897  35.546  69.892  1.00  0.00     0.302 C 
HETATM   41  O13 UNL     1      72.059  35.348  70.297  1.00  0.00    -0.261 OA
BRANCH  40  42
HETATM   42  O14 UNL     1      70.029  36.387  70.518  1.00  0.00    -0.309 OA
BRANCH  42  43
HETATM   43  C24 UNL     1      70.346  37.716  70.792  1.00  0.00     0.289 C 
BRANCH  43  44
HETATM   44  C25 UNL     1      69.191  38.547  70.349  1.00  0.00     0.282 C 
HETATM   45  O15 UNL     1      68.606  38.297  69.242  1.00  0.00    -0.263 OA
BRANCH  44  46
HETATM   46  O16 UNL     1      68.683  39.614  71.075  1.00  0.00    -0.325 OA
HETATM   47  C26 UNL     1      69.247  39.941  72.348  1.00  0.00     0.213 C 
ENDBRANCH  44  46
ENDBRANCH  43  44
ENDBRANCH  42  43
ENDBRANCH  40  42
ENDBRANCH  13  40
BRANCH   2  48
HETATM   48  O3  UNL     1      66.690  30.239  68.610  1.00  0.00    -0.359 OA
ATOM     49  H3  UNL     1      66.916  29.441  68.146  1.00  0.00     0.217 HD
ENDBRANCH   2  48
BRANCH   6  50
HETATM   50  O6  UNL     1      64.177  32.612  65.406  1.00  0.00    -0.359 OA
ATOM     51  H6  UNL     1      63.544  33.311  65.524  1.00  0.00     0.217 HD
ENDBRANCH   6  50
BRANCH   1  52
HETATM   52  C4  UNL     1      64.624  30.229  66.870  1.00  0.00     0.155 C 
BRANCH  52  53
HETATM   53  C3  UNL     1      63.375  30.264  67.676  1.00  0.00     0.263 C 
HETATM   54  O2  UNL     1      63.242  29.478  68.634  1.00  0.00    -0.265 OA
BRANCH  53  55
HETATM   55  O1  UNL     1      62.364  31.146  67.379  1.00  0.00    -0.322 OA
BRANCH  55  56
HETATM   56  C2  UNL     1      61.759  32.001  68.304  1.00  0.00     0.174 C 
HETATM   57  C1  UNL     1      61.823  33.455  67.926  1.00  0.00     0.034 C 
ENDBRANCH  55  56
ENDBRANCH  53  55
ENDBRANCH  52  53
ENDBRANCH   1  52
TORSDOF 21
ENDMDL
MODEL 4
REMARK VINA RESULT: -5.398407339      3.330      7.427
REMARK  21 active torsions:
REMARK  status: ('A' for Active; 'I' for Inactive)
REMARK    1  A    between atoms: C2_2  and  O1_3 
REMARK    2  A    between atoms: O1_3  and  C3_4 
REMARK    3  A    between atoms: C3_4  and  C4_6 
REMARK    4  A    between atoms: C4_6  and  C5_7 
REMARK    5  A    between atoms: C6_8  and  O3_9 
REMARK    6  A    between atoms: C9_13  and  C10_14 
REMARK    7  A    between atoms: C10_14  and  O4_15 
REMARK    8  A    between atoms: C10_14  and  O5_17 
REMARK    9  A    between atoms: C12_19  and  O6_20 
REMARK   10  A    between atoms: C13_22  and  O7_23 
REMARK   11  A    between atoms: C14_25  and  C15_26 
REMARK       I    between atoms: C15_26  and  N1_28 
REMARK   12  A    between atoms: N1_28  and  C16_30 
REMARK   13  A    between atoms: C16_30  and  C17_31 
REMARK   14  A    between atoms: C16_30  and  C18_36 
REMARK   15  A    between atoms: C17_31  and  N2_32 
REMARK   16  A    between atoms: C22_43  and  O12_44 
REMARK   17  A    between atoms: C22_43  and  C23_46 
REMARK   18  A    between atoms: C23_46  and  O14_48 
REMARK   19  A    between atoms: O14_48  and  C24_49 
REMARK   20  A    between atoms: C24_49  and  C25_50 
REMARK   21  A    between atoms: C25_50  and  O16_52 
ROOT
HETATM    1  C5  UNL     1      68.910  35.219  63.046  1.00  0.00     0.019 A 
HETATM    2  C6  UNL     1      68.699  36.135  64.082  1.00  0.00     0.089 A 
HETATM    3  C7  UNL     1      69.149  35.794  65.348  1.00  0.00     0.054 A 
HETATM    4  C8  UNL     1      69.789  34.619  65.664  1.00  0.00     0.012 A 
HETATM    5  C9  UNL     1      70.005  33.715  64.625  1.00  0.00     0.066 A 
HETATM    6  C12 UNL     1      69.539  34.068  63.330  1.00  0.00     0.090 A 
HETATM    7  C13 UNL     1      70.137  34.262  67.084  1.00  0.00     0.107 C 
HETATM    8  C14 UNL     1      69.286  33.153  67.523  1.00  0.00     0.128 C 
HETATM    9  C19 UNL     1      68.818  33.117  68.979  1.00  0.00     0.071 C 
HETATM   10  C20 UNL     1      69.107  31.768  69.632  1.00  0.00     0.019 C 
HETATM   11  C21 UNL     1      69.378  34.156  69.827  1.00  0.00     0.176 C 
HETATM   12  O11 UNL     1      69.720  33.902  70.994  1.00  0.00    -0.294 OA
HETATM   13  C22 UNL     1      69.513  35.484  69.242  1.00  0.00     0.213 C 
HETATM   14  C27 UNL     1      70.328  35.413  68.003  1.00  0.00     0.085 C 
HETATM   15  C28 UNL     1      70.170  36.804  67.367  1.00  0.00     0.096 C 
HETATM   16  C29 UNL     1      69.012  36.787  66.439  1.00  0.00     0.163 C 
HETATM   17  O17 UNL     1      68.010  37.490  66.505  1.00  0.00    -0.292 OA
ENDROOT
BRANCH   8  18
HETATM   18  C15 UNL     1      68.050  32.847  66.751  1.00  0.00     0.226 C 
HETATM   19  O8  UNL     1      67.838  31.895  66.001  1.00  0.00    -0.273 OA
HETATM   20  N1  UNL     1      66.908  33.744  66.840  1.00  0.00    -0.344 N 
ATOM     21  H1  UNL     1      66.985  34.563  67.442  1.00  0.00     0.163 HD
BRANCH  20  22
HETATM   22  C16 UNL     1      65.686  33.541  66.131  1.00  0.00     0.211 C 
BRANCH  22  23
HETATM   23  C17 UNL     1      64.823  32.589  66.976  1.00  0.00     0.265 C 
BRANCH  23  24
HETATM   24  N2  UNL     1      63.757  32.028  66.190  1.00  0.00    -0.077 N 
ATOM     25  H23 UNL     1      62.852  32.421  66.449  1.00  0.00     0.274 HD
ATOM     26  H22 UNL     1      63.794  32.348  65.222  1.00  0.00     0.274 HD
ATOM     27  H21 UNL     1      63.757  31.010  66.250  1.00  0.00     0.274 HD
ENDBRANCH  23  24
ENDBRANCH  22  23
BRANCH  22  28
HETATM   28  C18 UNL     1      64.932  34.766  65.843  1.00  0.00     0.198 C 
HETATM   29  O9  UNL     1      65.411  35.620  65.027  1.00  0.00    -0.646 OA
HETATM   30  O10 UNL     1      63.716  35.027  66.425  1.00  0.00    -0.646 OA
ENDBRANCH  22  28
ENDBRANCH  20  22
ENDBRANCH   8  18
BRANCH   7  31
HETATM   31  O7  UNL     1      71.491  33.818  66.930  1.00  0.00    -0.383 OA
ATOM     32  H7  UNL     1      71.809  33.895  67.821  1.00  0.00     0.211 HD
ENDBRANCH   7  31
BRANCH   5  33
HETATM   33  C10 UNL     1      70.707  32.478  64.686  1.00  0.00     0.191 C 
BRANCH  33  34
HETATM   34  O4  UNL     1      69.999  31.416  64.422  1.00  0.00    -0.340 OA
ATOM     35  H4  UNL     1      69.255  31.265  64.994  1.00  0.00     0.220 HD
ENDBRANCH  33  34
BRANCH  33  36
HETATM   36  O5  UNL     1      71.961  32.110  64.956  1.00  0.00    -0.335 OA
HETATM   37  C11 UNL     1      73.051  32.234  64.071  1.00  0.00     0.212 C 
ENDBRANCH  33  36
ENDBRANCH   5  33
BRANCH  13  38
HETATM   38  O12 UNL     1      68.330  36.197  69.078  1.00  0.00    -0.372 OA
ATOM     39  H12 UNL     1      68.425  37.136  68.967  1.00  0.00     0.211 HD
ENDBRANCH  13  38
BRANCH  13  40
HETATM   40  C23 UNL     1      70.311  36.289  70.247  1.00  0.00     0.302 C 
HETATM   41  O13 UNL     1      71.533  36.081  70.381  1.00  0.00    -0.261 OA
BRANCH  40  42
HETATM   42  O14 UNL     1      69.638  37.226  70.969  1.00  0.00    -0.309 OA
BRANCH  42  43
HETATM   43  C24 UNL     1      69.708  38.586  70.675  1.00  0.00     0.289 C 
BRANCH  43  44
HETATM   44  C25 UNL     1      69.312  39.327  71.906  1.00  0.00     0.282 C 
HETATM   45  O15 UNL     1      68.465  40.281  71.838  1.00  0.00    -0.263 OA
BRANCH  44  46
HETATM   46  O16 UNL     1      69.815  39.052  73.168  1.00  0.00    -0.325 OA
HETATM   47  C26 UNL     1      71.163  39.401  73.490  1.00  0.00     0.213 C 
ENDBRANCH  44  46
ENDBRANCH  43  44
ENDBRANCH  42  43
ENDBRANCH  40  42
ENDBRANCH  13  40
BRANCH   2  48
HETATM   48  O3  UNL     1      68.067  37.305  63.810  1.00  0.00    -0.359 OA
ATOM     49  H3  UNL     1      67.315  37.557  64.333  1.00  0.00     0.217 HD
ENDBRANCH   2  48
BRANCH   6  50
HETATM   50  O6  UNL     1      69.734  33.180  62.255  1.00  0.00    -0.359 OA
ATOM     51  H6  UNL     1      69.176  32.412  62.234  1.00  0.00     0.217 HD
ENDBRANCH   6  50
BRANCH   1  52
HETATM   52  C4  UNL     1      68.388  35.616  61.727  1.00  0.00     0.155 C 
BRANCH  52  53
HETATM   53  C3  UNL     1      67.722  34.507  60.994  1.00  0.00     0.263 C 
HETATM   54  O2  UNL     1      66.812  33.863  61.552  1.00  0.00    -0.265 OA
BRANCH  53  55
HETATM   55  O1  UNL     1      68.095  34.179  59.712  1.00  0.00    -0.322 OA
BRANCH  55  56
HETATM   56  C2  UNL     1      69.343  34.463  59.152  1.00  0.00     0.174 C 
HETATM   57  C1  UNL     1      69.321  35.582  58.146  1.00  0.00     0.034 C 
ENDBRANCH  55  56
ENDBRANCH  53  55
ENDBRANCH  52  53
ENDBRANCH   1  52
TORSDOF 21
ENDMDL
MODEL 5
REMARK VINA RESULT: -5.221148608      4.316      7.798
REMARK  21 active torsions:
REMARK  status: ('A' for Active; 'I' for Inactive)
REMARK    1  A    between atoms: C2_2  and  O1_3 
REMARK    2  A    between atoms: O1_3  and  C3_4 
REMARK    3  A    between atoms: C3_4  and  C4_6 
REMARK    4  A    between atoms: C4_6  and  C5_7 
REMARK    5  A    between atoms: C6_8  and  O3_9 
REMARK    6  A    between atoms: C9_13  and  C10_14 
REMARK    7  A    between atoms: C10_14  and  O4_15 
REMARK    8  A    between atoms: C10_14  and  O5_17 
REMARK    9  A    between atoms: C12_19  and  O6_20 
REMARK   10  A    between atoms: C13_22  and  O7_23 
REMARK   11  A    between atoms: C14_25  and  C15_26 
REMARK       I    between atoms: C15_26  and  N1_28 
REMARK   12  A    between atoms: N1_28  and  C16_30 
REMARK   13  A    between atoms: C16_30  and  C17_31 
REMARK   14  A    between atoms: C16_30  and  C18_36 
REMARK   15  A    between atoms: C17_31  and  N2_32 
REMARK   16  A    between atoms: C22_43  and  O12_44 
REMARK   17  A    between atoms: C22_43  and  C23_46 
REMARK   18  A    between atoms: C23_46  and  O14_48 
REMARK   19  A    between atoms: O14_48  and  C24_49 
REMARK   20  A    between atoms: C24_49  and  C25_50 
REMARK   21  A    between atoms: C25_50  and  O16_52 
ROOT
HETATM    1  C5  UNL     1      69.439  36.157  64.657  1.00  0.00     0.019 A 
HETATM    2  C6  UNL     1      68.889  36.768  65.789  1.00  0.00     0.089 A 
HETATM    3  C7  UNL     1      69.561  36.625  66.992  1.00  0.00     0.054 A 
HETATM    4  C8  UNL     1      70.731  35.922  67.159  1.00  0.00     0.012 A 
HETATM    5  C9  UNL     1      71.279  35.324  66.026  1.00  0.00     0.066 A 
HETATM    6  C12 UNL     1      70.585  35.472  64.795  1.00  0.00     0.090 A 
HETATM    7  C13 UNL     1      71.337  35.702  68.519  1.00  0.00     0.107 C 
HETATM    8  C14 UNL     1      71.205  34.288  68.882  1.00  0.00     0.128 C 
HETATM    9  C19 UNL     1      70.951  33.926  70.346  1.00  0.00     0.071 C 
HETATM   10  C20 UNL     1      71.938  32.874  70.846  1.00  0.00     0.019 C 
HETATM   11  C21 UNL     1      70.984  35.048  71.269  1.00  0.00     0.176 C 
HETATM   12  O11 UNL     1      71.510  34.929  72.388  1.00  0.00    -0.294 OA
HETATM   13  C22 UNL     1      70.379  36.294  70.815  1.00  0.00     0.213 C 
HETATM   14  C27 UNL     1      71.003  36.728  69.540  1.00  0.00     0.085 C 
HETATM   15  C28 UNL     1      70.110  37.882  69.056  1.00  0.00     0.096 C 
HETATM   16  C29 UNL     1      69.041  37.336  68.183  1.00  0.00     0.163 C 
HETATM   17  O17 UNL     1      67.831  37.424  68.364  1.00  0.00    -0.292 OA
ENDROOT
BRANCH   8  18
HETATM   18  C15 UNL     1      70.228  33.445  68.138  1.00  0.00     0.226 C 
HETATM   19  O8  UNL     1      69.009  33.587  68.055  1.00  0.00    -0.273 OA
HETATM   20  N1  UNL     1      70.700  32.287  67.396  1.00  0.00    -0.344 N 
ATOM     21  H1  UNL     1      71.700  32.087  67.400  1.00  0.00     0.163 HD
BRANCH  20  22
HETATM   22  C16 UNL     1      69.842  31.415  66.661  1.00  0.00     0.211 C 
BRANCH  22  23
HETATM   23  C17 UNL     1      69.128  32.268  65.598  1.00  0.00     0.265 C 
BRANCH  23  24
HETATM   24  N2  UNL     1      69.767  32.134  64.318  1.00  0.00    -0.077 N 
ATOM     25  H23 UNL     1      70.443  31.370  64.313  1.00  0.00     0.274 HD
ATOM     26  H22 UNL     1      69.124  31.775  63.611  1.00  0.00     0.274 HD
ATOM     27  H21 UNL     1      70.191  33.015  64.027  1.00  0.00     0.274 HD
ENDBRANCH  23  24
ENDBRANCH  22  23
BRANCH  22  28
HETATM   28  C18 UNL     1      70.519  30.287  66.014  1.00  0.00     0.198 C 
HETATM   29  O9  UNL     1      69.853  29.241  65.716  1.00  0.00    -0.646 OA
HETATM   30  O10 UNL     1      71.859  30.317  65.712  1.00  0.00    -0.646 OA
ENDBRANCH  22  28
ENDBRANCH  20  22
ENDBRANCH   8  18
BRANCH   7  31
HETATM   31  O7  UNL     1      72.710  36.021  68.261  1.00  0.00    -0.383 OA
ATOM     32  H7  UNL     1      72.673  36.970  68.227  1.00  0.00     0.211 HD
ENDBRANCH   7  31
BRANCH   5  33
HETATM   33  C10 UNL     1      72.511  34.617  65.931  1.00  0.00     0.191 C 
BRANCH  33  34
HETATM   34  O4  UNL     1      72.424  33.391  65.496  1.00  0.00    -0.340 OA
ATOM     35  H4  UNL     1      73.137  33.103  64.937  1.00  0.00     0.220 HD
ENDBRANCH  33  34
BRANCH  33  36
HETATM   36  O5  UNL     1      73.791  34.900  66.183  1.00  0.00    -0.335 OA
HETATM   37  C11 UNL     1      74.647  35.621  65.326  1.00  0.00     0.212 C 
ENDBRANCH  33  36
ENDBRANCH   5  33
BRANCH  13  38
HETATM   38  O12 UNL     1      68.988  36.312  70.777  1.00  0.00    -0.372 OA
ATOM     39  H12 UNL     1      68.577  37.115  71.074  1.00  0.00     0.211 HD
ENDBRANCH  13  38
BRANCH  13  40
HETATM   40  C23 UNL     1      70.748  37.327  71.860  1.00  0.00     0.302 C 
HETATM   41  O13 UNL     1      71.941  37.652  72.018  1.00  0.00    -0.261 OA
BRANCH  40  42
HETATM   42  O14 UNL     1      69.733  37.864  72.589  1.00  0.00    -0.309 OA
BRANCH  42  43
HETATM   43  C24 UNL     1      69.892  39.021  73.350  1.00  0.00     0.289 C 
BRANCH  43  44
HETATM   44  C25 UNL     1      69.521  40.176  72.483  1.00  0.00     0.282 C 
HETATM   45  O15 UNL     1      68.612  40.047  71.596  1.00  0.00    -0.263 OA
BRANCH  44  46
HETATM   46  O16 UNL     1      70.111  41.428  72.569  1.00  0.00    -0.325 OA
HETATM   47  C26 UNL     1      71.490  41.541  72.932  1.00  0.00     0.213 C 
ENDBRANCH  44  46
ENDBRANCH  43  44
ENDBRANCH  42  43
ENDBRANCH  40  42
ENDBRANCH  13  40
BRANCH   2  48
HETATM   48  O3  UNL     1      67.733  37.467  65.665  1.00  0.00    -0.359 OA
ATOM     49  H3  UNL     1      66.918  37.066  65.942  1.00  0.00     0.217 HD
ENDBRANCH   2  48
BRANCH   6  50
HETATM   50  O6  UNL     1      71.104  34.879  63.628  1.00  0.00    -0.359 OA
ATOM     51  H6  UNL     1      71.896  34.365  63.731  1.00  0.00     0.217 HD
ENDBRANCH   6  50
BRANCH   1  52
HETATM   52  C4  UNL     1      68.673  36.315  63.409  1.00  0.00     0.155 C 
BRANCH  52  53
HETATM   53  C3  UNL     1      67.729  35.198  63.146  1.00  0.00     0.263 C 
HETATM   54  O2  UNL     1      66.559  35.272  63.569  1.00  0.00    -0.265 OA
BRANCH  53  55
HETATM   55  O1  UNL     1      68.127  34.083  62.447  1.00  0.00    -0.322 OA
BRANCH  55  56
HETATM   56  C2  UNL     1      68.670  34.105  61.160  1.00  0.00     0.174 C 
HETATM   57  C1  UNL     1      67.862  34.895  60.168  1.00  0.00     0.034 C 
ENDBRANCH  55  56
ENDBRANCH  53  55
ENDBRANCH  52  53
ENDBRANCH   1  52
TORSDOF 21
ENDMDL
