MODEL 1
REMARK VINA RESULT: -6.760282520      0.000      0.000
REMARK  20 active torsions:
REMARK  status: ('A' for Active; 'I' for Inactive)
REMARK    1  A    between atoms: O1_2  and  C2_3 
REMARK    2  A    between atoms: C2_3  and  C3_5 
REMARK    3  A    between atoms: C3_5  and  N1_6 
REMARK    4  A    between atoms: N1_6  and  C4_8 
REMARK    5  A    between atoms: C4_8  and  C5_9 
REMARK    6  A    between atoms: C4_8  and  C28_56 
REMARK    7  A    between atoms: C5_9  and  O3_10 
REMARK    8  A    between atoms: C5_9  and  N2_12 
REMARK    9  A    between atoms: N3_15  and  C8_16 
REMARK   10  A    between atoms: C8_16  and  C9_17 
REMARK   11  A    between atoms: C9_17  and  N4_18 
REMARK   12  A    between atoms: N4_18  and  C10_19 
REMARK   13  A    between atoms: C13_26  and  N7_27 
REMARK   14  A    between atoms: N7_27  and  C14_29 
REMARK   15  A    between atoms: C15_30  and  O4_31 
REMARK   16  A    between atoms: C16_34  and  O5_35 
REMARK   17  A    between atoms: C18_38  and  N9_39 
REMARK   18  A    between atoms: C19_44  and  C20_45 
REMARK   19  A    between atoms: C28_56  and  O6_57 
REMARK   20  A    between atoms: C28_56  and  O7_59 
ROOT
HETATM    1  C10 UNL     1      67.597  33.600  62.118  1.00  0.00     0.207 A 
HETATM    2  N5  UNL     1      67.482  32.885  60.947  1.00  0.00    -0.325 N 
ATOM      3  H5  UNL     1      67.194  31.908  60.995  1.00  0.00     0.169 HD
HETATM    4  C11 UNL     1      67.731  33.415  59.766  1.00  0.00     0.182 A 
HETATM    5  N6  UNL     1      68.110  34.692  59.664  1.00  0.00    -0.360 N 
ATOM      6  H6  UNL     1      68.305  35.096  58.747  1.00  0.00     0.166 HD
HETATM    7  C12 UNL     1      68.235  35.444  60.773  1.00  0.00     0.123 A 
HETATM    8  C13 UNL     1      67.988  34.956  62.035  1.00  0.00     0.103 A 
ENDROOT
BRANCH   8   9
HETATM    9  N7  UNL     1      67.995  35.779  63.189  1.00  0.00    -0.374 N 
ATOM     10  H7  UNL     1      67.115  36.229  63.443  1.00  0.00     0.160 HD
BRANCH   9  11
HETATM   11  C14 UNL     1      69.088  36.027  64.005  1.00  0.00     0.176 C 
HETATM   12  C15 UNL     1      69.428  37.223  64.786  1.00  0.00     0.385 C 
HETATM   13  N8  UNL     1      70.175  36.304  65.642  1.00  0.00     0.158 N 
HETATM   14  C16 UNL     1      70.399  36.585  66.992  1.00  0.00     0.398 C 
HETATM   15  C25 UNL     1      69.088  35.364  65.385  1.00  0.00     0.284 C 
HETATM   16  C17 UNL     1      69.586  35.612  67.800  1.00  0.00     0.340 A 
HETATM   17  C18 UNL     1      68.576  35.937  68.744  1.00  0.00     0.402 A 
HETATM   18  N13 UNL     1      68.199  36.168  67.467  1.00  0.00     0.132 N 
HETATM   19  C24 UNL     1      67.911  35.567  66.267  1.00  0.00     0.314 C 
BRANCH  12  20
HETATM   20  O4  UNL     1      68.521  38.021  65.383  1.00  0.00    -0.366 OA
ATOM     21  H4  UNL     1      68.156  37.861  66.245  1.00  0.00     0.212 HD
ENDBRANCH  12  20
BRANCH  14  22
HETATM   22  O5  UNL     1      70.087  37.904  67.356  1.00  0.00    -0.366 OA
ATOM     23  H5  UNL     1      70.236  38.094  68.276  1.00  0.00     0.212 HD
ENDBRANCH  14  22
BRANCH  17  24
HETATM   24  N9  UNL     1      68.920  37.095  69.588  1.00  0.00    -0.181 N 
HETATM   25  N10 UNL     1      68.546  38.349  69.558  1.00  0.00    -0.222 N 
HETATM   26  N11 UNL     1      69.195  38.991  70.551  1.00  0.00    -0.271 N 
ATOM     27  H10 UNL     1      67.884  38.765  68.904  1.00  0.00     0.210 HD
HETATM   28  C19 UNL     1      69.979  38.142  71.198  1.00  0.00     0.120 A 
ATOM     29  H11 UNL     1      69.097  39.983  70.771  1.00  0.00     0.190 HD
HETATM   30  N12 UNL     1      69.779  36.953  70.565  1.00  0.00    -0.267 N 
ATOM     31  H12 UNL     1      70.235  36.076  70.816  1.00  0.00     0.190 HD
BRANCH  28  32
HETATM   32  C20 UNL     1      70.914  38.286  72.349  1.00  0.00     0.010 C 
HETATM   33  C21 UNL     1      71.350  39.699  72.550  1.00  0.00     0.023 C 
HETATM   34  C22 UNL     1      72.124  37.408  72.123  1.00  0.00     0.023 C 
HETATM   35  C23 UNL     1      70.243  37.759  73.610  1.00  0.00     0.023 C 
ENDBRANCH  28  32
ENDBRANCH  17  24
ENDBRANCH   9  11
ENDBRANCH   8   9
BRANCH   1  36
HETATM   36  N4  UNL     1      67.455  33.014  63.182  1.00  0.00    -0.396 NA
BRANCH  36  37
HETATM   37  C9  UNL     1      67.653  32.180  64.208  1.00  0.00     0.202 C 
BRANCH  37  38
HETATM   38  C8  UNL     1      66.456  31.368  64.703  1.00  0.00     0.121 C 
BRANCH  38  39
HETATM   39  N3  UNL     1      65.514  32.001  65.488  1.00  0.00    -0.365 N 
HETATM   40  C7  UNL     1      64.300  31.325  65.713  1.00  0.00     0.147 C 
HETATM   41  C6  UNL     1      63.086  32.260  65.464  1.00  0.00     0.145 C 
HETATM   42  N2  UNL     1      63.315  33.342  66.410  1.00  0.00    -0.357 N 
HETATM   43  C27 UNL     1      64.488  34.141  66.213  1.00  0.00     0.169 C 
HETATM   44  C26 UNL     1      65.720  33.286  66.007  1.00  0.00     0.083 C 
BRANCH  42  45
HETATM   45  C5  UNL     1      62.403  33.565  67.436  1.00  0.00     0.142 C 
BRANCH  45  46
HETATM   46  C4  UNL     1      61.505  32.601  68.089  1.00  0.00     0.211 C 
BRANCH  46  47
HETATM   47  N1  UNL     1      62.249  31.557  68.722  1.00  0.00    -0.378 N 
ATOM     48  H1  UNL     1      63.069  31.759  69.295  1.00  0.00     0.160 HD
BRANCH  47  49
HETATM   49  C3  UNL     1      61.806  30.247  68.524  1.00  0.00     0.167 C 
BRANCH  49  50
HETATM   50  C2  UNL     1      60.518  29.723  68.906  1.00  0.00     0.297 C 
HETATM   51  O2  UNL     1      59.875  28.867  68.305  1.00  0.00    -0.259 OA
BRANCH  50  52
HETATM   52  O1  UNL     1      59.905  30.235  70.094  1.00  0.00    -0.322 OA
HETATM   53  C1  UNL     1      58.701  29.708  70.563  1.00  0.00     0.213 C 
ENDBRANCH  50  52
ENDBRANCH  49  50
ENDBRANCH  47  49
ENDBRANCH  46  47
BRANCH  46  54
HETATM   54  C28 UNL     1      60.675  33.357  69.120  1.00  0.00     0.284 C 
BRANCH  54  55
HETATM   55  O6  UNL     1      59.335  33.042  69.094  1.00  0.00    -0.369 OA
ATOM     56  H6  UNL     1      58.865  33.427  68.363  1.00  0.00     0.212 HD
ENDBRANCH  54  55
BRANCH  54  57
HETATM   57  O7  UNL     1      61.163  33.149  70.420  1.00  0.00    -0.369 OA
ATOM     58  H7  UNL     1      60.788  33.770  71.033  1.00  0.00     0.212 HD
ENDBRANCH  54  57
ENDBRANCH  46  54
ENDBRANCH  45  46
BRANCH  45  59
HETATM   59  O3  UNL     1      62.270  34.770  67.934  1.00  0.00    -0.348 OA
ATOM     60  H3  UNL     1      63.076  35.081  68.330  1.00  0.00     0.219 HD
ENDBRANCH  45  59
ENDBRANCH  42  45
ENDBRANCH  38  39
ENDBRANCH  37  38
ENDBRANCH  36  37
ENDBRANCH   1  36
TORSDOF 20
ENDMDL
MODEL 2
REMARK VINA RESULT: -6.596474492      4.005     11.264
REMARK  20 active torsions:
REMARK  status: ('A' for Active; 'I' for Inactive)
REMARK    1  A    between atoms: O1_2  and  C2_3 
REMARK    2  A    between atoms: C2_3  and  C3_5 
REMARK    3  A    between atoms: C3_5  and  N1_6 
REMARK    4  A    between atoms: N1_6  and  C4_8 
REMARK    5  A    between atoms: C4_8  and  C5_9 
REMARK    6  A    between atoms: C4_8  and  C28_56 
REMARK    7  A    between atoms: C5_9  and  O3_10 
REMARK    8  A    between atoms: C5_9  and  N2_12 
REMARK    9  A    between atoms: N3_15  and  C8_16 
REMARK   10  A    between atoms: C8_16  and  C9_17 
REMARK   11  A    between atoms: C9_17  and  N4_18 
REMARK   12  A    between atoms: N4_18  and  C10_19 
REMARK   13  A    between atoms: C13_26  and  N7_27 
REMARK   14  A    between atoms: N7_27  and  C14_29 
REMARK   15  A    between atoms: C15_30  and  O4_31 
REMARK   16  A    between atoms: C16_34  and  O5_35 
REMARK   17  A    between atoms: C18_38  and  N9_39 
REMARK   18  A    between atoms: C19_44  and  C20_45 
REMARK   19  A    between atoms: C28_56  and  O6_57 
REMARK   20  A    between atoms: C28_56  and  O7_59 
ROOT
HETATM    1  C10 UNL     1      62.285  29.584  67.339  1.00  0.00     0.207 A 
HETATM    2  N5  UNL     1      62.867  28.524  66.682  1.00  0.00    -0.325 N 
ATOM      3  H5  UNL     1      63.715  28.688  66.140  1.00  0.00     0.169 HD
HETATM    4  C11 UNL     1      62.370  27.303  66.729  1.00  0.00     0.182 A 
HETATM    5  N6  UNL     1      61.261  27.050  67.430  1.00  0.00    -0.360 N 
ATOM      6  H6  UNL     1      60.879  26.104  67.458  1.00  0.00     0.166 HD
HETATM    7  C12 UNL     1      60.649  28.045  68.097  1.00  0.00     0.123 A 
HETATM    8  C13 UNL     1      61.115  29.340  68.095  1.00  0.00     0.103 A 
ENDROOT
BRANCH   8   9
HETATM    9  N7  UNL     1      60.547  30.360  68.898  1.00  0.00    -0.374 N 
ATOM     10  H7  UNL     1      59.707  30.817  68.541  1.00  0.00     0.160 HD
BRANCH   9  11
HETATM   11  C14 UNL     1      61.027  30.793  70.124  1.00  0.00     0.176 C 
HETATM   12  C15 UNL     1      60.585  31.912  70.967  1.00  0.00     0.385 C 
HETATM   13  N8  UNL     1      61.132  31.134  72.076  1.00  0.00     0.158 N 
HETATM   14  C16 UNL     1      60.638  31.271  73.376  1.00  0.00     0.398 C 
HETATM   15  C25 UNL     1      60.636  29.967  71.352  1.00  0.00     0.284 C 
HETATM   16  C17 UNL     1      59.915  29.999  73.724  1.00  0.00     0.340 A 
HETATM   17  C18 UNL     1      58.549  29.881  74.094  1.00  0.00     0.402 A 
HETATM   18  N13 UNL     1      58.718  30.173  72.786  1.00  0.00     0.132 N 
HETATM   19  C24 UNL     1      59.196  29.694  71.591  1.00  0.00     0.314 C 
BRANCH  12  20
HETATM   20  O4  UNL     1      59.305  32.319  71.074  1.00  0.00    -0.366 OA
ATOM     21  H4  UNL     1      59.041  33.225  71.183  1.00  0.00     0.212 HD
ENDBRANCH  12  20
BRANCH  14  22
HETATM   22  O5  UNL     1      59.792  32.377  73.548  1.00  0.00    -0.366 OA
ATOM     23  H5  UNL     1      59.100  32.236  74.183  1.00  0.00     0.212 HD
ENDBRANCH  14  22
BRANCH  17  24
HETATM   24  N9  UNL     1      58.095  30.955  74.995  1.00  0.00    -0.181 N 
HETATM   25  N10 UNL     1      58.625  31.489  76.066  1.00  0.00    -0.222 N 
HETATM   26  N11 UNL     1      57.764  32.422  76.523  1.00  0.00    -0.271 N 
ATOM     27  H10 UNL     1      59.524  31.245  76.479  1.00  0.00     0.210 HD
HETATM   28  C19 UNL     1      56.695  32.468  75.743  1.00  0.00     0.120 A 
ATOM     29  H11 UNL     1      57.915  33.005  77.347  1.00  0.00     0.190 HD
HETATM   30  N12 UNL     1      56.938  31.530  74.786  1.00  0.00    -0.267 N 
ATOM     31  H12 UNL     1      56.307  31.307  74.017  1.00  0.00     0.190 HD
BRANCH  28  32
HETATM   32  C20 UNL     1      55.447  33.281  75.765  1.00  0.00     0.010 C 
HETATM   33  C21 UNL     1      54.715  33.157  77.060  1.00  0.00     0.023 C 
HETATM   34  C22 UNL     1      54.548  32.848  74.629  1.00  0.00     0.023 C 
HETATM   35  C23 UNL     1      55.791  34.738  75.494  1.00  0.00     0.023 C 
ENDBRANCH  28  32
ENDBRANCH  17  24
ENDBRANCH   9  11
ENDBRANCH   8   9
BRANCH   1  36
HETATM   36  N4  UNL     1      62.740  30.706  67.163  1.00  0.00    -0.396 NA
BRANCH  36  37
HETATM   37  C9  UNL     1      62.905  31.951  66.706  1.00  0.00     0.202 C 
BRANCH  37  38
HETATM   38  C8  UNL     1      64.132  32.232  65.839  1.00  0.00     0.121 C 
BRANCH  38  39
HETATM   39  N3  UNL     1      65.046  33.168  66.279  1.00  0.00    -0.365 N 
HETATM   40  C7  UNL     1      64.714  34.525  66.108  1.00  0.00     0.147 C 
HETATM   41  C6  UNL     1      65.894  35.314  65.481  1.00  0.00     0.145 C 
HETATM   42  N2  UNL     1      66.966  35.109  66.444  1.00  0.00    -0.357 N 
HETATM   43  C27 UNL     1      67.428  33.766  66.627  1.00  0.00     0.169 C 
HETATM   44  C26 UNL     1      66.280  32.801  66.830  1.00  0.00     0.083 C 
BRANCH  42  45
HETATM   45  C5  UNL     1      67.498  36.200  67.124  1.00  0.00     0.142 C 
BRANCH  45  46
HETATM   46  C4  UNL     1      68.907  36.483  67.440  1.00  0.00     0.211 C 
BRANCH  46  47
HETATM   47  N1  UNL     1      69.408  37.549  66.629  1.00  0.00    -0.378 N 
ATOM     48  H1  UNL     1      69.627  38.463  67.026  1.00  0.00     0.160 HD
BRANCH  47  49
HETATM   49  C3  UNL     1      69.585  37.285  65.269  1.00  0.00     0.167 C 
BRANCH  49  50
HETATM   50  C2  UNL     1      68.611  37.512  64.229  1.00  0.00     0.297 C 
HETATM   51  O2  UNL     1      67.824  38.451  64.164  1.00  0.00    -0.259 OA
BRANCH  50  52
HETATM   52  O1  UNL     1      68.532  36.565  63.158  1.00  0.00    -0.322 OA
HETATM   53  C1  UNL     1      68.967  35.251  63.332  1.00  0.00     0.213 C 
ENDBRANCH  50  52
ENDBRANCH  49  50
ENDBRANCH  47  49
ENDBRANCH  46  47
BRANCH  46  54
HETATM   54  C28 UNL     1      68.989  36.860  68.914  1.00  0.00     0.284 C 
BRANCH  54  55
HETATM   55  O6  UNL     1      68.702  38.183  69.167  1.00  0.00    -0.369 OA
ATOM     56  H6  UNL     1      67.779  38.353  69.314  1.00  0.00     0.212 HD
ENDBRANCH  54  55
BRANCH  54  57
HETATM   57  O7  UNL     1      68.144  36.057  69.696  1.00  0.00    -0.369 OA
ATOM     58  H7  UNL     1      67.768  36.549  70.416  1.00  0.00     0.212 HD
ENDBRANCH  54  57
ENDBRANCH  46  54
ENDBRANCH  45  46
BRANCH  45  59
HETATM   59  O3  UNL     1      66.699  37.135  67.576  1.00  0.00    -0.348 OA
ATOM     60  H3  UNL     1      66.003  36.777  68.114  1.00  0.00     0.219 HD
ENDBRANCH  45  59
ENDBRANCH  42  45
ENDBRANCH  38  39
ENDBRANCH  37  38
ENDBRANCH  36  37
ENDBRANCH   1  36
TORSDOF 20
ENDMDL
MODEL 3
REMARK VINA RESULT: -6.540990880      1.640      2.372
REMARK  20 active torsions:
REMARK  status: ('A' for Active; 'I' for Inactive)
REMARK    1  A    between atoms: O1_2  and  C2_3 
REMARK    2  A    between atoms: C2_3  and  C3_5 
REMARK    3  A    between atoms: C3_5  and  N1_6 
REMARK    4  A    between atoms: N1_6  and  C4_8 
REMARK    5  A    between atoms: C4_8  and  C5_9 
REMARK    6  A    between atoms: C4_8  and  C28_56 
REMARK    7  A    between atoms: C5_9  and  O3_10 
REMARK    8  A    between atoms: C5_9  and  N2_12 
REMARK    9  A    between atoms: N3_15  and  C8_16 
REMARK   10  A    between atoms: C8_16  and  C9_17 
REMARK   11  A    between atoms: C9_17  and  N4_18 
REMARK   12  A    between atoms: N4_18  and  C10_19 
REMARK   13  A    between atoms: C13_26  and  N7_27 
REMARK   14  A    between atoms: N7_27  and  C14_29 
REMARK   15  A    between atoms: C15_30  and  O4_31 
REMARK   16  A    between atoms: C16_34  and  O5_35 
REMARK   17  A    between atoms: C18_38  and  N9_39 
REMARK   18  A    between atoms: C19_44  and  C20_45 
REMARK   19  A    between atoms: C28_56  and  O6_57 
REMARK   20  A    between atoms: C28_56  and  O7_59 
ROOT
HETATM    1  C10 UNL     1      67.348  33.592  62.268  1.00  0.00     0.207 A 
HETATM    2  N5  UNL     1      67.186  32.790  61.160  1.00  0.00    -0.325 N 
ATOM      3  H5  UNL     1      66.794  31.857  61.284  1.00  0.00     0.169 HD
HETATM    4  C11 UNL     1      67.518  33.184  59.946  1.00  0.00     0.182 A 
HETATM    5  N6  UNL     1      68.033  34.400  59.746  1.00  0.00    -0.360 N 
ATOM      6  H6  UNL     1      68.292  34.697  58.805  1.00  0.00     0.166 HD
HETATM    7  C12 UNL     1      68.211  35.232  60.789  1.00  0.00     0.123 A 
HETATM    8  C13 UNL     1      67.883  34.888  62.080  1.00  0.00     0.103 A 
ENDROOT
BRANCH   8   9
HETATM    9  N7  UNL     1      67.950  35.805  63.158  1.00  0.00    -0.374 N 
ATOM     10  H7  UNL     1      67.116  36.362  63.345  1.00  0.00     0.160 HD
BRANCH   9  11
HETATM   11  C14 UNL     1      69.045  36.015  63.981  1.00  0.00     0.176 C 
HETATM   12  C15 UNL     1      69.419  37.197  64.770  1.00  0.00     0.385 C 
HETATM   13  N8  UNL     1      70.130  36.250  65.626  1.00  0.00     0.158 N 
HETATM   14  C16 UNL     1      70.356  36.519  66.979  1.00  0.00     0.398 C 
HETATM   15  C25 UNL     1      69.016  35.346  65.358  1.00  0.00     0.284 C 
HETATM   16  C17 UNL     1      69.507  35.568  67.778  1.00  0.00     0.340 A 
HETATM   17  C18 UNL     1      68.502  35.921  68.717  1.00  0.00     0.402 A 
HETATM   18  N13 UNL     1      68.140  36.169  67.439  1.00  0.00     0.132 N 
HETATM   19  C24 UNL     1      67.840  35.583  66.234  1.00  0.00     0.314 C 
BRANCH  12  20
HETATM   20  O4  UNL     1      68.534  38.020  65.365  1.00  0.00    -0.366 OA
ATOM     21  H4  UNL     1      68.168  38.795  64.956  1.00  0.00     0.212 HD
ENDBRANCH  12  20
BRANCH  14  22
HETATM   22  O5  UNL     1      70.083  37.844  67.347  1.00  0.00    -0.366 OA
ATOM     23  H5  UNL     1      69.575  37.925  68.147  1.00  0.00     0.212 HD
ENDBRANCH  14  22
BRANCH  17  24
HETATM   24  N9  UNL     1      68.877  37.064  69.569  1.00  0.00    -0.181 N 
HETATM   25  N10 UNL     1      68.537  38.327  69.547  1.00  0.00    -0.222 N 
HETATM   26  N11 UNL     1      69.204  38.946  70.543  1.00  0.00    -0.271 N 
ATOM     27  H10 UNL     1      67.885  38.765  68.896  1.00  0.00     0.210 HD
HETATM   28  C19 UNL     1      69.966  38.071  71.184  1.00  0.00     0.120 A 
ATOM     29  H11 UNL     1      69.132  39.938  70.770  1.00  0.00     0.190 HD
HETATM   30  N12 UNL     1      69.734  36.892  70.543  1.00  0.00    -0.267 N 
ATOM     31  H12 UNL     1      70.167  36.002  70.788  1.00  0.00     0.190 HD
BRANCH  28  32
HETATM   32  C20 UNL     1      70.905  38.183  72.335  1.00  0.00     0.010 C 
HETATM   33  C21 UNL     1      72.149  37.383  72.128  1.00  0.00     0.023 C 
HETATM   34  C22 UNL     1      70.208  37.722  73.595  1.00  0.00     0.023 C 
HETATM   35  C23 UNL     1      71.253  39.647  72.559  1.00  0.00     0.023 C 
ENDBRANCH  28  32
ENDBRANCH  17  24
ENDBRANCH   9  11
ENDBRANCH   8   9
BRANCH   1  36
HETATM   36  N4  UNL     1      67.119  33.122  63.373  1.00  0.00    -0.396 NA
BRANCH  36  37
HETATM   37  C9  UNL     1      67.000  32.255  64.384  1.00  0.00     0.202 C 
BRANCH  37  38
HETATM   38  C8  UNL     1      65.783  31.331  64.387  1.00  0.00     0.121 C 
BRANCH  38  39
HETATM   39  N3  UNL     1      64.932  31.371  65.473  1.00  0.00    -0.365 N 
HETATM   40  C7  UNL     1      63.765  32.148  65.352  1.00  0.00     0.147 C 
HETATM   41  C6  UNL     1      63.575  33.067  66.588  1.00  0.00     0.145 C 
HETATM   42  N2  UNL     1      63.512  32.116  67.689  1.00  0.00    -0.357 N 
HETATM   43  C27 UNL     1      64.686  31.336  67.942  1.00  0.00     0.169 C 
HETATM   44  C26 UNL     1      65.228  30.712  66.674  1.00  0.00     0.083 C 
BRANCH  42  45
HETATM   45  C5  UNL     1      62.349  32.014  68.445  1.00  0.00     0.142 C 
BRANCH  45  46
HETATM   46  C4  UNL     1      62.097  31.179  69.630  1.00  0.00     0.211 C 
BRANCH  46  47
HETATM   47  N1  UNL     1      61.613  31.970  70.719  1.00  0.00    -0.378 N 
ATOM     48  H1  UNL     1      61.106  32.841  70.560  1.00  0.00     0.160 HD
BRANCH  47  49
HETATM   49  C3  UNL     1      61.864  31.499  72.010  1.00  0.00     0.167 C 
BRANCH  49  50
HETATM   50  C2  UNL     1      61.929  32.303  73.206  1.00  0.00     0.297 C 
HETATM   51  O2  UNL     1      61.147  32.262  74.150  1.00  0.00    -0.259 OA
BRANCH  50  52
HETATM   52  O1  UNL     1      62.996  33.249  73.328  1.00  0.00    -0.322 OA
HETATM   53  C1  UNL     1      63.456  33.652  74.581  1.00  0.00     0.213 C 
ENDBRANCH  50  52
ENDBRANCH  49  50
ENDBRANCH  47  49
ENDBRANCH  46  47
BRANCH  46  54
HETATM   54  C28 UNL     1      61.067  30.123  69.248  1.00  0.00     0.284 C 
BRANCH  54  55
HETATM   55  O6  UNL     1      59.768  30.580  69.267  1.00  0.00    -0.369 OA
ATOM     56  H6  UNL     1      59.595  31.214  69.952  1.00  0.00     0.212 HD
ENDBRANCH  54  55
BRANCH  54  57
HETATM   57  O7  UNL     1      61.337  29.581  67.981  1.00  0.00    -0.369 OA
ATOM     58  H7  UNL     1      61.689  28.701  68.050  1.00  0.00     0.212 HD
ENDBRANCH  54  57
ENDBRANCH  46  54
ENDBRANCH  45  46
BRANCH  45  59
HETATM   59  O3  UNL     1      61.297  32.723  68.115  1.00  0.00    -0.348 OA
ATOM     60  H3  UNL     1      60.942  32.459  67.275  1.00  0.00     0.219 HD
ENDBRANCH  45  59
ENDBRANCH  42  45
ENDBRANCH  38  39
ENDBRANCH  37  38
ENDBRANCH  36  37
ENDBRANCH   1  36
TORSDOF 20
ENDMDL
MODEL 4
REMARK VINA RESULT: -6.533584086      4.332     10.443
REMARK  20 active torsions:
REMARK  status: ('A' for Active; 'I' for Inactive)
REMARK    1  A    between atoms: O1_2  and  C2_3 
REMARK    2  A    between atoms: C2_3  and  C3_5 
REMARK    3  A    between atoms: C3_5  and  N1_6 
REMARK    4  A    between atoms: N1_6  and  C4_8 
REMARK    5  A    between atoms: C4_8  and  C5_9 
REMARK    6  A    between atoms: C4_8  and  C28_56 
REMARK    7  A    between atoms: C5_9  and  O3_10 
REMARK    8  A    between atoms: C5_9  and  N2_12 
REMARK    9  A    between atoms: N3_15  and  C8_16 
REMARK   10  A    between atoms: C8_16  and  C9_17 
REMARK   11  A    between atoms: C9_17  and  N4_18 
REMARK   12  A    between atoms: N4_18  and  C10_19 
REMARK   13  A    between atoms: C13_26  and  N7_27 
REMARK   14  A    between atoms: N7_27  and  C14_29 
REMARK   15  A    between atoms: C15_30  and  O4_31 
REMARK   16  A    between atoms: C16_34  and  O5_35 
REMARK   17  A    between atoms: C18_38  and  N9_39 
REMARK   18  A    between atoms: C19_44  and  C20_45 
REMARK   19  A    between atoms: C28_56  and  O6_57 
REMARK   20  A    between atoms: C28_56  and  O7_59 
ROOT
HETATM    1  C10 UNL     1      68.476  31.789  72.733  1.00  0.00     0.207 A 
HETATM    2  N5  UNL     1      69.070  31.224  71.626  1.00  0.00    -0.325 N 
ATOM      3  H5  UNL     1      69.806  31.741  71.146  1.00  0.00     0.169 HD
HETATM    4  C11 UNL     1      68.723  30.038  71.164  1.00  0.00     0.182 A 
HETATM    5  N6  UNL     1      67.763  29.332  71.767  1.00  0.00    -0.360 N 
ATOM      6  H6  UNL     1      67.496  28.417  71.402  1.00  0.00     0.166 HD
HETATM    7  C12 UNL     1      67.149  29.829  72.857  1.00  0.00     0.123 A 
HETATM    8  C13 UNL     1      67.464  31.056  73.394  1.00  0.00     0.103 A 
ENDROOT
BRANCH   8   9
HETATM    9  N7  UNL     1      66.910  31.524  74.611  1.00  0.00    -0.374 N 
ATOM     10  H7  UNL     1      67.338  31.187  75.475  1.00  0.00     0.160 HD
BRANCH   9  11
HETATM   11  C14 UNL     1      65.841  32.397  74.736  1.00  0.00     0.176 C 
HETATM   12  C15 UNL     1      64.945  32.942  73.708  1.00  0.00     0.385 C 
HETATM   13  N8  UNL     1      63.977  33.074  74.794  1.00  0.00     0.158 N 
HETATM   14  C16 UNL     1      62.601  33.047  74.551  1.00  0.00     0.398 C 
HETATM   15  C25 UNL     1      64.536  31.821  75.291  1.00  0.00     0.284 C 
HETATM   16  C17 UNL     1      62.063  31.766  75.129  1.00  0.00     0.340 A 
HETATM   17  C18 UNL     1      61.382  30.742  74.420  1.00  0.00     0.402 A 
HETATM   18  N13 UNL     1      62.699  30.799  74.127  1.00  0.00     0.132 N 
HETATM   19  C24 UNL     1      63.960  30.618  74.638  1.00  0.00     0.314 C 
BRANCH  12  20
HETATM   20  O4  UNL     1      64.551  32.266  72.611  1.00  0.00    -0.366 OA
ATOM     21  H4  UNL     1      64.325  32.675  71.785  1.00  0.00     0.212 HD
ENDBRANCH  12  20
BRANCH  14  22
HETATM   22  O5  UNL     1      62.262  33.150  73.194  1.00  0.00    -0.366 OA
ATOM     23  H5  UNL     1      62.980  33.434  72.639  1.00  0.00     0.212 HD
ENDBRANCH  14  22
BRANCH  17  24
HETATM   24  N9  UNL     1      60.425  31.262  73.426  1.00  0.00    -0.181 N 
HETATM   25  N10 UNL     1      59.295  31.910  73.546  1.00  0.00    -0.222 N 
HETATM   26  N11 UNL     1      58.808  32.115  72.304  1.00  0.00    -0.271 N 
ATOM     27  H10 UNL     1      58.861  32.208  74.420  1.00  0.00     0.210 HD
HETATM   28  C19 UNL     1      59.631  31.590  71.408  1.00  0.00     0.120 A 
ATOM     29  H11 UNL     1      57.938  32.602  72.088  1.00  0.00     0.190 HD
HETATM   30  N12 UNL     1      60.642  31.061  72.151  1.00  0.00    -0.267 N 
ATOM     31  H12 UNL     1      61.454  30.576  71.767  1.00  0.00     0.190 HD
BRANCH  28  32
HETATM   32  C20 UNL     1      59.605  31.507  69.921  1.00  0.00     0.010 C 
HETATM   33  C21 UNL     1      58.925  30.270  69.436  1.00  0.00     0.023 C 
HETATM   34  C22 UNL     1      61.021  31.549  69.393  1.00  0.00     0.023 C 
HETATM   35  C23 UNL     1      58.912  32.740  69.361  1.00  0.00     0.023 C 
ENDBRANCH  28  32
ENDBRANCH  17  24
ENDBRANCH   9  11
ENDBRANCH   8   9
BRANCH   1  36
HETATM   36  N4  UNL     1      68.775  32.935  73.039  1.00  0.00    -0.396 NA
BRANCH  36  37
HETATM   37  C9  UNL     1      69.010  34.248  72.963  1.00  0.00     0.202 C 
BRANCH  37  38
HETATM   38  C8  UNL     1      70.107  34.718  72.008  1.00  0.00     0.121 C 
BRANCH  38  39
HETATM   39  N3  UNL     1      69.736  35.390  70.861  1.00  0.00    -0.365 N 
HETATM   40  C7  UNL     1      68.812  34.754  70.010  1.00  0.00     0.147 C 
HETATM   41  C6  UNL     1      69.293  34.794  68.535  1.00  0.00     0.145 C 
HETATM   42  N2  UNL     1      69.413  36.222  68.275  1.00  0.00    -0.357 N 
HETATM   43  C27 UNL     1      70.389  36.942  69.038  1.00  0.00     0.169 C 
HETATM   44  C26 UNL     1      70.283  36.632  70.516  1.00  0.00     0.083 C 
BRANCH  42  45
HETATM   45  C5  UNL     1      68.608  36.817  67.310  1.00  0.00     0.142 C 
BRANCH  45  46
HETATM   46  C4  UNL     1      68.460  36.456  65.891  1.00  0.00     0.211 C 
BRANCH  46  47
HETATM   47  N1  UNL     1      67.084  36.253  65.557  1.00  0.00    -0.378 N 
ATOM     48  H1  UNL     1      66.535  36.979  65.096  1.00  0.00     0.160 HD
BRANCH  47  49
HETATM   49  C3  UNL     1      66.524  35.017  65.888  1.00  0.00     0.167 C 
BRANCH  49  50
HETATM   50  C2  UNL     1      65.114  34.718  65.958  1.00  0.00     0.297 C 
HETATM   51  O2  UNL     1      64.228  35.483  66.325  1.00  0.00    -0.259 OA
BRANCH  50  52
HETATM   52  O1  UNL     1      64.680  33.410  65.570  1.00  0.00    -0.322 OA
HETATM   53  C1  UNL     1      63.795  32.684  66.366  1.00  0.00     0.213 C 
ENDBRANCH  50  52
ENDBRANCH  49  50
ENDBRANCH  47  49
ENDBRANCH  46  47
BRANCH  46  54
HETATM   54  C28 UNL     1      69.043  37.590  65.056  1.00  0.00     0.284 C 
BRANCH  54  55
HETATM   55  O6  UNL     1      68.114  38.531  64.671  1.00  0.00    -0.369 OA
ATOM     56  H6  UNL     1      67.907  38.509  63.744  1.00  0.00     0.212 HD
ENDBRANCH  54  55
BRANCH  54  57
HETATM   57  O7  UNL     1      70.089  38.237  65.733  1.00  0.00    -0.369 OA
ATOM     58  H7  UNL     1      69.962  39.179  65.745  1.00  0.00     0.212 HD
ENDBRANCH  54  57
ENDBRANCH  46  54
ENDBRANCH  45  46
BRANCH  45  59
HETATM   59  O3  UNL     1      67.858  37.842  67.633  1.00  0.00    -0.348 OA
ATOM     60  H3  UNL     1      67.821  37.970  68.574  1.00  0.00     0.219 HD
ENDBRANCH  45  59
ENDBRANCH  42  45
ENDBRANCH  38  39
ENDBRANCH  37  38
ENDBRANCH  36  37
ENDBRANCH   1  36
TORSDOF 20
ENDMDL
MODEL 5
REMARK VINA RESULT: -6.517824395      3.317      9.496
REMARK  20 active torsions:
REMARK  status: ('A' for Active; 'I' for Inactive)
REMARK    1  A    between atoms: O1_2  and  C2_3 
REMARK    2  A    between atoms: C2_3  and  C3_5 
REMARK    3  A    between atoms: C3_5  and  N1_6 
REMARK    4  A    between atoms: N1_6  and  C4_8 
REMARK    5  A    between atoms: C4_8  and  C5_9 
REMARK    6  A    between atoms: C4_8  and  C28_56 
REMARK    7  A    between atoms: C5_9  and  O3_10 
REMARK    8  A    between atoms: C5_9  and  N2_12 
REMARK    9  A    between atoms: N3_15  and  C8_16 
REMARK   10  A    between atoms: C8_16  and  C9_17 
REMARK   11  A    between atoms: C9_17  and  N4_18 
REMARK   12  A    between atoms: N4_18  and  C10_19 
REMARK   13  A    between atoms: C13_26  and  N7_27 
REMARK   14  A    between atoms: N7_27  and  C14_29 
REMARK   15  A    between atoms: C15_30  and  O4_31 
REMARK   16  A    between atoms: C16_34  and  O5_35 
REMARK   17  A    between atoms: C18_38  and  N9_39 
REMARK   18  A    between atoms: C19_44  and  C20_45 
REMARK   19  A    between atoms: C28_56  and  O6_57 
REMARK   20  A    between atoms: C28_56  and  O7_59 
ROOT
HETATM    1  C10 UNL     1      62.825  29.443  64.490  1.00  0.00     0.207 A 
HETATM    2  N5  UNL     1      62.691  29.240  63.135  1.00  0.00    -0.325 N 
ATOM      3  H5  UNL     1      62.862  30.021  62.503  1.00  0.00     0.169 HD
HETATM    4  C11 UNL     1      62.349  28.073  62.624  1.00  0.00     0.182 A 
HETATM    5  N6  UNL     1      62.117  27.027  63.422  1.00  0.00    -0.360 N 
ATOM      6  H6  UNL     1      61.849  26.128  63.021  1.00  0.00     0.166 HD
HETATM    7  C12 UNL     1      62.238  27.161  64.756  1.00  0.00     0.123 A 
HETATM    8  C13 UNL     1      62.595  28.348  65.355  1.00  0.00     0.103 A 
ENDROOT
BRANCH   8   9
HETATM    9  N7  UNL     1      62.846  28.459  66.745  1.00  0.00    -0.374 N 
ATOM     10  H7  UNL     1      63.788  28.733  67.026  1.00  0.00     0.160 HD
BRANCH   9  11
HETATM   11  C14 UNL     1      61.928  28.229  67.759  1.00  0.00     0.176 C 
HETATM   12  C15 UNL     1      62.121  28.196  69.215  1.00  0.00     0.385 C 
HETATM   13  N8  UNL     1      60.709  28.564  69.288  1.00  0.00     0.158 N 
HETATM   14  C16 UNL     1      60.196  29.268  70.381  1.00  0.00     0.398 C 
HETATM   15  C25 UNL     1      60.978  29.378  68.106  1.00  0.00     0.284 C 
HETATM   16  C17 UNL     1      59.837  30.648  69.904  1.00  0.00     0.340 A 
HETATM   17  C18 UNL     1      60.356  31.873  70.400  1.00  0.00     0.402 A 
HETATM   18  N13 UNL     1      61.259  31.171  69.681  1.00  0.00     0.132 N 
HETATM   19  C24 UNL     1      61.560  30.706  68.425  1.00  0.00     0.314 C 
BRANCH  12  20
HETATM   20  O4  UNL     1      62.996  28.975  69.880  1.00  0.00    -0.366 OA
ATOM     21  H4  UNL     1      63.501  28.688  70.631  1.00  0.00     0.212 HD
ENDBRANCH  12  20
BRANCH  14  22
HETATM   22  O5  UNL     1      61.075  29.341  71.472  1.00  0.00    -0.366 OA
ATOM     23  H5  UNL     1      61.344  30.226  71.690  1.00  0.00     0.212 HD
ENDBRANCH  14  22
BRANCH  17  24
HETATM   24  N9  UNL     1      60.498  31.892  71.868  1.00  0.00    -0.181 N 
HETATM   25  N10 UNL     1      59.640  31.707  72.838  1.00  0.00    -0.222 N 
HETATM   26  N11 UNL     1      60.301  31.870  74.003  1.00  0.00    -0.271 N 
ATOM     27  H10 UNL     1      58.651  31.479  72.733  1.00  0.00     0.210 HD
HETATM   28  C19 UNL     1      61.570  32.163  73.761  1.00  0.00     0.120 A 
ATOM     29  H11 UNL     1      59.885  31.781  74.930  1.00  0.00     0.190 HD
HETATM   30  N12 UNL     1      61.660  32.167  72.402  1.00  0.00    -0.267 N 
ATOM     31  H12 UNL     1      62.513  32.357  71.877  1.00  0.00     0.190 HD
BRANCH  28  32
HETATM   32  C20 UNL     1      62.738  32.450  74.640  1.00  0.00     0.010 C 
HETATM   33  C21 UNL     1      62.337  32.665  76.061  1.00  0.00     0.023 C 
HETATM   34  C22 UNL     1      63.461  33.674  74.125  1.00  0.00     0.023 C 
HETATM   35  C23 UNL     1      63.734  31.303  74.543  1.00  0.00     0.023 C 
ENDBRANCH  28  32
ENDBRANCH  17  24
ENDBRANCH   9  11
ENDBRANCH   8   9
BRANCH   1  36
HETATM   36  N4  UNL     1      63.040  30.576  64.896  1.00  0.00    -0.396 NA
BRANCH  36  37
HETATM   37  C9  UNL     1      63.675  31.676  65.313  1.00  0.00     0.202 C 
BRANCH  37  38
HETATM   38  C8  UNL     1      64.803  31.502  66.330  1.00  0.00     0.121 C 
BRANCH  38  39
HETATM   39  N3  UNL     1      65.576  32.600  66.647  1.00  0.00    -0.365 N 
HETATM   40  C7  UNL     1      65.104  33.862  66.238  1.00  0.00     0.147 C 
HETATM   41  C6  UNL     1      66.225  34.677  65.540  1.00  0.00     0.145 C 
HETATM   42  N2  UNL     1      67.250  34.762  66.570  1.00  0.00    -0.357 N 
HETATM   43  C27 UNL     1      67.849  33.532  66.994  1.00  0.00     0.169 C 
HETATM   44  C26 UNL     1      66.806  32.479  67.305  1.00  0.00     0.083 C 
BRANCH  42  45
HETATM   45  C5  UNL     1      67.612  36.003  67.082  1.00  0.00     0.142 C 
BRANCH  45  46
HETATM   46  C4  UNL     1      68.951  36.485  67.456  1.00  0.00     0.211 C 
BRANCH  46  47
HETATM   47  N1  UNL     1      69.339  37.597  66.644  1.00  0.00    -0.378 N 
ATOM     48  H1  UNL     1      69.452  38.531  67.039  1.00  0.00     0.160 HD
BRANCH  47  49
HETATM   49  C3  UNL     1      69.556  37.351  65.287  1.00  0.00     0.167 C 
BRANCH  49  50
HETATM   50  C2  UNL     1      68.598  37.549  64.227  1.00  0.00     0.297 C 
HETATM   51  O2  UNL     1      67.828  38.497  64.113  1.00  0.00    -0.259 OA
BRANCH  50  52
HETATM   52  O1  UNL     1      68.515  36.558  63.197  1.00  0.00    -0.322 OA
HETATM   53  C1  UNL     1      69.142  35.321  63.341  1.00  0.00     0.213 C 
ENDBRANCH  50  52
ENDBRANCH  49  50
ENDBRANCH  47  49
ENDBRANCH  46  47
BRANCH  46  54
HETATM   54  C28 UNL     1      68.909  36.893  68.923  1.00  0.00     0.284 C 
BRANCH  54  55
HETATM   55  O6  UNL     1      68.601  38.221  69.122  1.00  0.00    -0.369 OA
ATOM     56  H6  UNL     1      67.853  38.359  69.691  1.00  0.00     0.212 HD
ENDBRANCH  54  55
BRANCH  54  57
HETATM   57  O7  UNL     1      68.001  36.105  69.647  1.00  0.00    -0.369 OA
ATOM     58  H7  UNL     1      67.105  36.378  69.490  1.00  0.00     0.212 HD
ENDBRANCH  54  57
ENDBRANCH  46  54
ENDBRANCH  45  46
BRANCH  45  59
HETATM   59  O3  UNL     1      66.692  36.913  67.288  1.00  0.00    -0.348 OA
ATOM     60  H3  UNL     1      66.307  36.837  68.154  1.00  0.00     0.219 HD
ENDBRANCH  45  59
ENDBRANCH  42  45
ENDBRANCH  38  39
ENDBRANCH  37  38
ENDBRANCH  36  37
ENDBRANCH   1  36
TORSDOF 20
ENDMDL
