MODEL 1
REMARK VINA RESULT: -6.314327630      0.000      0.000
REMARK  17 active torsions:
REMARK  status: ('A' for Active; 'I' for Inactive)
REMARK    1  A    between atoms: O1_2  and  C2_3 
REMARK    2  A    between atoms: C2_3  and  C3_5 
REMARK    3  A    between atoms: C4_6  and  C5_7 
REMARK    4  A    between atoms: C6_12  and  N2_13 
REMARK    5  A    between atoms: N2_13  and  N3_14 
REMARK       I    between atoms: N2_13  and  C11_26 
REMARK    6  A    between atoms: N3_14  and  C7_16 
REMARK    7  A    between atoms: C7_16  and  C8_17 
REMARK    8  A    between atoms: C7_16  and  C10_21 
REMARK    9  A    between atoms: C8_17  and  O6_19 
REMARK   10  A    between atoms: C10_21  and  O7_22 
REMARK   11  A    between atoms: C10_21  and  O8_24 
REMARK   12  A    between atoms: C11_26  and  C12_28 
REMARK   13  A    between atoms: C12_28  and  N4_30 
REMARK   14  A    between atoms: C14_31  and  S1_32 
REMARK   15  A    between atoms: C15_39  and  C16_40 
REMARK   16  A    between atoms: C18_42  and  O13_43 
REMARK   17  A    between atoms: C20_47  and  N8_48 
ROOT
HETATM    1  N2  UNL     1      67.765  33.277  62.203  1.00  0.00    -0.053 N 
HETATM    2  C11 UNL     1      67.284  32.103  62.739  1.00  0.00     0.281 C 
HETATM    3  O9  UNL     1      66.760  31.289  61.887  1.00  0.00    -0.268 OA
ENDROOT
BRANCH   1   4
HETATM    4  C6  UNL     1      68.485  34.276  62.950  1.00  0.00     0.709 A 
HETATM    5  N1  UNL     1      67.814  35.380  63.403  1.00  0.00    -0.180 N 
HETATM    6  C4  UNL     1      68.695  36.181  64.100  1.00  0.00     0.159 A 
ATOM      7  H1  UNL     1      66.825  35.578  63.250  1.00  0.00     0.184 HD
HETATM    8  C3  UNL     1      69.900  35.537  64.054  1.00  0.00     0.160 A 
HETATM    9  N10 UNL     1      69.739  34.371  63.343  1.00  0.00    -0.177 N 
HETATM   10  C21 UNL     1      70.797  33.434  63.099  1.00  0.00     0.176 C 
BRANCH   6  11
HETATM   11  C5  UNL     1      68.312  37.424  64.724  1.00  0.00     0.230 C 
HETATM   12  O3  UNL     1      68.288  37.489  66.004  1.00  0.00    -0.643 OA
HETATM   13  O4  UNL     1      67.968  38.556  64.072  1.00  0.00    -0.643 OA
ENDBRANCH   6  11
BRANCH   8  14
HETATM   14  C2  UNL     1      71.181  35.939  64.613  1.00  0.00     0.312 C 
HETATM   15  O2  UNL     1      71.440  35.643  65.822  1.00  0.00    -0.258 OA
BRANCH  14  16
HETATM   16  O1  UNL     1      72.184  36.620  63.976  1.00  0.00    -0.321 OA
HETATM   17  C1  UNL     1      73.531  36.214  63.930  1.00  0.00     0.213 C 
ENDBRANCH  14  16
ENDBRANCH   8  14
ENDBRANCH   1   4
BRANCH   1  18
HETATM   18  N3  UNL     1      67.673  33.681  60.869  1.00  0.00    -0.293 N 
ATOM     19  H3  UNL     1      66.999  34.401  60.608  1.00  0.00     0.182 HD
BRANCH  18  20
HETATM   20  C7  UNL     1      68.478  33.122  59.897  1.00  0.00     0.254 C 
BRANCH  20  21
HETATM   21  C8  UNL     1      69.452  34.117  59.314  1.00  0.00     0.287 C 
HETATM   22  O5  UNL     1      70.622  33.783  59.058  1.00  0.00    -0.263 OA
BRANCH  21  23
HETATM   23  O6  UNL     1      68.998  35.422  59.073  1.00  0.00    -0.325 OA
HETATM   24  C9  UNL     1      69.459  36.119  57.958  1.00  0.00     0.213 C 
ENDBRANCH  21  23
ENDBRANCH  20  21
BRANCH  20  25
HETATM   25  C10 UNL     1      67.681  32.487  58.775  1.00  0.00     0.287 C 
BRANCH  25  26
HETATM   26  O7  UNL     1      66.328  32.675  58.913  1.00  0.00    -0.369 OA
ATOM     27  H7  UNL     1      65.836  31.868  58.829  1.00  0.00     0.212 HD
ENDBRANCH  25  26
BRANCH  25  28
HETATM   28  O8  UNL     1      68.094  33.030  57.550  1.00  0.00    -0.369 OA
ATOM     29  H8  UNL     1      67.783  32.479  56.842  1.00  0.00     0.212 HD
ENDBRANCH  25  28
ENDBRANCH  20  25
ENDBRANCH  18  20
ENDBRANCH   1  18
BRANCH   2  30
HETATM   30  C12 UNL     1      67.274  31.638  64.102  1.00  0.00     0.179 C 
HETATM   31  C13 UNL     1      66.610  30.274  64.237  1.00  0.00     0.043 C 
BRANCH  30  32
HETATM   32  N4  UNL     1      66.580  32.504  65.031  1.00  0.00    -0.316 N 
HETATM   33  C14 UNL     1      67.076  33.180  66.151  1.00  0.00     0.237 C 
HETATM   34  N5  UNL     1      66.340  34.275  66.281  1.00  0.00    -0.275 N 
HETATM   35  N6  UNL     1      65.377  34.320  65.272  1.00  0.00    -0.107 NA
ATOM     36  H5  UNL     1      66.459  34.979  67.009  1.00  0.00     0.184 HD
HETATM   37  C15 UNL     1      65.161  32.880  64.991  1.00  0.00     0.252 C 
BRANCH  33  38
HETATM   38  S1  UNL     1      68.360  32.706  67.178  1.00  0.00     0.173 S 
HETATM   39  O10 UNL     1      68.379  33.682  68.356  1.00  0.00    -0.589 OA
HETATM   40  O11 UNL     1      68.214  31.352  67.798  1.00  0.00    -0.589 OA
HETATM   41  O12 UNL     1      69.891  32.800  66.507  1.00  0.00    -0.589 OA
ENDBRANCH  33  38
BRANCH  37  42
HETATM   42  C16 UNL     1      64.464  32.387  66.227  1.00  0.00     0.071 A 
HETATM   43  C17 UNL     1      63.288  32.944  66.701  1.00  0.00     0.085 A 
HETATM   44  C18 UNL     1      62.680  32.472  67.838  1.00  0.00     0.158 A 
HETATM   45  N7  UNL     1      63.218  31.458  68.515  1.00  0.00    -0.171 N 
HETATM   46  C20 UNL     1      64.365  30.901  68.073  1.00  0.00     0.678 A 
ATOM     47  H7  UNL     1      62.767  31.107  69.360  1.00  0.00     0.186 HD
HETATM   48  N9  UNL     1      64.970  31.359  66.952  1.00  0.00    -0.192 N 
ATOM     49  H9  UNL     1      65.835  30.916  66.643  1.00  0.00     0.184 HD
BRANCH  44  50
HETATM   50  O13 UNL     1      61.492  33.073  68.267  1.00  0.00    -0.340 OA
HETATM   51  C19 UNL     1      61.311  34.460  68.196  1.00  0.00     0.211 C 
ENDBRANCH  44  50
BRANCH  46  52
HETATM   52  N8  UNL     1      64.865  29.929  68.743  1.00  0.00    -0.234 N 
ATOM     53  H82 UNL     1      64.582  28.966  68.563  1.00  0.00     0.174 HD
ATOM     54  H81 UNL     1      65.558  30.143  69.460  1.00  0.00     0.174 HD
ENDBRANCH  46  52
ENDBRANCH  37  42
ENDBRANCH  30  32
ENDBRANCH   2  30
TORSDOF 17
ENDMDL
MODEL 2
REMARK VINA RESULT: -6.159289889      3.301      6.053
REMARK  17 active torsions:
REMARK  status: ('A' for Active; 'I' for Inactive)
REMARK    1  A    between atoms: O1_2  and  C2_3 
REMARK    2  A    between atoms: C2_3  and  C3_5 
REMARK    3  A    between atoms: C4_6  and  C5_7 
REMARK    4  A    between atoms: C6_12  and  N2_13 
REMARK    5  A    between atoms: N2_13  and  N3_14 
REMARK       I    between atoms: N2_13  and  C11_26 
REMARK    6  A    between atoms: N3_14  and  C7_16 
REMARK    7  A    between atoms: C7_16  and  C8_17 
REMARK    8  A    between atoms: C7_16  and  C10_21 
REMARK    9  A    between atoms: C8_17  and  O6_19 
REMARK   10  A    between atoms: C10_21  and  O7_22 
REMARK   11  A    between atoms: C10_21  and  O8_24 
REMARK   12  A    between atoms: C11_26  and  C12_28 
REMARK   13  A    between atoms: C12_28  and  N4_30 
REMARK   14  A    between atoms: C14_31  and  S1_32 
REMARK   15  A    between atoms: C15_39  and  C16_40 
REMARK   16  A    between atoms: C18_42  and  O13_43 
REMARK   17  A    between atoms: C20_47  and  N8_48 
ROOT
HETATM    1  N2  UNL     1      67.649  32.136  62.730  1.00  0.00    -0.053 N 
HETATM    2  C11 UNL     1      67.902  32.468  64.043  1.00  0.00     0.281 C 
HETATM    3  O9  UNL     1      67.153  31.874  64.909  1.00  0.00    -0.268 OA
ENDROOT
BRANCH   1   4
HETATM    4  C6  UNL     1      68.433  32.594  61.612  1.00  0.00     0.709 A 
HETATM    5  N1  UNL     1      68.097  33.773  61.003  1.00  0.00    -0.180 N 
HETATM    6  C4  UNL     1      68.990  34.015  59.979  1.00  0.00     0.159 A 
ATOM      7  H1  UNL     1      67.315  34.375  61.263  1.00  0.00     0.184 HD
HETATM    8  C3  UNL     1      69.861  32.961  59.988  1.00  0.00     0.160 A 
HETATM    9  N10 UNL     1      69.494  32.107  61.001  1.00  0.00    -0.177 N 
HETATM   10  C21 UNL     1      70.191  30.892  61.313  1.00  0.00     0.176 C 
BRANCH   6  11
HETATM   11  C5  UNL     1      68.932  35.184  59.136  1.00  0.00     0.230 C 
HETATM   12  O3  UNL     1      68.217  36.179  59.512  1.00  0.00    -0.643 OA
HETATM   13  O4  UNL     1      69.576  35.334  57.957  1.00  0.00    -0.643 OA
ENDBRANCH   6  11
BRANCH   8  14
HETATM   14  C2  UNL     1      70.993  32.694  59.116  1.00  0.00     0.312 C 
HETATM   15  O2  UNL     1      72.133  33.161  59.433  1.00  0.00    -0.258 OA
BRANCH  14  16
HETATM   16  O1  UNL     1      70.988  31.974  57.951  1.00  0.00    -0.321 OA
HETATM   17  C1  UNL     1      69.831  31.549  57.271  1.00  0.00     0.213 C 
ENDBRANCH  14  16
ENDBRANCH   8  14
ENDBRANCH   1   4
BRANCH   1  18
HETATM   18  N3  UNL     1      66.637  31.293  62.266  1.00  0.00    -0.293 N 
ATOM     19  H3  UNL     1      65.796  31.698  61.856  1.00  0.00     0.182 HD
BRANCH  18  20
HETATM   20  C7  UNL     1      66.756  29.921  62.353  1.00  0.00     0.254 C 
BRANCH  20  21
HETATM   21  C8  UNL     1      66.910  29.270  60.999  1.00  0.00     0.287 C 
HETATM   22  O5  UNL     1      67.411  28.137  60.894  1.00  0.00    -0.263 OA
BRANCH  21  23
HETATM   23  O6  UNL     1      66.473  29.980  59.871  1.00  0.00    -0.325 OA
HETATM   24  C9  UNL     1      66.944  29.627  58.608  1.00  0.00     0.213 C 
ENDBRANCH  21  23
ENDBRANCH  20  21
BRANCH  20  25
HETATM   25  C10 UNL     1      65.593  29.280  63.085  1.00  0.00     0.287 C 
BRANCH  25  26
HETATM   26  O7  UNL     1      64.874  30.182  63.828  1.00  0.00    -0.369 OA
ATOM     27  H7  UNL     1      64.770  29.912  64.732  1.00  0.00     0.212 HD
ENDBRANCH  25  26
BRANCH  25  28
HETATM   28  O8  UNL     1      64.741  28.671  62.154  1.00  0.00    -0.369 OA
ATOM     29  H8  UNL     1      64.596  27.767  62.407  1.00  0.00     0.212 HD
ENDBRANCH  25  28
ENDBRANCH  20  25
ENDBRANCH  18  20
ENDBRANCH   1  18
BRANCH   2  30
HETATM   30  C12 UNL     1      68.871  33.374  64.604  1.00  0.00     0.179 C 
HETATM   31  C13 UNL     1      70.123  32.649  65.079  1.00  0.00     0.043 C 
BRANCH  30  32
HETATM   32  N4  UNL     1      68.402  34.131  65.744  1.00  0.00    -0.316 N 
HETATM   33  C14 UNL     1      67.331  35.027  65.833  1.00  0.00     0.237 C 
HETATM   34  N5  UNL     1      66.891  34.959  67.082  1.00  0.00    -0.275 N 
HETATM   35  N6  UNL     1      67.656  34.042  67.804  1.00  0.00    -0.107 NA
ATOM     36  H5  UNL     1      66.111  35.497  67.459  1.00  0.00     0.184 HD
HETATM   37  C15 UNL     1      68.961  34.114  67.102  1.00  0.00     0.252 C 
BRANCH  33  38
HETATM   38  S1  UNL     1      66.703  36.034  64.601  1.00  0.00     0.173 S 
HETATM   39  O10 UNL     1      67.614  37.260  64.512  1.00  0.00    -0.589 OA
HETATM   40  O11 UNL     1      66.715  35.442  63.226  1.00  0.00    -0.589 OA
HETATM   41  O12 UNL     1      65.171  36.647  64.881  1.00  0.00    -0.589 OA
ENDBRANCH  33  38
BRANCH  37  42
HETATM   42  C16 UNL     1      69.473  35.478  67.464  1.00  0.00     0.071 A 
HETATM   43  C17 UNL     1      69.478  35.961  68.763  1.00  0.00     0.085 A 
HETATM   44  C18 UNL     1      69.950  37.216  69.057  1.00  0.00     0.158 A 
HETATM   45  N7  UNL     1      70.416  38.003  68.088  1.00  0.00    -0.171 N 
HETATM   46  C20 UNL     1      70.420  37.554  66.815  1.00  0.00     0.678 A 
ATOM     47  H7  UNL     1      70.766  38.935  68.306  1.00  0.00     0.186 HD
HETATM   48  N9  UNL     1      69.958  36.317  66.515  1.00  0.00    -0.192 N 
ATOM     49  H9  UNL     1      69.975  36.006  65.544  1.00  0.00     0.184 HD
BRANCH  44  50
HETATM   50  O13 UNL     1      69.931  37.649  70.388  1.00  0.00    -0.340 OA
HETATM   51  C19 UNL     1      69.327  38.859  70.751  1.00  0.00     0.211 C 
ENDBRANCH  44  50
BRANCH  46  52
HETATM   52  N8  UNL     1      70.869  38.330  65.898  1.00  0.00    -0.234 N 
ATOM     53  H82 UNL     1      70.911  39.339  66.039  1.00  0.00     0.174 HD
ATOM     54  H81 UNL     1      71.187  37.912  65.024  1.00  0.00     0.174 HD
ENDBRANCH  46  52
ENDBRANCH  37  42
ENDBRANCH  30  32
ENDBRANCH   2  30
TORSDOF 17
ENDMDL
MODEL 3
REMARK VINA RESULT: -6.090704252      3.717      7.689
REMARK  17 active torsions:
REMARK  status: ('A' for Active; 'I' for Inactive)
REMARK    1  A    between atoms: O1_2  and  C2_3 
REMARK    2  A    between atoms: C2_3  and  C3_5 
REMARK    3  A    between atoms: C4_6  and  C5_7 
REMARK    4  A    between atoms: C6_12  and  N2_13 
REMARK    5  A    between atoms: N2_13  and  N3_14 
REMARK       I    between atoms: N2_13  and  C11_26 
REMARK    6  A    between atoms: N3_14  and  C7_16 
REMARK    7  A    between atoms: C7_16  and  C8_17 
REMARK    8  A    between atoms: C7_16  and  C10_21 
REMARK    9  A    between atoms: C8_17  and  O6_19 
REMARK   10  A    between atoms: C10_21  and  O7_22 
REMARK   11  A    between atoms: C10_21  and  O8_24 
REMARK   12  A    between atoms: C11_26  and  C12_28 
REMARK   13  A    between atoms: C12_28  and  N4_30 
REMARK   14  A    between atoms: C14_31  and  S1_32 
REMARK   15  A    between atoms: C15_39  and  C16_40 
REMARK   16  A    between atoms: C18_42  and  O13_43 
REMARK   17  A    between atoms: C20_47  and  N8_48 
ROOT
HETATM    1  N2  UNL     1      70.247  35.144  67.988  1.00  0.00    -0.053 N 
HETATM    2  C11 UNL     1      69.208  34.450  67.409  1.00  0.00     0.281 C 
HETATM    3  O9  UNL     1      68.159  34.321  68.149  1.00  0.00    -0.268 OA
ENDROOT
BRANCH   1   4
HETATM    4  C6  UNL     1      71.465  35.499  67.306  1.00  0.00     0.709 A 
HETATM    5  N1  UNL     1      71.468  36.584  66.470  1.00  0.00    -0.180 N 
HETATM    6  C4  UNL     1      72.735  36.740  65.949  1.00  0.00     0.159 A 
ATOM      7  H1  UNL     1      70.664  37.179  66.267  1.00  0.00     0.184 HD
HETATM    8  C3  UNL     1      73.485  35.731  66.486  1.00  0.00     0.160 A 
HETATM    9  N10 UNL     1      72.680  34.988  67.315  1.00  0.00    -0.177 N 
HETATM   10  C21 UNL     1      73.134  33.848  68.058  1.00  0.00     0.176 C 
BRANCH   6  11
HETATM   11  C5  UNL     1      73.091  37.798  65.036  1.00  0.00     0.230 C 
HETATM   12  O3  UNL     1      73.114  39.005  65.469  1.00  0.00    -0.643 OA
HETATM   13  O4  UNL     1      73.413  37.636  63.733  1.00  0.00    -0.643 OA
ENDBRANCH   6  11
BRANCH   8  14
HETATM   14  C2  UNL     1      74.888  35.411  66.269  1.00  0.00     0.312 C 
HETATM   15  O2  UNL     1      75.202  34.683  65.276  1.00  0.00    -0.258 OA
BRANCH  14  16
HETATM   16  O1  UNL     1      75.954  35.814  67.028  1.00  0.00    -0.321 OA
HETATM   17  C1  UNL     1      75.981  36.968  67.834  1.00  0.00     0.213 C 
ENDBRANCH  14  16
ENDBRANCH   8  14
ENDBRANCH   1   4
BRANCH   1  18
HETATM   18  N3  UNL     1      70.290  35.643  69.292  1.00  0.00    -0.293 N 
ATOM     19  H3  UNL     1      70.354  34.993  70.075  1.00  0.00     0.182 HD
BRANCH  18  20
HETATM   20  C7  UNL     1      70.245  37.000  69.539  1.00  0.00     0.254 C 
BRANCH  20  21
HETATM   21  C8  UNL     1      70.497  37.329  70.991  1.00  0.00     0.287 C 
HETATM   22  O5  UNL     1      71.383  36.735  71.630  1.00  0.00    -0.263 OA
BRANCH  21  23
HETATM   23  O6  UNL     1      69.705  38.319  71.591  1.00  0.00    -0.325 OA
HETATM   24  C9  UNL     1      69.788  38.531  72.965  1.00  0.00     0.213 C 
ENDBRANCH  21  23
ENDBRANCH  20  21
BRANCH  20  25
HETATM   25  C10 UNL     1      68.936  37.629  69.104  1.00  0.00     0.287 C 
BRANCH  25  26
HETATM   26  O7  UNL     1      68.883  37.863  67.753  1.00  0.00    -0.369 OA
ATOM     27  H7  UNL     1      68.440  37.171  67.278  1.00  0.00     0.212 HD
ENDBRANCH  25  26
BRANCH  25  28
HETATM   28  O8  UNL     1      67.877  36.784  69.464  1.00  0.00    -0.369 OA
ATOM     29  H8  UNL     1      67.252  37.271  69.988  1.00  0.00     0.212 HD
ENDBRANCH  25  28
ENDBRANCH  20  25
ENDBRANCH  18  20
ENDBRANCH   1  18
BRANCH   2  30
HETATM   30  C12 UNL     1      69.104  33.845  66.106  1.00  0.00     0.179 C 
HETATM   31  C13 UNL     1      70.341  33.029  65.754  1.00  0.00     0.043 C 
BRANCH  30  32
HETATM   32  N4  UNL     1      68.931  34.781  65.017  1.00  0.00    -0.316 N 
HETATM   33  C14 UNL     1      67.983  35.799  64.866  1.00  0.00     0.237 C 
HETATM   34  N5  UNL     1      68.562  36.741  64.134  1.00  0.00    -0.275 N 
HETATM   35  N6  UNL     1      69.862  36.353  63.805  1.00  0.00    -0.107 NA
ATOM     36  H5  UNL     1      68.123  37.618  63.853  1.00  0.00     0.184 HD
HETATM   37  C15 UNL     1      69.746  34.874  63.799  1.00  0.00     0.252 C 
BRANCH  33  38
HETATM   38  S1  UNL     1      66.385  35.842  65.476  1.00  0.00     0.173 S 
HETATM   39  O10 UNL     1      65.566  36.726  64.533  1.00  0.00    -0.589 OA
HETATM   40  O11 UNL     1      65.673  34.526  65.489  1.00  0.00    -0.589 OA
HETATM   41  O12 UNL     1      66.210  36.535  66.989  1.00  0.00    -0.589 OA
ENDBRANCH  33  38
BRANCH  37  42
HETATM   42  C16 UNL     1      68.898  34.599  62.591  1.00  0.00     0.071 A 
HETATM   43  C17 UNL     1      68.123  33.458  62.459  1.00  0.00     0.085 A 
HETATM   44  C18 UNL     1      67.362  33.235  61.337  1.00  0.00     0.158 A 
HETATM   45  N7  UNL     1      67.357  34.122  60.343  1.00  0.00    -0.171 N 
HETATM   46  C20 UNL     1      68.106  35.240  60.449  1.00  0.00     0.678 A 
ATOM     47  H7  UNL     1      66.793  33.957  59.510  1.00  0.00     0.186 HD
HETATM   48  N9  UNL     1      68.858  35.469  61.552  1.00  0.00    -0.192 N 
ATOM     49  H9  UNL     1      69.412  36.324  61.602  1.00  0.00     0.184 HD
BRANCH  44  50
HETATM   50  O13 UNL     1      66.598  32.066  61.262  1.00  0.00    -0.340 OA
HETATM   51  C19 UNL     1      67.049  30.946  60.551  1.00  0.00     0.211 C 
ENDBRANCH  44  50
BRANCH  46  52
HETATM   52  N8  UNL     1      68.088  36.078  59.478  1.00  0.00    -0.234 N 
ATOM     53  H82 UNL     1      68.226  35.768  58.516  1.00  0.00     0.174 HD
ATOM     54  H81 UNL     1      67.930  37.062  59.692  1.00  0.00     0.174 HD
ENDBRANCH  46  52
ENDBRANCH  37  42
ENDBRANCH  30  32
ENDBRANCH   2  30
TORSDOF 17
ENDMDL
MODEL 4
REMARK VINA RESULT: -6.015084953      3.169      6.265
REMARK  17 active torsions:
REMARK  status: ('A' for Active; 'I' for Inactive)
REMARK    1  A    between atoms: O1_2  and  C2_3 
REMARK    2  A    between atoms: C2_3  and  C3_5 
REMARK    3  A    between atoms: C4_6  and  C5_7 
REMARK    4  A    between atoms: C6_12  and  N2_13 
REMARK    5  A    between atoms: N2_13  and  N3_14 
REMARK       I    between atoms: N2_13  and  C11_26 
REMARK    6  A    between atoms: N3_14  and  C7_16 
REMARK    7  A    between atoms: C7_16  and  C8_17 
REMARK    8  A    between atoms: C7_16  and  C10_21 
REMARK    9  A    between atoms: C8_17  and  O6_19 
REMARK   10  A    between atoms: C10_21  and  O7_22 
REMARK   11  A    between atoms: C10_21  and  O8_24 
REMARK   12  A    between atoms: C11_26  and  C12_28 
REMARK   13  A    between atoms: C12_28  and  N4_30 
REMARK   14  A    between atoms: C14_31  and  S1_32 
REMARK   15  A    between atoms: C15_39  and  C16_40 
REMARK   16  A    between atoms: C18_42  and  O13_43 
REMARK   17  A    between atoms: C20_47  and  N8_48 
ROOT
HETATM    1  N2  UNL     1      67.683  32.208  62.821  1.00  0.00    -0.053 N 
HETATM    2  C11 UNL     1      67.968  32.559  64.122  1.00  0.00     0.281 C 
HETATM    3  O9  UNL     1      67.232  31.988  65.015  1.00  0.00    -0.268 OA
ENDROOT
BRANCH   1   4
HETATM    4  C6  UNL     1      68.447  32.638  61.678  1.00  0.00     0.709 A 
HETATM    5  N1  UNL     1      68.103  33.805  61.050  1.00  0.00    -0.180 N 
HETATM    6  C4  UNL     1      68.977  34.021  60.005  1.00  0.00     0.159 A 
ATOM      7  H1  UNL     1      67.329  34.415  61.312  1.00  0.00     0.184 HD
HETATM    8  C3  UNL     1      69.844  32.964  60.020  1.00  0.00     0.160 A 
HETATM    9  N10 UNL     1      69.494  32.133  61.058  1.00  0.00    -0.177 N 
HETATM   10  C21 UNL     1      70.192  30.923  61.382  1.00  0.00     0.176 C 
BRANCH   6  11
HETATM   11  C5  UNL     1      68.907  35.172  59.137  1.00  0.00     0.230 C 
HETATM   12  O3  UNL     1      68.223  36.188  59.516  1.00  0.00    -0.643 OA
HETATM   13  O4  UNL     1      69.509  35.285  57.933  1.00  0.00    -0.643 OA
ENDBRANCH   6  11
BRANCH   8  14
HETATM   14  C2  UNL     1      70.958  32.674  59.131  1.00  0.00     0.312 C 
HETATM   15  O2  UNL     1      72.111  33.119  59.431  1.00  0.00    -0.258 OA
BRANCH  14  16
HETATM   16  O1  UNL     1      70.922  31.951  57.968  1.00  0.00    -0.321 OA
HETATM   17  C1  UNL     1      69.758  31.675  57.227  1.00  0.00     0.213 C 
ENDBRANCH  14  16
ENDBRANCH   8  14
ENDBRANCH   1   4
BRANCH   1  18
HETATM   18  N3  UNL     1      66.651  31.368  62.393  1.00  0.00    -0.293 N 
ATOM     19  H3  UNL     1      65.823  31.773  61.957  1.00  0.00     0.182 HD
BRANCH  18  20
HETATM   20  C7  UNL     1      66.734  30.000  62.551  1.00  0.00     0.254 C 
BRANCH  20  21
HETATM   21  C8  UNL     1      66.904  29.278  61.236  1.00  0.00     0.287 C 
HETATM   22  O5  UNL     1      67.463  28.168  61.190  1.00  0.00    -0.263 OA
BRANCH  21  23
HETATM   23  O6  UNL     1      66.418  29.897  60.075  1.00  0.00    -0.325 OA
HETATM   24  C9  UNL     1      67.113  29.758  58.876  1.00  0.00     0.213 C 
ENDBRANCH  21  23
ENDBRANCH  20  21
BRANCH  20  25
HETATM   25  C10 UNL     1      65.538  29.425  63.285  1.00  0.00     0.287 C 
BRANCH  25  26
HETATM   26  O7  UNL     1      64.810  30.383  63.943  1.00  0.00    -0.369 OA
ATOM     27  H7  UNL     1      63.972  30.059  64.252  1.00  0.00     0.212 HD
ENDBRANCH  25  26
BRANCH  25  28
HETATM   28  O8  UNL     1      64.706  28.767  62.368  1.00  0.00    -0.369 OA
ATOM     29  H8  UNL     1      64.699  27.838  62.561  1.00  0.00     0.212 HD
ENDBRANCH  25  28
ENDBRANCH  20  25
ENDBRANCH  18  20
ENDBRANCH   1  18
BRANCH   2  30
HETATM   30  C12 UNL     1      68.959  33.463  64.646  1.00  0.00     0.179 C 
HETATM   31  C13 UNL     1      70.188  32.728  65.162  1.00  0.00     0.043 C 
BRANCH  30  32
HETATM   32  N4  UNL     1      68.505  34.285  65.747  1.00  0.00    -0.316 N 
HETATM   33  C14 UNL     1      67.418  35.165  65.807  1.00  0.00     0.237 C 
HETATM   34  N5  UNL     1      67.014  35.172  67.069  1.00  0.00    -0.275 N 
HETATM   35  N6  UNL     1      67.817  34.319  67.828  1.00  0.00    -0.107 NA
ATOM     36  H5  UNL     1      66.233  35.718  67.432  1.00  0.00     0.184 HD
HETATM   37  C15 UNL     1      69.101  34.369  67.087  1.00  0.00     0.252 C 
BRANCH  33  38
HETATM   38  S1  UNL     1      66.736  36.076  64.529  1.00  0.00     0.173 S 
HETATM   39  O10 UNL     1      67.601  37.325  64.354  1.00  0.00    -0.589 OA
HETATM   40  O11 UNL     1      66.749  35.405  63.191  1.00  0.00    -0.589 OA
HETATM   41  O12 UNL     1      65.187  36.649  64.800  1.00  0.00    -0.589 OA
ENDBRANCH  33  38
BRANCH  37  42
HETATM   42  C16 UNL     1      69.594  35.764  67.343  1.00  0.00     0.071 A 
HETATM   43  C17 UNL     1      70.497  36.408  66.512  1.00  0.00     0.085 A 
HETATM   44  C18 UNL     1      70.932  37.683  66.780  1.00  0.00     0.158 A 
HETATM   45  N7  UNL     1      70.488  38.331  67.856  1.00  0.00    -0.171 N 
HETATM   46  C20 UNL     1      69.609  37.723  68.680  1.00  0.00     0.678 A 
ATOM     47  H7  UNL     1      70.810  39.278  68.055  1.00  0.00     0.186 HD
HETATM   48  N9  UNL     1      69.174  36.466  68.423  1.00  0.00    -0.192 N 
ATOM     49  H9  UNL     1      68.509  36.035  69.065  1.00  0.00     0.184 HD
BRANCH  44  50
HETATM   50  O13 UNL     1      71.843  38.283  65.904  1.00  0.00    -0.340 OA
HETATM   51  C19 UNL     1      72.590  37.521  64.996  1.00  0.00     0.211 C 
ENDBRANCH  44  50
BRANCH  46  52
HETATM   52  N8  UNL     1      69.199  38.365  69.711  1.00  0.00    -0.234 N 
ATOM     53  H82 UNL     1      69.570  38.160  70.639  1.00  0.00     0.174 HD
ATOM     54  H81 UNL     1      68.492  39.089  69.581  1.00  0.00     0.174 HD
ENDBRANCH  46  52
ENDBRANCH  37  42
ENDBRANCH  30  32
ENDBRANCH   2  30
TORSDOF 17
ENDMDL
MODEL 5
REMARK VINA RESULT: -5.991847372      1.741      2.621
REMARK  17 active torsions:
REMARK  status: ('A' for Active; 'I' for Inactive)
REMARK    1  A    between atoms: O1_2  and  C2_3 
REMARK    2  A    between atoms: C2_3  and  C3_5 
REMARK    3  A    between atoms: C4_6  and  C5_7 
REMARK    4  A    between atoms: C6_12  and  N2_13 
REMARK    5  A    between atoms: N2_13  and  N3_14 
REMARK       I    between atoms: N2_13  and  C11_26 
REMARK    6  A    between atoms: N3_14  and  C7_16 
REMARK    7  A    between atoms: C7_16  and  C8_17 
REMARK    8  A    between atoms: C7_16  and  C10_21 
REMARK    9  A    between atoms: C8_17  and  O6_19 
REMARK   10  A    between atoms: C10_21  and  O7_22 
REMARK   11  A    between atoms: C10_21  and  O8_24 
REMARK   12  A    between atoms: C11_26  and  C12_28 
REMARK   13  A    between atoms: C12_28  and  N4_30 
REMARK   14  A    between atoms: C14_31  and  S1_32 
REMARK   15  A    between atoms: C15_39  and  C16_40 
REMARK   16  A    between atoms: C18_42  and  O13_43 
REMARK   17  A    between atoms: C20_47  and  N8_48 
ROOT
HETATM    1  N2  UNL     1      67.794  33.482  62.564  1.00  0.00    -0.053 N 
HETATM    2  C11 UNL     1      67.210  32.400  63.186  1.00  0.00     0.281 C 
HETATM    3  O9  UNL     1      66.479  31.661  62.422  1.00  0.00    -0.268 OA
ENDROOT
BRANCH   1   4
HETATM    4  C6  UNL     1      68.732  34.373  63.197  1.00  0.00     0.709 A 
HETATM    5  N1  UNL     1      68.303  35.605  63.612  1.00  0.00    -0.180 N 
HETATM    6  C4  UNL     1      69.360  36.269  64.199  1.00  0.00     0.159 A 
ATOM      7  H1  UNL     1      67.357  35.972  63.505  1.00  0.00     0.184 HD
HETATM    8  C3  UNL     1      70.424  35.414  64.125  1.00  0.00     0.160 A 
HETATM    9  N10 UNL     1      70.008  34.259  63.507  1.00  0.00    -0.177 N 
HETATM   10  C21 UNL     1      70.861  33.131  63.265  1.00  0.00     0.176 C 
BRANCH   6  11
HETATM   11  C5  UNL     1      69.251  37.595  64.757  1.00  0.00     0.230 C 
HETATM   12  O3  UNL     1      68.235  38.313  64.447  1.00  0.00    -0.643 OA
HETATM   13  O4  UNL     1      70.140  38.167  65.599  1.00  0.00    -0.643 OA
ENDBRANCH   6  11
BRANCH   8  14
HETATM   14  C2  UNL     1      71.793  35.606  64.578  1.00  0.00     0.312 C 
HETATM   15  O2  UNL     1      72.598  36.250  63.835  1.00  0.00    -0.258 OA
BRANCH  14  16
HETATM   16  O1  UNL     1      72.344  35.166  65.752  1.00  0.00    -0.321 OA
HETATM   17  C1  UNL     1      71.650  35.036  66.970  1.00  0.00     0.213 C 
ENDBRANCH  14  16
ENDBRANCH   8  14
ENDBRANCH   1   4
BRANCH   1  18
HETATM   18  N3  UNL     1      67.611  33.876  61.237  1.00  0.00    -0.293 N 
ATOM     19  H3  UNL     1      66.985  34.653  61.026  1.00  0.00     0.182 HD
BRANCH  18  20
HETATM   20  C7  UNL     1      68.263  33.231  60.205  1.00  0.00     0.254 C 
BRANCH  20  21
HETATM   21  C8  UNL     1      69.267  34.121  59.514  1.00  0.00     0.287 C 
HETATM   22  O5  UNL     1      70.440  33.743  59.348  1.00  0.00    -0.263 OA
BRANCH  21  23
HETATM   23  O6  UNL     1      68.839  35.381  59.070  1.00  0.00    -0.325 OA
HETATM   24  C9  UNL     1      69.451  35.969  57.965  1.00  0.00     0.213 C 
ENDBRANCH  21  23
ENDBRANCH  20  21
BRANCH  20  25
HETATM   25  C10 UNL     1      67.305  32.665  59.175  1.00  0.00     0.287 C 
BRANCH  25  26
HETATM   26  O7  UNL     1      66.108  33.334  59.140  1.00  0.00    -0.369 OA
ATOM     27  H7  UNL     1      66.203  34.244  58.886  1.00  0.00     0.212 HD
ENDBRANCH  25  26
BRANCH  25  28
HETATM   28  O8  UNL     1      67.901  32.728  57.907  1.00  0.00    -0.369 OA
ATOM     29  H8  UNL     1      67.999  31.849  57.563  1.00  0.00     0.212 HD
ENDBRANCH  25  28
ENDBRANCH  20  25
ENDBRANCH  18  20
ENDBRANCH   1  18
BRANCH   2  30
HETATM   30  C12 UNL     1      67.286  31.961  64.556  1.00  0.00     0.179 C 
HETATM   31  C13 UNL     1      67.994  30.619  64.688  1.00  0.00     0.043 C 
BRANCH  30  32
HETATM   32  N4  UNL     1      66.006  31.794  65.209  1.00  0.00    -0.316 N 
HETATM   33  C14 UNL     1      65.026  32.751  65.496  1.00  0.00     0.237 C 
HETATM   34  N5  UNL     1      63.864  32.112  65.474  1.00  0.00    -0.275 N 
HETATM   35  N6  UNL     1      64.072  30.763  65.181  1.00  0.00    -0.107 NA
ATOM     36  H5  UNL     1      62.956  32.542  65.644  1.00  0.00     0.184 HD
HETATM   37  C15 UNL     1      65.436  30.540  65.720  1.00  0.00     0.252 C 
BRANCH  33  38
HETATM   38  S1  UNL     1      65.251  34.413  65.831  1.00  0.00     0.173 S 
HETATM   39  O10 UNL     1      66.379  34.517  66.860  1.00  0.00    -0.589 OA
HETATM   40  O11 UNL     1      65.709  35.240  64.671  1.00  0.00    -0.589 OA
HETATM   41  O12 UNL     1      63.945  35.190  66.531  1.00  0.00    -0.589 OA
ENDBRANCH  33  38
BRANCH  37  42
HETATM   42  C16 UNL     1      65.241  30.632  67.206  1.00  0.00     0.071 A 
HETATM   43  C17 UNL     1      66.224  31.091  68.067  1.00  0.00     0.085 A 
HETATM   44  C18 UNL     1      66.014  31.157  69.422  1.00  0.00     0.158 A 
HETATM   45  N7  UNL     1      64.847  30.776  69.940  1.00  0.00    -0.171 N 
HETATM   46  C20 UNL     1      63.875  30.324  69.120  1.00  0.00     0.678 A 
ATOM     47  H7  UNL     1      64.690  30.824  70.946  1.00  0.00     0.186 HD
HETATM   48  N9  UNL     1      64.073  30.256  67.782  1.00  0.00    -0.192 N 
ATOM     49  H9  UNL     1      63.319  29.911  67.189  1.00  0.00     0.184 HD
BRANCH  44  50
HETATM   50  O13 UNL     1      67.044  31.631  70.243  1.00  0.00    -0.340 OA
HETATM   51  C19 UNL     1      66.836  31.869  71.607  1.00  0.00     0.211 C 
ENDBRANCH  44  50
BRANCH  46  52
HETATM   52  N8  UNL     1      62.762  29.958  69.641  1.00  0.00    -0.234 N 
ATOM     53  H82 UNL     1      62.595  30.053  70.642  1.00  0.00     0.174 HD
ATOM     54  H81 UNL     1      62.045  29.571  69.027  1.00  0.00     0.174 HD
ENDBRANCH  46  52
ENDBRANCH  37  42
ENDBRANCH  30  32
ENDBRANCH   2  30
TORSDOF 17
ENDMDL
