MODEL 1
REMARK VINA RESULT: -6.707655468      0.000      0.000
REMARK  13 active torsions:
REMARK  status: ('A' for Active; 'I' for Inactive)
REMARK    1  A    between atoms: C2_2  and  S1_3 
REMARK    2  A    between atoms: S1_3  and  C3_4 
REMARK    3  A    between atoms: C4_9  and  S2_10 
REMARK    4  A    between atoms: S2_10  and  C5_11 
REMARK    5  A    between atoms: C5_11  and  C6_12 
REMARK    6  A    between atoms: C6_12  and  N3_13 
REMARK       I    between atoms: N3_13  and  C7_15 
REMARK    7  A    between atoms: C7_15  and  C8_17 
REMARK    8  A    between atoms: C10_22  and  O3_23 
REMARK    9  A    between atoms: C11_28  and  C12_29 
REMARK   10  A    between atoms: C14_35  and  C15_36 
REMARK   11  A    between atoms: C16_39  and  N8_40 
REMARK   12  A    between atoms: N8_40  and  C18_42 
REMARK   13  A    between atoms: C22_48  and  N11_49 
ROOT
HETATM    1  C8  UNL     1      68.004  35.404  67.008  1.00  0.00     0.269 C 
HETATM    2  O2  UNL     1      66.610  35.179  67.002  1.00  0.00    -0.328 OA
HETATM    3  C9  UNL     1      66.349  33.874  66.583  1.00  0.00     0.338 C 
HETATM    4  N4  UNL     1      65.003  33.731  66.167  1.00  0.00    -0.332 N 
ATOM      5  H4  UNL     1      64.379  34.528  66.044  1.00  0.00     0.161 HD
HETATM    6  C10 UNL     1      64.586  32.380  65.932  1.00  0.00     0.426 C 
HETATM    7  N5  UNL     1      65.596  31.380  66.042  1.00  0.00    -0.011 N 
ATOM      8  H51 UNL     1      65.183  30.465  66.222  1.00  0.00     0.284 HD
ATOM      9  H52 UNL     1      66.129  31.496  66.905  1.00  0.00     0.284 HD
HETATM   10  C11 UNL     1      66.493  31.329  64.874  1.00  0.00     0.355 C 
HETATM   11  C13 UNL     1      67.709  32.131  65.297  1.00  0.00     0.141 C 
HETATM   12  N6  UNL     1      68.903  31.876  64.587  1.00  0.00    -0.084 NA
HETATM   13  N7  UNL     1      67.321  33.451  65.584  1.00  0.00    -0.284 N 
HETATM   14  C14 UNL     1      67.969  34.510  64.840  1.00  0.00     0.142 C 
HETATM   15  C16 UNL     1      68.352  35.581  65.560  1.00  0.00     0.085 C 
ENDROOT
BRANCH   1  16
HETATM   16  C7  UNL     1      68.310  36.494  67.897  1.00  0.00     0.253 C 
HETATM   17  N3  UNL     1      69.486  36.662  68.667  1.00  0.00    -0.358 N 
ATOM     18  H3  UNL     1      70.203  35.939  68.600  1.00  0.00     0.162 HD
HETATM   19  O1  UNL     1      67.460  37.456  68.055  1.00  0.00    -0.270 OA
BRANCH  17  20
HETATM   20  C6  UNL     1      69.742  37.783  69.539  1.00  0.00     0.133 C 
BRANCH  20  21
HETATM   21  C5  UNL     1      70.542  37.457  70.758  1.00  0.00     0.101 C 
BRANCH  21  22
HETATM   22  S2  UNL     1      69.796  38.206  72.251  1.00  0.00    -0.102 SA
BRANCH  22  23
HETATM   23  C4  UNL     1      70.806  39.613  72.776  1.00  0.00     0.129 A 
HETATM   24  N2  UNL     1      70.438  40.874  72.967  1.00  0.00    -0.287 N 
HETATM   25  N1  UNL     1      71.290  41.730  73.334  1.00  0.00    -0.287 N 
ATOM     26  H2  UNL     1      69.468  41.151  72.817  1.00  0.00     0.188 HD
HETATM   27  C3  UNL     1      72.552  41.367  73.528  1.00  0.00     0.129 A 
ATOM     28  H1  UNL     1      71.009  42.699  73.481  1.00  0.00     0.188 HD
HETATM   29  S3  UNL     1      72.472  39.692  73.152  1.00  0.00    -0.038 SA
BRANCH  27  30
HETATM   30  S1  UNL     1      73.960  42.360  74.041  1.00  0.00    -0.104 SA
BRANCH  30  31
HETATM   31  C2  UNL     1      74.865  42.760  72.498  1.00  0.00     0.077 C 
HETATM   32  C1  UNL     1      76.281  43.170  72.769  1.00  0.00     0.016 C 
ENDBRANCH  30  31
ENDBRANCH  27  30
ENDBRANCH  22  23
ENDBRANCH  21  22
ENDBRANCH  20  21
ENDBRANCH  17  20
ENDBRANCH   1  16
BRANCH  15  33
HETATM   33  N8  UNL     1      68.962  36.685  64.986  1.00  0.00    -0.346 N 
HETATM   34  C17 UNL     1      68.203  37.709  64.291  1.00  0.00     0.156 C 
BRANCH  33  35
HETATM   35  C18 UNL     1      70.395  36.861  64.961  1.00  0.00     0.097 A 
HETATM   36  C19 UNL     1      71.327  36.064  64.287  1.00  0.00     0.143 A 
HETATM   37  N9  UNL     1      72.575  36.511  64.504  1.00  0.00    -0.302 N 
HETATM   38  C20 UNL     1      73.803  35.922  63.959  1.00  0.00     0.177 C 
HETATM   39  N10 UNL     1      72.491  37.564  65.294  1.00  0.00    -0.278 N 
HETATM   40  C21 UNL     1      73.632  38.344  65.768  1.00  0.00     0.179 C 
HETATM   41  C22 UNL     1      71.183  37.804  65.590  1.00  0.00     0.144 A 
BRANCH  41  42
HETATM   42  N11 UNL     1      70.798  38.761  66.327  1.00  0.00    -0.382 N 
ATOM     43 2H11 UNL     1      70.872  39.742  66.058  1.00  0.00     0.157 HD
ATOM     44 1H11 UNL     1      70.373  38.699  67.252  1.00  0.00     0.157 HD
ENDBRANCH  41  42
ENDBRANCH  33  35
ENDBRANCH  15  33
BRANCH  14  45
HETATM   45  C15 UNL     1      68.123  34.384  63.443  1.00  0.00     0.229 C 
HETATM   46  O6  UNL     1      67.091  34.399  62.714  1.00  0.00    -0.643 OA
HETATM   47  O7  UNL     1      69.290  34.231  62.708  1.00  0.00    -0.643 OA
ENDBRANCH  14  45
BRANCH   6  48
HETATM   48  O3  UNL     1      63.944  32.219  64.707  1.00  0.00    -0.355 OA
ATOM     49  H3  UNL     1      63.081  32.614  64.688  1.00  0.00     0.213 HD
ENDBRANCH   6  48
BRANCH  10  50
HETATM   50  C12 UNL     1      66.804  29.924  64.561  1.00  0.00     0.212 C 
HETATM   51  O4  UNL     1      67.047  29.105  65.475  1.00  0.00    -0.646 OA
HETATM   52  O5  UNL     1      66.826  29.500  63.244  1.00  0.00    -0.646 OA
ENDBRANCH  10  50
TORSDOF 13
ENDMDL
MODEL 2
REMARK VINA RESULT: -6.647171832      3.372      5.941
REMARK  13 active torsions:
REMARK  status: ('A' for Active; 'I' for Inactive)
REMARK    1  A    between atoms: C2_2  and  S1_3 
REMARK    2  A    between atoms: S1_3  and  C3_4 
REMARK    3  A    between atoms: C4_9  and  S2_10 
REMARK    4  A    between atoms: S2_10  and  C5_11 
REMARK    5  A    between atoms: C5_11  and  C6_12 
REMARK    6  A    between atoms: C6_12  and  N3_13 
REMARK       I    between atoms: N3_13  and  C7_15 
REMARK    7  A    between atoms: C7_15  and  C8_17 
REMARK    8  A    between atoms: C10_22  and  O3_23 
REMARK    9  A    between atoms: C11_28  and  C12_29 
REMARK   10  A    between atoms: C14_35  and  C15_36 
REMARK   11  A    between atoms: C16_39  and  N8_40 
REMARK   12  A    between atoms: N8_40  and  C18_42 
REMARK   13  A    between atoms: C22_48  and  N11_49 
ROOT
HETATM    1  C8  UNL     1      70.272  33.168  63.285  1.00  0.00     0.269 C 
HETATM    2  O2  UNL     1      69.690  31.890  63.131  1.00  0.00    -0.328 OA
HETATM    3  C9  UNL     1      69.718  31.523  61.786  1.00  0.00     0.338 C 
HETATM    4  N4  UNL     1      68.801  30.476  61.524  1.00  0.00    -0.332 N 
ATOM      5  H4  UNL     1      68.110  30.167  62.207  1.00  0.00     0.161 HD
HETATM    6  C10 UNL     1      68.918  29.885  60.223  1.00  0.00     0.426 C 
HETATM    7  N5  UNL     1      69.857  30.491  59.337  1.00  0.00    -0.011 N 
ATOM      8  H51 UNL     1      70.145  29.836  58.610  1.00  0.00     0.284 HD
ATOM      9  H52 UNL     1      70.755  30.632  59.801  1.00  0.00     0.284 HD
HETATM   10  C11 UNL     1      69.368  31.749  58.745  1.00  0.00     0.355 C 
HETATM   11  C13 UNL     1      69.985  32.835  59.606  1.00  0.00     0.141 C 
HETATM   12  N6  UNL     1      70.079  34.117  59.022  1.00  0.00    -0.084 NA
HETATM   13  N7  UNL     1      69.539  32.689  60.931  1.00  0.00    -0.284 N 
HETATM   14  C14 UNL     1      68.858  33.817  61.531  1.00  0.00     0.142 C 
HETATM   15  C16 UNL     1      69.216  34.112  62.794  1.00  0.00     0.085 C 
ENDROOT
BRANCH   1  16
HETATM   16  C7  UNL     1      70.721  33.329  64.643  1.00  0.00     0.253 C 
HETATM   17  N3  UNL     1      71.669  34.266  65.121  1.00  0.00    -0.358 N 
ATOM     18  H3  UNL     1      72.094  34.899  64.443  1.00  0.00     0.162 HD
HETATM   19  O1  UNL     1      70.247  32.568  65.575  1.00  0.00    -0.270 OA
BRANCH  17  20
HETATM   20  C6  UNL     1      72.077  34.388  66.501  1.00  0.00     0.133 C 
BRANCH  20  21
HETATM   21  C5  UNL     1      71.856  35.739  67.101  1.00  0.00     0.101 C 
BRANCH  21  22
HETATM   22  S2  UNL     1      70.071  36.104  67.259  1.00  0.00    -0.102 SA
BRANCH  22  23
HETATM   23  C4  UNL     1      69.798  37.089  68.751  1.00  0.00     0.129 A 
HETATM   24  N2  UNL     1      68.979  38.119  68.929  1.00  0.00    -0.287 N 
HETATM   25  N1  UNL     1      68.923  38.693  70.051  1.00  0.00    -0.287 N 
ATOM     26  H2  UNL     1      68.396  38.446  68.159  1.00  0.00     0.188 HD
HETATM   27  C3  UNL     1      69.683  38.265  71.053  1.00  0.00     0.129 A 
ATOM     28  H1  UNL     1      68.294  39.485  70.189  1.00  0.00     0.188 HD
HETATM   29  S3  UNL     1      70.513  36.962  70.299  1.00  0.00    -0.038 SA
BRANCH  27  30
HETATM   30  S1  UNL     1      69.811  38.885  72.735  1.00  0.00    -0.104 SA
BRANCH  30  31
HETATM   31  C2  UNL     1      70.328  40.636  72.574  1.00  0.00     0.077 C 
HETATM   32  C1  UNL     1      71.782  40.823  72.887  1.00  0.00     0.016 C 
ENDBRANCH  30  31
ENDBRANCH  27  30
ENDBRANCH  22  23
ENDBRANCH  21  22
ENDBRANCH  20  21
ENDBRANCH  17  20
ENDBRANCH   1  16
BRANCH  15  33
HETATM   33  N8  UNL     1      68.636  35.147  63.510  1.00  0.00    -0.346 N 
HETATM   34  C17 UNL     1      69.219  36.476  63.554  1.00  0.00     0.156 C 
BRANCH  33  35
HETATM   35  C18 UNL     1      67.461  34.965  64.331  1.00  0.00     0.097 A 
HETATM   36  C19 UNL     1      66.661  35.970  64.886  1.00  0.00     0.143 A 
HETATM   37  N9  UNL     1      65.665  35.433  65.609  1.00  0.00    -0.302 N 
HETATM   38  C20 UNL     1      64.634  36.183  66.336  1.00  0.00     0.177 C 
HETATM   39  N10 UNL     1      65.787  34.121  65.548  1.00  0.00    -0.278 N 
HETATM   40  C21 UNL     1      64.893  33.169  66.205  1.00  0.00     0.179 C 
HETATM   41  C22 UNL     1      66.866  33.803  64.779  1.00  0.00     0.144 A 
BRANCH  41  42
HETATM   42  N11 UNL     1      67.224  32.611  64.538  1.00  0.00    -0.382 N 
ATOM     43 2H11 UNL     1      68.195  32.300  64.565  1.00  0.00     0.157 HD
ATOM     44 1H11 UNL     1      66.626  31.821  64.297  1.00  0.00     0.157 HD
ENDBRANCH  41  42
ENDBRANCH  33  35
ENDBRANCH  15  33
BRANCH  14  45
HETATM   45  C15 UNL     1      67.863  34.498  60.797  1.00  0.00     0.229 C 
HETATM   46  O6  UNL     1      66.734  33.949  60.650  1.00  0.00    -0.643 OA
HETATM   47  O7  UNL     1      67.936  35.736  60.176  1.00  0.00    -0.643 OA
ENDBRANCH  14  45
BRANCH   6  48
HETATM   48  O3  UNL     1      67.696  29.787  59.562  1.00  0.00    -0.355 OA
ATOM     49  H3  UNL     1      67.554  30.494  58.944  1.00  0.00     0.213 HD
ENDBRANCH   6  48
BRANCH  10  50
HETATM   50  C12 UNL     1      69.788  31.817  57.335  1.00  0.00     0.212 C 
HETATM   51  O4  UNL     1      70.689  31.066  56.900  1.00  0.00    -0.646 OA
HETATM   52  O5  UNL     1      69.183  32.719  56.478  1.00  0.00    -0.646 OA
ENDBRANCH  10  50
TORSDOF 13
ENDMDL
MODEL 3
REMARK VINA RESULT: -6.643033501      4.502      9.647
REMARK  13 active torsions:
REMARK  status: ('A' for Active; 'I' for Inactive)
REMARK    1  A    between atoms: C2_2  and  S1_3 
REMARK    2  A    between atoms: S1_3  and  C3_4 
REMARK    3  A    between atoms: C4_9  and  S2_10 
REMARK    4  A    between atoms: S2_10  and  C5_11 
REMARK    5  A    between atoms: C5_11  and  C6_12 
REMARK    6  A    between atoms: C6_12  and  N3_13 
REMARK       I    between atoms: N3_13  and  C7_15 
REMARK    7  A    between atoms: C7_15  and  C8_17 
REMARK    8  A    between atoms: C10_22  and  O3_23 
REMARK    9  A    between atoms: C11_28  and  C12_29 
REMARK   10  A    between atoms: C14_35  and  C15_36 
REMARK   11  A    between atoms: C16_39  and  N8_40 
REMARK   12  A    between atoms: N8_40  and  C18_42 
REMARK   13  A    between atoms: C22_48  and  N11_49 
ROOT
HETATM    1  C8  UNL     1      70.380  36.299  69.855  1.00  0.00     0.269 C 
HETATM    2  O2  UNL     1      69.415  37.247  70.259  1.00  0.00    -0.328 OA
HETATM    3  C9  UNL     1      70.010  38.194  71.093  1.00  0.00     0.338 C 
HETATM    4  N4  UNL     1      69.037  38.899  71.841  1.00  0.00    -0.332 N 
ATOM      5  H4  UNL     1      68.057  38.619  71.869  1.00  0.00     0.161 HD
HETATM    6  C10 UNL     1      69.536  40.037  72.556  1.00  0.00     0.426 C 
HETATM    7  N5  UNL     1      70.946  40.244  72.508  1.00  0.00    -0.011 N 
ATOM      8  H51 UNL     1      71.178  41.216  72.709  1.00  0.00     0.284 HD
ATOM      9  H52 UNL     1      71.289  40.185  71.548  1.00  0.00     0.284 HD
HETATM   10  C11 UNL     1      71.697  39.333  73.390  1.00  0.00     0.355 C 
HETATM   11  C13 UNL     1      72.165  38.220  72.472  1.00  0.00     0.141 C 
HETATM   12  N6  UNL     1      73.272  37.465  72.919  1.00  0.00    -0.084 NA
HETATM   13  N7  UNL     1      71.048  37.579  71.911  1.00  0.00    -0.284 N 
HETATM   14  C14 UNL     1      70.919  36.154  72.133  1.00  0.00     0.142 C 
HETATM   15  C16 UNL     1      70.561  35.424  71.060  1.00  0.00     0.085 C 
ENDROOT
BRANCH   1  16
HETATM   16  C7  UNL     1      69.946  35.663  68.639  1.00  0.00     0.253 C 
HETATM   17  N3  UNL     1      68.616  35.345  68.271  1.00  0.00    -0.358 N 
ATOM     18  H3  UNL     1      67.873  35.580  68.929  1.00  0.00     0.162 HD
HETATM   19  O1  UNL     1      70.815  35.318  67.745  1.00  0.00    -0.270 OA
BRANCH  17  20
HETATM   20  C6  UNL     1      68.238  34.711  67.030  1.00  0.00     0.133 C 
BRANCH  20  21
HETATM   21  C5  UNL     1      67.134  35.394  66.290  1.00  0.00     0.101 C 
BRANCH  21  22
HETATM   22  S2  UNL     1      67.771  36.260  64.811  1.00  0.00    -0.102 SA
BRANCH  22  23
HETATM   23  C4  UNL     1      69.366  37.017  65.209  1.00  0.00     0.129 A 
HETATM   24  N2  UNL     1      69.640  37.954  66.110  1.00  0.00    -0.287 N 
HETATM   25  N1  UNL     1      70.824  38.369  66.248  1.00  0.00    -0.287 N 
ATOM     26  H2  UNL     1      68.894  38.338  66.690  1.00  0.00     0.188 HD
HETATM   27  C3  UNL     1      71.793  37.867  65.492  1.00  0.00     0.129 A 
ATOM     28  H1  UNL     1      71.035  39.088  66.939  1.00  0.00     0.188 HD
HETATM   29  S3  UNL     1      70.914  36.737  64.540  1.00  0.00    -0.038 SA
BRANCH  27  30
HETATM   30  S1  UNL     1      73.546  38.266  65.470  1.00  0.00    -0.104 SA
BRANCH  30  31
HETATM   31  C2  UNL     1      74.346  36.904  64.541  1.00  0.00     0.077 C 
HETATM   32  C1  UNL     1      74.459  37.212  63.078  1.00  0.00     0.016 C 
ENDBRANCH  30  31
ENDBRANCH  27  30
ENDBRANCH  22  23
ENDBRANCH  21  22
ENDBRANCH  20  21
ENDBRANCH  17  20
ENDBRANCH   1  16
BRANCH  15  33
HETATM   33  N8  UNL     1      70.372  34.053  71.121  1.00  0.00    -0.346 N 
HETATM   34  C17 UNL     1      71.449  33.115  70.861  1.00  0.00     0.156 C 
BRANCH  33  35
HETATM   35  C18 UNL     1      69.080  33.453  71.363  1.00  0.00     0.097 A 
HETATM   36  C19 UNL     1      68.244  33.677  72.462  1.00  0.00     0.143 A 
HETATM   37  N9  UNL     1      67.130  32.932  72.366  1.00  0.00    -0.302 N 
HETATM   38  C20 UNL     1      66.030  32.908  73.337  1.00  0.00     0.177 C 
HETATM   39  N10 UNL     1      67.210  32.234  71.251  1.00  0.00    -0.278 N 
HETATM   40  C21 UNL     1      66.193  31.297  70.778  1.00  0.00     0.179 C 
HETATM   41  C22 UNL     1      68.381  32.526  70.617  1.00  0.00     0.144 A 
BRANCH  41  42
HETATM   42  N11 UNL     1      68.726  32.006  69.514  1.00  0.00    -0.382 N 
ATOM     43 2H11 UNL     1      69.665  31.654  69.328  1.00  0.00     0.157 HD
ATOM     44 1H11 UNL     1      68.146  31.865  68.687  1.00  0.00     0.157 HD
ENDBRANCH  41  42
ENDBRANCH  33  35
ENDBRANCH  15  33
BRANCH  14  45
HETATM   45  C15 UNL     1      71.131  35.630  73.426  1.00  0.00     0.229 C 
HETATM   46  O6  UNL     1      70.347  35.973  74.357  1.00  0.00    -0.643 OA
HETATM   47  O7  UNL     1      72.120  34.759  73.859  1.00  0.00    -0.643 OA
ENDBRANCH  14  45
BRANCH   6  48
HETATM   48  O3  UNL     1      69.139  40.053  73.891  1.00  0.00    -0.355 OA
ATOM     49  H3  UNL     1      69.873  40.063  74.493  1.00  0.00     0.213 HD
ENDBRANCH   6  48
BRANCH  10  50
HETATM   50  C12 UNL     1      72.805  40.071  74.019  1.00  0.00     0.212 C 
HETATM   51  O4  UNL     1      73.490  40.883  73.357  1.00  0.00    -0.646 OA
HETATM   52  O5  UNL     1      73.097  39.870  75.357  1.00  0.00    -0.646 OA
ENDBRANCH  10  50
TORSDOF 13
ENDMDL
MODEL 4
REMARK VINA RESULT: -6.482655736      2.864      4.542
REMARK  13 active torsions:
REMARK  status: ('A' for Active; 'I' for Inactive)
REMARK    1  A    between atoms: C2_2  and  S1_3 
REMARK    2  A    between atoms: S1_3  and  C3_4 
REMARK    3  A    between atoms: C4_9  and  S2_10 
REMARK    4  A    between atoms: S2_10  and  C5_11 
REMARK    5  A    between atoms: C5_11  and  C6_12 
REMARK    6  A    between atoms: C6_12  and  N3_13 
REMARK       I    between atoms: N3_13  and  C7_15 
REMARK    7  A    between atoms: C7_15  and  C8_17 
REMARK    8  A    between atoms: C10_22  and  O3_23 
REMARK    9  A    between atoms: C11_28  and  C12_29 
REMARK   10  A    between atoms: C14_35  and  C15_36 
REMARK   11  A    between atoms: C16_39  and  N8_40 
REMARK   12  A    between atoms: N8_40  and  C18_42 
REMARK   13  A    between atoms: C22_48  and  N11_49 
ROOT
HETATM    1  C8  UNL     1      67.989  35.332  66.963  1.00  0.00     0.269 C 
HETATM    2  O2  UNL     1      66.596  35.100  66.952  1.00  0.00    -0.328 OA
HETATM    3  C9  UNL     1      66.343  33.790  66.542  1.00  0.00     0.338 C 
HETATM    4  N4  UNL     1      65.000  33.638  66.120  1.00  0.00    -0.332 N 
ATOM      5  H4  UNL     1      64.373  34.431  65.988  1.00  0.00     0.161 HD
HETATM    6  C10 UNL     1      64.590  32.283  65.894  1.00  0.00     0.426 C 
HETATM    7  N5  UNL     1      65.605  31.288  66.017  1.00  0.00    -0.011 N 
ATOM      8  H51 UNL     1      65.195  30.373  66.202  1.00  0.00     0.284 HD
ATOM      9  H52 UNL     1      66.133  31.414  66.881  1.00  0.00     0.284 HD
HETATM   10  C11 UNL     1      66.508  31.233  64.854  1.00  0.00     0.355 C 
HETATM   11  C13 UNL     1      67.718  32.043  65.277  1.00  0.00     0.141 C 
HETATM   12  N6  UNL     1      68.917  31.789  64.576  1.00  0.00    -0.084 NA
HETATM   13  N7  UNL     1      67.322  33.364  65.552  1.00  0.00    -0.284 N 
HETATM   14  C14 UNL     1      67.969  34.420  64.802  1.00  0.00     0.142 C 
HETATM   15  C16 UNL     1      68.344  35.498  65.516  1.00  0.00     0.085 C 
ENDROOT
BRANCH   1  16
HETATM   16  C7  UNL     1      68.284  36.430  67.845  1.00  0.00     0.253 C 
HETATM   17  N3  UNL     1      69.440  36.592  68.647  1.00  0.00    -0.358 N 
ATOM     18  H3  UNL     1      70.148  35.858  68.612  1.00  0.00     0.162 HD
HETATM   19  O1  UNL     1      67.444  37.406  67.965  1.00  0.00    -0.270 OA
BRANCH  17  20
HETATM   20  C6  UNL     1      69.687  37.723  69.510  1.00  0.00     0.133 C 
BRANCH  20  21
HETATM   21  C5  UNL     1      70.320  37.382  70.820  1.00  0.00     0.101 C 
BRANCH  21  22
HETATM   22  S2  UNL     1      70.742  35.605  70.903  1.00  0.00    -0.102 SA
BRANCH  22  23
HETATM   23  C4  UNL     1      69.404  34.717  71.739  1.00  0.00     0.129 A 
HETATM   24  N2  UNL     1      68.223  34.351  71.258  1.00  0.00    -0.287 N 
HETATM   25  N1  UNL     1      67.405  33.735  71.996  1.00  0.00    -0.287 N 
ATOM     26  H2  UNL     1      67.975  34.566  70.292  1.00  0.00     0.188 HD
HETATM   27  C3  UNL     1      67.730  33.455  73.253  1.00  0.00     0.129 A 
ATOM     28  H1  UNL     1      66.497  33.452  71.628  1.00  0.00     0.188 HD
HETATM   29  S3  UNL     1      69.307  34.132  73.343  1.00  0.00    -0.038 SA
BRANCH  27  30
HETATM   30  S1  UNL     1      66.775  32.603  74.516  1.00  0.00    -0.104 SA
BRANCH  30  31
HETATM   31  C2  UNL     1      65.020  32.952  74.121  1.00  0.00     0.077 C 
HETATM   32  C1  UNL     1      64.228  33.306  75.343  1.00  0.00     0.016 C 
ENDBRANCH  30  31
ENDBRANCH  27  30
ENDBRANCH  22  23
ENDBRANCH  21  22
ENDBRANCH  20  21
ENDBRANCH  17  20
ENDBRANCH   1  16
BRANCH  15  33
HETATM   33  N8  UNL     1      68.950  36.601  64.936  1.00  0.00    -0.346 N 
HETATM   34  C17 UNL     1      68.190  37.617  64.232  1.00  0.00     0.156 C 
BRANCH  33  35
HETATM   35  C18 UNL     1      70.384  36.782  64.915  1.00  0.00     0.097 A 
HETATM   36  C19 UNL     1      71.320  35.987  64.247  1.00  0.00     0.143 A 
HETATM   37  N9  UNL     1      72.566  36.439  64.467  1.00  0.00    -0.302 N 
HETATM   38  C20 UNL     1      73.798  35.853  63.927  1.00  0.00     0.177 C 
HETATM   39  N10 UNL     1      72.475  37.494  65.252  1.00  0.00    -0.278 N 
HETATM   40  C21 UNL     1      73.612  38.281  65.728  1.00  0.00     0.179 C 
HETATM   41  C22 UNL     1      71.165  37.731  65.543  1.00  0.00     0.144 A 
BRANCH  41  42
HETATM   42  N11 UNL     1      70.775  38.689  66.275  1.00  0.00    -0.382 N 
ATOM     43 2H11 UNL     1      70.484  39.595  65.908  1.00  0.00     0.157 HD
ATOM     44 1H11 UNL     1      70.691  38.698  67.292  1.00  0.00     0.157 HD
ENDBRANCH  41  42
ENDBRANCH  33  35
ENDBRANCH  15  33
BRANCH  14  45
HETATM   45  C15 UNL     1      68.131  34.284  63.407  1.00  0.00     0.229 C 
HETATM   46  O6  UNL     1      67.106  34.327  62.669  1.00  0.00    -0.643 OA
HETATM   47  O7  UNL     1      69.299  34.093  62.683  1.00  0.00    -0.643 OA
ENDBRANCH  14  45
BRANCH   6  48
HETATM   48  O3  UNL     1      63.956  32.109  64.666  1.00  0.00    -0.355 OA
ATOM     49  H3  UNL     1      64.244  31.327  64.210  1.00  0.00     0.213 HD
ENDBRANCH   6  48
BRANCH  10  50
HETATM   50  C12 UNL     1      66.827  29.827  64.554  1.00  0.00     0.212 C 
HETATM   51  O4  UNL     1      67.097  29.023  65.473  1.00  0.00    -0.646 OA
HETATM   52  O5  UNL     1      66.828  29.384  63.243  1.00  0.00    -0.646 OA
ENDBRANCH  10  50
TORSDOF 13
ENDMDL
MODEL 5
REMARK VINA RESULT: -6.463674594      4.479      9.136
REMARK  13 active torsions:
REMARK  status: ('A' for Active; 'I' for Inactive)
REMARK    1  A    between atoms: C2_2  and  S1_3 
REMARK    2  A    between atoms: S1_3  and  C3_4 
REMARK    3  A    between atoms: C4_9  and  S2_10 
REMARK    4  A    between atoms: S2_10  and  C5_11 
REMARK    5  A    between atoms: C5_11  and  C6_12 
REMARK    6  A    between atoms: C6_12  and  N3_13 
REMARK       I    between atoms: N3_13  and  C7_15 
REMARK    7  A    between atoms: C7_15  and  C8_17 
REMARK    8  A    between atoms: C10_22  and  O3_23 
REMARK    9  A    between atoms: C11_28  and  C12_29 
REMARK   10  A    between atoms: C14_35  and  C15_36 
REMARK   11  A    between atoms: C16_39  and  N8_40 
REMARK   12  A    between atoms: N8_40  and  C18_42 
REMARK   13  A    between atoms: C22_48  and  N11_49 
ROOT
HETATM    1  C8  UNL     1      70.071  36.362  69.603  1.00  0.00     0.269 C 
HETATM    2  O2  UNL     1      69.214  37.398  70.035  1.00  0.00    -0.328 OA
HETATM    3  C9  UNL     1      69.898  38.234  70.918  1.00  0.00     0.338 C 
HETATM    4  N4  UNL     1      68.998  39.015  71.682  1.00  0.00    -0.332 N 
ATOM      5  H4  UNL     1      67.992  38.849  71.684  1.00  0.00     0.161 HD
HETATM    6  C10 UNL     1      69.610  40.057  72.453  1.00  0.00     0.426 C 
HETATM    7  N5  UNL     1      71.035  40.101  72.434  1.00  0.00    -0.011 N 
ATOM      8  H51 UNL     1      71.373  41.031  72.681  1.00  0.00     0.284 HD
ATOM      9  H52 UNL     1      71.387  40.044  71.478  1.00  0.00     0.284 HD
HETATM   10  C11 UNL     1      71.660  39.074  73.286  1.00  0.00     0.355 C 
HETATM   11  C13 UNL     1      72.014  37.953  72.328  1.00  0.00     0.141 C 
HETATM   12  N6  UNL     1      73.018  37.058  72.757  1.00  0.00    -0.084 NA
HETATM   13  N7  UNL     1      70.842  37.469  71.723  1.00  0.00    -0.284 N 
HETATM   14  C14 UNL     1      70.546  36.061  71.880  1.00  0.00     0.142 C 
HETATM   15  C16 UNL     1      70.127  35.423  70.771  1.00  0.00     0.085 C 
ENDROOT
BRANCH   1  16
HETATM   16  C7  UNL     1      69.591  35.832  68.354  1.00  0.00     0.253 C 
HETATM   17  N3  UNL     1      68.242  35.709  67.943  1.00  0.00    -0.358 N 
ATOM     18  H3  UNL     1      67.518  36.019  68.592  1.00  0.00     0.162 HD
HETATM   19  O1  UNL     1      70.431  35.404  67.469  1.00  0.00    -0.270 OA
BRANCH  17  20
HETATM   20  C6  UNL     1      67.818  35.174  66.671  1.00  0.00     0.133 C 
BRANCH  20  21
HETATM   21  C5  UNL     1      66.926  36.075  65.880  1.00  0.00     0.101 C 
BRANCH  21  22
HETATM   22  S2  UNL     1      67.815  36.790  64.451  1.00  0.00    -0.102 SA
BRANCH  22  23
HETATM   23  C4  UNL     1      69.464  37.313  64.981  1.00  0.00     0.129 A 
HETATM   24  N2  UNL     1      69.796  38.205  65.908  1.00  0.00    -0.287 N 
HETATM   25  N1  UNL     1      71.012  38.447  66.143  1.00  0.00    -0.287 N 
ATOM     26  H2  UNL     1      69.068  38.693  66.429  1.00  0.00     0.188 HD
HETATM   27  C3  UNL     1      71.957  37.810  65.463  1.00  0.00     0.129 A 
ATOM     28  H1  UNL     1      71.267  39.132  66.854  1.00  0.00     0.188 HD
HETATM   29  S3  UNL     1      71.006  36.813  64.435  1.00  0.00    -0.038 SA
BRANCH  27  30
HETATM   30  S1  UNL     1      73.745  37.955  65.583  1.00  0.00    -0.104 SA
BRANCH  30  31
HETATM   31  C2  UNL     1      74.417  36.684  64.447  1.00  0.00     0.077 C 
HETATM   32  C1  UNL     1      74.557  37.201  63.046  1.00  0.00     0.016 C 
ENDBRANCH  30  31
ENDBRANCH  27  30
ENDBRANCH  22  23
ENDBRANCH  21  22
ENDBRANCH  20  21
ENDBRANCH  17  20
ENDBRANCH   1  16
BRANCH  15  33
HETATM   33  N8  UNL     1      69.781  34.081  70.769  1.00  0.00    -0.346 N 
HETATM   34  C17 UNL     1      68.522  33.610  71.315  1.00  0.00     0.156 C 
BRANCH  33  35
HETATM   35  C18 UNL     1      70.675  33.046  70.304  1.00  0.00     0.097 A 
HETATM   36  C19 UNL     1      71.819  32.570  70.954  1.00  0.00     0.143 A 
HETATM   37  N9  UNL     1      72.418  31.619  70.219  1.00  0.00    -0.302 N 
HETATM   38  C20 UNL     1      73.641  30.897  70.585  1.00  0.00     0.177 C 
HETATM   39  N10 UNL     1      71.710  31.459  69.118  1.00  0.00    -0.278 N 
HETATM   40  C21 UNL     1      72.029  30.511  68.052  1.00  0.00     0.179 C 
HETATM   41  C22 UNL     1      70.645  32.308  69.138  1.00  0.00     0.144 A 
BRANCH  41  42
HETATM   42  N11 UNL     1      69.784  32.371  68.209  1.00  0.00    -0.382 N 
ATOM     43 2H11 UNL     1      69.801  33.079  67.474  1.00  0.00     0.157 HD
ATOM     44 1H11 UNL     1      68.987  31.752  68.060  1.00  0.00     0.157 HD
ENDBRANCH  41  42
ENDBRANCH  33  35
ENDBRANCH  15  33
BRANCH  14  45
HETATM   45  C15 UNL     1      70.672  35.463  73.152  1.00  0.00     0.229 C 
HETATM   46  O6  UNL     1      69.880  35.818  74.072  1.00  0.00    -0.643 OA
HETATM   47  O7  UNL     1      71.578  34.502  73.575  1.00  0.00    -0.643 OA
ENDBRANCH  14  45
BRANCH   6  48
HETATM   48  O3  UNL     1      69.191  40.062  73.781  1.00  0.00    -0.355 OA
ATOM     49  H3  UNL     1      69.585  40.762  74.289  1.00  0.00     0.213 HD
ENDBRANCH   6  48
BRANCH  10  50
HETATM   50  C12 UNL     1      72.833  39.652  73.963  1.00  0.00     0.212 C 
HETATM   51  O4  UNL     1      73.599  40.434  73.357  1.00  0.00    -0.646 OA
HETATM   52  O5  UNL     1      73.094  39.332  75.284  1.00  0.00    -0.646 OA
ENDBRANCH  10  50
TORSDOF 13
ENDMDL
