MODEL 1
REMARK VINA RESULT: -5.821592628      0.000      0.000
REMARK  5 active torsions:
REMARK  status: ('A' for Active; 'I' for Inactive)
REMARK    1  A    between atoms: C2_2  and  C3_3 
REMARK    2  A    between atoms: C3_3  and  N1_4 
REMARK    3  A    between atoms: N1_4  and  C4_6 
REMARK    4  A    between atoms: C4_6  and  N2_8 
REMARK    5  A    between atoms: N2_8  and  C5_10 
ROOT
HETATM    1  C5  UNL     1      24.279  17.672  30.935  1.00  0.00     0.191 C 
HETATM    2  C6  UNL     1      24.314  18.700  29.788  1.00  0.00     0.052 C 
HETATM    3  C7  UNL     1      25.781  19.128  29.664  1.00  0.00    -0.009 C 
HETATM    4  C8  UNL     1      26.133  20.281  30.527  1.00  0.00     0.011 C 
HETATM    5  C9  UNL     1      27.171  20.161  31.546  1.00  0.00     0.006 C 
HETATM    6  C10 UNL     1      26.749  20.773  32.895  1.00  0.00     0.129 C 
HETATM    7  N3  UNL     1      25.530  20.113  33.361  1.00  0.00    -0.343 N 
ATOM      8  H3  UNL     1      25.017  20.607  34.091  1.00  0.00     0.164 HD
HETATM    9  C11 UNL     1      24.944  18.856  32.935  1.00  0.00     0.320 C 
HETATM   10  O1  UNL     1      24.041  18.457  33.680  1.00  0.00    -0.247 OA
HETATM   11  N4  UNL     1      25.307  18.099  31.804  1.00  0.00    -0.308 N 
HETATM   12  C12 UNL     1      26.677  17.715  31.378  1.00  0.00     0.091 C 
HETATM   13  C13 UNL     1      27.653  18.777  31.881  1.00  0.00     0.031 C 
HETATM   14  C14 UNL     1      26.693  17.931  29.869  1.00  0.00     0.030 C 
ENDROOT
BRANCH   1  15
HETATM   15  N2  UNL     1      22.978  17.386  31.370  1.00  0.00    -0.346 N 
ATOM     16  H2  UNL     1      22.341  18.148  31.606  1.00  0.00     0.164 HD
BRANCH  15  17
HETATM   17  C4  UNL     1      22.547  16.043  31.483  1.00  0.00     0.169 C 
HETATM   18  S1  UNL     1      23.617  14.829  31.575  1.00  0.00    -0.041 SA
BRANCH  17  19
HETATM   19  N1  UNL     1      21.171  15.720  31.537  1.00  0.00    -0.364 N 
ATOM     20  H1  UNL     1      20.709  15.278  30.742  1.00  0.00     0.162 HD
BRANCH  19  21
HETATM   21  C3  UNL     1      20.430  16.031  32.744  1.00  0.00     0.148 C 
BRANCH  21  22
HETATM   22  C2  UNL     1      19.470  17.124  32.562  1.00  0.00    -0.018 C 
HETATM   23  C1  UNL     1      18.613  17.456  33.513  1.00  0.00     0.008 C 
ENDBRANCH  21  22
ENDBRANCH  19  21
ENDBRANCH  17  19
ENDBRANCH  15  17
ENDBRANCH   1  15
TORSDOF 5
ENDMDL
MODEL 2
REMARK VINA RESULT: -5.815649272      2.655      3.638
REMARK  5 active torsions:
REMARK  status: ('A' for Active; 'I' for Inactive)
REMARK    1  A    between atoms: C2_2  and  C3_3 
REMARK    2  A    between atoms: C3_3  and  N1_4 
REMARK    3  A    between atoms: N1_4  and  C4_6 
REMARK    4  A    between atoms: C4_6  and  N2_8 
REMARK    5  A    between atoms: N2_8  and  C5_10 
ROOT
HETATM    1  C5  UNL     1      23.017  17.289  31.830  1.00  0.00     0.191 C 
HETATM    2  C6  UNL     1      23.896  18.003  30.786  1.00  0.00     0.052 C 
HETATM    3  C7  UNL     1      24.625  16.888  30.028  1.00  0.00    -0.009 C 
HETATM    4  C8  UNL     1      25.914  16.499  30.649  1.00  0.00     0.011 C 
HETATM    5  C9  UNL     1      26.140  15.131  31.106  1.00  0.00     0.006 C 
HETATM    6  C10 UNL     1      26.785  15.074  32.504  1.00  0.00     0.129 C 
HETATM    7  N3  UNL     1      25.923  15.770  33.458  1.00  0.00    -0.343 N 
ATOM      8  H3  UNL     1      26.367  16.026  34.341  1.00  0.00     0.164 HD
HETATM    9  C11 UNL     1      24.530  16.150  33.333  1.00  0.00     0.320 C 
HETATM   10  O1  UNL     1      24.022  16.517  34.399  1.00  0.00    -0.247 OA
HETATM   11  N4  UNL     1      23.754  16.130  32.156  1.00  0.00    -0.308 N 
HETATM   12  C12 UNL     1      23.642  15.026  31.169  1.00  0.00     0.091 C 
HETATM   13  C13 UNL     1      24.943  14.226  31.192  1.00  0.00     0.031 C 
HETATM   14  C14 UNL     1      23.692  15.711  29.808  1.00  0.00     0.030 C 
ENDROOT
BRANCH   1  15
HETATM   15  N2  UNL     1      22.497  18.162  32.793  1.00  0.00    -0.346 N 
ATOM     16  H2  UNL     1      23.103  18.857  33.232  1.00  0.00     0.164 HD
BRANCH  15  17
HETATM   17  C4  UNL     1      21.133  18.083  33.160  1.00  0.00     0.169 C 
HETATM   18  S1  UNL     1      20.243  16.781  32.785  1.00  0.00    -0.041 SA
BRANCH  17  19
HETATM   19  N1  UNL     1      20.508  19.129  33.880  1.00  0.00    -0.364 N 
ATOM     20  H1  UNL     1      21.035  19.958  34.156  1.00  0.00     0.162 HD
BRANCH  19  21
HETATM   21  C3  UNL     1      19.105  18.998  34.219  1.00  0.00     0.148 C 
BRANCH  21  22
HETATM   22  C2  UNL     1      18.258  19.989  33.546  1.00  0.00    -0.018 C 
HETATM   23  C1  UNL     1      18.513  21.284  33.627  1.00  0.00     0.008 C 
ENDBRANCH  21  22
ENDBRANCH  19  21
ENDBRANCH  17  19
ENDBRANCH  15  17
ENDBRANCH   1  15
TORSDOF 5
ENDMDL
MODEL 3
REMARK VINA RESULT: -5.780818311      3.580      4.694
REMARK  5 active torsions:
REMARK  status: ('A' for Active; 'I' for Inactive)
REMARK    1  A    between atoms: C2_2  and  C3_3 
REMARK    2  A    between atoms: C3_3  and  N1_4 
REMARK    3  A    between atoms: N1_4  and  C4_6 
REMARK    4  A    between atoms: C4_6  and  N2_8 
REMARK    5  A    between atoms: N2_8  and  C5_10 
ROOT
HETATM    1  C5  UNL     1      23.663  18.858  35.346  1.00  0.00     0.191 C 
HETATM    2  C6  UNL     1      24.077  17.376  35.427  1.00  0.00     0.052 C 
HETATM    3  C7  UNL     1      25.017  17.277  36.634  1.00  0.00    -0.009 C 
HETATM    4  C8  UNL     1      26.441  17.515  36.292  1.00  0.00     0.011 C 
HETATM    5  C9  UNL     1      27.185  18.604  36.915  1.00  0.00     0.006 C 
HETATM    6  C10 UNL     1      28.016  19.410  35.899  1.00  0.00     0.129 C 
HETATM    7  N3  UNL     1      27.125  19.953  34.874  1.00  0.00    -0.343 N 
ATOM      8  H3  UNL     1      27.584  20.268  34.019  1.00  0.00     0.164 HD
HETATM    9  C11 UNL     1      25.684  20.107  34.896  1.00  0.00     0.320 C 
HETATM   10  O1  UNL     1      25.250  20.811  33.976  1.00  0.00    -0.247 OA
HETATM   11  N4  UNL     1      24.792  19.551  35.835  1.00  0.00    -0.308 N 
HETATM   12  C12 UNL     1      24.914  19.570  37.315  1.00  0.00     0.091 C 
HETATM   13  C13 UNL     1      26.396  19.633  37.676  1.00  0.00     0.031 C 
HETATM   14  C14 UNL     1      24.519  18.165  37.759  1.00  0.00     0.030 C 
ENDROOT
BRANCH   1  15
HETATM   15  N2  UNL     1      23.031  19.181  34.138  1.00  0.00    -0.346 N 
ATOM     16  H2  UNL     1      23.403  19.928  33.552  1.00  0.00     0.164 HD
BRANCH  15  17
HETATM   17  C4  UNL     1      21.875  18.472  33.732  1.00  0.00     0.169 C 
HETATM   18  S1  UNL     1      21.936  17.406  32.513  1.00  0.00    -0.041 SA
BRANCH  17  19
HETATM   19  N1  UNL     1      20.636  18.659  34.389  1.00  0.00    -0.364 N 
ATOM     20  H1  UNL     1      20.562  19.281  35.194  1.00  0.00     0.162 HD
BRANCH  19  21
HETATM   21  C3  UNL     1      19.473  17.949  33.895  1.00  0.00     0.148 C 
BRANCH  21  22
HETATM   22  C2  UNL     1      18.451  18.839  33.337  1.00  0.00    -0.018 C 
HETATM   23  C1  UNL     1      18.367  20.108  33.700  1.00  0.00     0.008 C 
ENDBRANCH  21  22
ENDBRANCH  19  21
ENDBRANCH  17  19
ENDBRANCH  15  17
ENDBRANCH   1  15
TORSDOF 5
ENDMDL
MODEL 4
REMARK VINA RESULT: -5.772188416      9.655     11.165
REMARK  5 active torsions:
REMARK  status: ('A' for Active; 'I' for Inactive)
REMARK    1  A    between atoms: C2_2  and  C3_3 
REMARK    2  A    between atoms: C3_3  and  N1_4 
REMARK    3  A    between atoms: N1_4  and  C4_6 
REMARK    4  A    between atoms: C4_6  and  N2_8 
REMARK    5  A    between atoms: N2_8  and  C5_10 
ROOT
HETATM    1  C5  UNL     1      26.072   6.890  33.840  1.00  0.00     0.191 C 
HETATM    2  C6  UNL     1      26.218   5.415  33.419  1.00  0.00     0.052 C 
HETATM    3  C7  UNL     1      27.557   5.330  32.676  1.00  0.00    -0.009 C 
HETATM    4  C8  UNL     1      27.442   5.593  31.221  1.00  0.00     0.011 C 
HETATM    5  C9  UNL     1      28.173   6.693  30.603  1.00  0.00     0.006 C 
HETATM    6  C10 UNL     1      27.298   7.516  29.637  1.00  0.00     0.129 C 
HETATM    7  N3  UNL     1      26.147   8.045  30.367  1.00  0.00    -0.343 N 
ATOM      8  H3  UNL     1      25.374   8.371  29.785  1.00  0.00     0.164 HD
HETATM    9  C11 UNL     1      25.943   8.175  31.796  1.00  0.00     0.320 C 
HETATM   10  O1  UNL     1      24.966   8.873  32.093  1.00  0.00    -0.247 OA
HETATM   11  N4  UNL     1      26.732   7.601  32.814  1.00  0.00    -0.308 N 
HETATM   12  C12 UNL     1      28.213   7.619  32.925  1.00  0.00     0.091 C 
HETATM   13  C13 UNL     1      28.800   7.707  31.519  1.00  0.00     0.031 C 
HETATM   14  C14 UNL     1      28.590   6.207  33.360  1.00  0.00     0.030 C 
ENDROOT
BRANCH   1  15
HETATM   15  N2  UNL     1      24.781   7.204  34.282  1.00  0.00    -0.346 N 
ATOM     16  H2  UNL     1      23.972   6.946  33.717  1.00  0.00     0.164 HD
BRANCH  15  17
HETATM   17  C4  UNL     1      24.598   7.880  35.512  1.00  0.00     0.169 C 
HETATM   18  S1  UNL     1      25.470   7.484  36.819  1.00  0.00    -0.041 SA
BRANCH  17  19
HETATM   19  N1  UNL     1      23.661   8.933  35.634  1.00  0.00    -0.364 N 
ATOM     20  H1  UNL     1      22.766   8.782  36.100  1.00  0.00     0.162 HD
BRANCH  19  21
HETATM   21  C3  UNL     1      23.997  10.230  35.082  1.00  0.00     0.148 C 
BRANCH  21  22
HETATM   22  C2  UNL     1      23.012  10.713  34.108  1.00  0.00    -0.018 C 
HETATM   23  C1  UNL     1      23.228  11.800  33.389  1.00  0.00     0.008 C 
ENDBRANCH  21  22
ENDBRANCH  19  21
ENDBRANCH  17  19
ENDBRANCH  15  17
ENDBRANCH   1  15
TORSDOF 5
ENDMDL
MODEL 5
REMARK VINA RESULT: -5.772021870      2.894      4.433
REMARK  5 active torsions:
REMARK  status: ('A' for Active; 'I' for Inactive)
REMARK    1  A    between atoms: C2_2  and  C3_3 
REMARK    2  A    between atoms: C3_3  and  N1_4 
REMARK    3  A    between atoms: N1_4  and  C4_6 
REMARK    4  A    between atoms: C4_6  and  N2_8 
REMARK    5  A    between atoms: N2_8  and  C5_10 
ROOT
HETATM    1  C5  UNL     1      22.523  17.424  32.621  1.00  0.00     0.191 C 
HETATM    2  C6  UNL     1      23.909  17.972  33.010  1.00  0.00     0.052 C 
HETATM    3  C7  UNL     1      24.853  17.545  31.880  1.00  0.00    -0.009 C 
HETATM    4  C8  UNL     1      25.468  16.213  32.097  1.00  0.00     0.011 C 
HETATM    5  C9  UNL     1      25.259  15.131  31.142  1.00  0.00     0.006 C 
HETATM    6  C10 UNL     1      24.921  13.794  31.829  1.00  0.00     0.129 C 
HETATM    7  N3  UNL     1      23.719  13.964  32.645  1.00  0.00    -0.343 N 
ATOM      8  H3  UNL     1      23.559  13.237  33.343  1.00  0.00     0.164 HD
HETATM    9  C11 UNL     1      22.720  15.015  32.604  1.00  0.00     0.320 C 
HETATM   10  O1  UNL     1      21.704  14.754  33.259  1.00  0.00    -0.247 OA
HETATM   11  N4  UNL     1      22.815  16.239  31.912  1.00  0.00    -0.308 N 
HETATM   12  C12 UNL     1      23.231  16.447  30.502  1.00  0.00     0.091 C 
HETATM   13  C13 UNL     1      24.183  15.319  30.109  1.00  0.00     0.031 C 
HETATM   14  C14 UNL     1      24.149  17.664  30.540  1.00  0.00     0.030 C 
ENDROOT
BRANCH   1  15
HETATM   15  N2  UNL     1      21.601  17.479  33.675  1.00  0.00    -0.346 N 
ATOM     16  H2  UNL     1      21.841  17.083  34.584  1.00  0.00     0.164 HD
BRANCH  15  17
HETATM   17  C4  UNL     1      20.336  18.083  33.479  1.00  0.00     0.169 C 
HETATM   18  S1  UNL     1      19.142  17.290  32.721  1.00  0.00    -0.041 SA
BRANCH  17  19
HETATM   19  N1  UNL     1      20.069  19.389  33.953  1.00  0.00    -0.364 N 
ATOM     20  H1  UNL     1      20.833  20.025  34.183  1.00  0.00     0.162 HD
BRANCH  19  21
HETATM   21  C3  UNL     1      18.689  19.804  34.107  1.00  0.00     0.148 C 
BRANCH  21  22
HETATM   22  C2  UNL     1      18.370  21.023  33.357  1.00  0.00    -0.018 C 
HETATM   23  C1  UNL     1      18.726  22.218  33.797  1.00  0.00     0.008 C 
ENDBRANCH  21  22
ENDBRANCH  19  21
ENDBRANCH  17  19
ENDBRANCH  15  17
ENDBRANCH   1  15
TORSDOF 5
ENDMDL
