MODEL 1
REMARK VINA RESULT: -6.362261744      0.000      0.000
REMARK  5 active torsions:
REMARK  status: ('A' for Active; 'I' for Inactive)
REMARK       I    between atoms: N1_2  and  C2_4 
REMARK       I    between atoms: C2_4  and  N5_18 
REMARK    1  A    between atoms: N2_5  and  C3_7 
REMARK    2  A    between atoms: C3_7  and  N3_9 
REMARK    3  A    between atoms: N3_9  and  C4_11 
REMARK    4  A    between atoms: C4_11  and  C5_12 
REMARK    5  A    between atoms: N5_18  and  C10_20 
ROOT
HETATM    1  C1  UNL     1      23.788  17.810  35.351  1.00  0.00     0.165 C 
HETATM    2  N1  UNL     1      22.734  17.265  34.513  1.00  0.00    -0.231 N 
ATOM      3  H1  UNL     1      22.427  16.300  34.638  1.00  0.00     0.177 HD
HETATM    4  C2  UNL     1      22.134  18.084  33.515  1.00  0.00     0.676 C 
HETATM    5  N2  UNL     1      22.453  17.899  32.298  1.00  0.00    -0.167 N 
ATOM      6  H2  UNL     1      22.033  18.478  31.572  1.00  0.00     0.186 HD
HETATM    7  N5  UNL     1      21.211  19.069  33.888  1.00  0.00    -0.222 N 
ATOM      8  H5  UNL     1      21.508  20.041  33.968  1.00  0.00     0.178 HD
ENDROOT
BRANCH   5   9
HETATM    9  C3  UNL     1      23.417  16.864  31.932  1.00  0.00     0.186 C 
HETATM   10  S1  UNL     1      22.724  15.462  31.502  1.00  0.00    -0.040 SA
BRANCH   9  11
HETATM   11  N3  UNL     1      24.782  17.149  31.887  1.00  0.00    -0.365 N 
ATOM     12  H3  UNL     1      25.178  17.384  32.797  1.00  0.00     0.161 HD
BRANCH  11  13
HETATM   13  C4  UNL     1      25.731  17.177  30.839  1.00  0.00     0.157 C 
BRANCH  13  14
HETATM   14  C5  UNL     1      25.523  18.030  29.673  1.00  0.00     0.240 C 
HETATM   15  C6  UNL     1      24.763  19.293  29.775  1.00  0.00     0.039 C 
HETATM   16  C7  UNL     1      25.817  20.262  30.331  1.00  0.00     0.032 C 
HETATM   17  C8  UNL     1      27.147  19.544  30.089  1.00  0.00     0.272 C 
HETATM   18  N4  UNL     1      26.792  18.543  29.123  1.00  0.00     0.090 N 
HETATM   19  C9  UNL     1      27.762  17.519  28.918  1.00  0.00     0.310 C 
ENDBRANCH  13  14
ENDBRANCH  11  13
ENDBRANCH   9  11
ENDBRANCH   5   9
BRANCH   7  20
HETATM   20  C10 UNL     1      19.827  18.707  34.161  1.00  0.00     0.099 C 
HETATM   21  C11 UNL     1      18.916  19.878  33.872  1.00  0.00     0.026 C 
HETATM   22  C12 UNL     1      17.623  19.286  33.357  1.00  0.00     0.002 C 
HETATM   23  C13 UNL     1      18.089  18.072  32.577  1.00  0.00     0.002 C 
HETATM   24  C14 UNL     1      19.377  17.633  33.204  1.00  0.00     0.026 C 
ENDBRANCH   7  20
TORSDOF 5
ENDMDL
MODEL 2
REMARK VINA RESULT: -6.324701760      2.648      6.548
REMARK  5 active torsions:
REMARK  status: ('A' for Active; 'I' for Inactive)
REMARK       I    between atoms: N1_2  and  C2_4 
REMARK       I    between atoms: C2_4  and  N5_18 
REMARK    1  A    between atoms: N2_5  and  C3_7 
REMARK    2  A    between atoms: C3_7  and  N3_9 
REMARK    3  A    between atoms: N3_9  and  C4_11 
REMARK    4  A    between atoms: C4_11  and  C5_12 
REMARK    5  A    between atoms: N5_18  and  C10_20 
ROOT
HETATM    1  C1  UNL     1      25.543  18.607  31.551  1.00  0.00     0.165 C 
HETATM    2  N1  UNL     1      24.407  17.906  32.126  1.00  0.00    -0.231 N 
ATOM      3  H1  UNL     1      23.465  18.085  31.779  1.00  0.00     0.177 HD
HETATM    4  C2  UNL     1      24.618  16.967  33.175  1.00  0.00     0.676 C 
HETATM    5  N2  UNL     1      24.321  17.304  34.365  1.00  0.00    -0.167 N 
ATOM      6  H2  UNL     1      24.467  16.643  35.128  1.00  0.00     0.186 HD
HETATM    7  N5  UNL     1      25.142  15.702  32.881  1.00  0.00    -0.222 N 
ATOM      8  H5  UNL     1      26.134  15.516  33.028  1.00  0.00     0.178 HD
ENDROOT
BRANCH   5   9
HETATM    9  C3  UNL     1      23.774  18.628  34.649  1.00  0.00     0.186 C 
HETATM   10  S1  UNL     1      24.875  19.669  35.227  1.00  0.00    -0.040 SA
BRANCH   9  11
HETATM   11  N3  UNL     1      22.446  18.929  34.342  1.00  0.00    -0.365 N 
ATOM     12  H3  UNL     1      22.286  19.920  34.163  1.00  0.00     0.161 HD
BRANCH  11  13
HETATM   13  C4  UNL     1      21.277  18.142  34.228  1.00  0.00     0.157 C 
BRANCH  13  14
HETATM   14  C5  UNL     1      20.689  17.874  32.919  1.00  0.00     0.240 C 
HETATM   15  C6  UNL     1      20.746  16.526  32.316  1.00  0.00     0.039 C 
HETATM   16  C7  UNL     1      19.584  15.807  33.017  1.00  0.00     0.032 C 
HETATM   17  C8  UNL     1      18.754  16.943  33.621  1.00  0.00     0.272 C 
HETATM   18  N4  UNL     1      19.231  18.094  32.907  1.00  0.00     0.090 N 
HETATM   19  C9  UNL     1      18.855  19.354  33.457  1.00  0.00     0.310 C 
ENDBRANCH  13  14
ENDBRANCH  11  13
ENDBRANCH   9  11
ENDBRANCH   5   9
BRANCH   7  20
HETATM   20  C10 UNL     1      24.274  14.653  32.367  1.00  0.00     0.099 C 
HETATM   21  C11 UNL     1      25.072  13.395  32.109  1.00  0.00     0.026 C 
HETATM   22  C12 UNL     1      24.143  12.241  32.412  1.00  0.00     0.002 C 
HETATM   23  C13 UNL     1      23.311  12.763  33.566  1.00  0.00     0.002 C 
HETATM   24  C14 UNL     1      23.269  14.254  33.418  1.00  0.00     0.026 C 
ENDBRANCH   7  20
TORSDOF 5
ENDMDL
MODEL 3
REMARK VINA RESULT: -6.238932042      0.997      1.610
REMARK  5 active torsions:
REMARK  status: ('A' for Active; 'I' for Inactive)
REMARK       I    between atoms: N1_2  and  C2_4 
REMARK       I    between atoms: C2_4  and  N5_18 
REMARK    1  A    between atoms: N2_5  and  C3_7 
REMARK    2  A    between atoms: C3_7  and  N3_9 
REMARK    3  A    between atoms: N3_9  and  C4_11 
REMARK    4  A    between atoms: C4_11  and  C5_12 
REMARK    5  A    between atoms: N5_18  and  C10_20 
ROOT
HETATM    1  C1  UNL     1      23.709  17.875  35.582  1.00  0.00     0.165 C 
HETATM    2  N1  UNL     1      22.733  17.316  34.663  1.00  0.00    -0.231 N 
ATOM      3  H1  UNL     1      22.452  16.339  34.745  1.00  0.00     0.177 HD
HETATM    4  C2  UNL     1      22.170  18.141  33.648  1.00  0.00     0.676 C 
HETATM    5  N2  UNL     1      22.574  17.998  32.451  1.00  0.00    -0.167 N 
ATOM      6  H2  UNL     1      22.181  18.582  31.712  1.00  0.00     0.186 HD
HETATM    7  N5  UNL     1      21.190  19.084  33.983  1.00  0.00    -0.222 N 
ATOM      8  H5  UNL     1      21.447  20.063  34.106  1.00  0.00     0.178 HD
ENDROOT
BRANCH   5   9
HETATM    9  C3  UNL     1      23.596  17.007  32.124  1.00  0.00     0.186 C 
HETATM   10  S1  UNL     1      22.991  15.647  31.479  1.00  0.00    -0.040 SA
BRANCH   9  11
HETATM   11  N3  UNL     1      24.950  17.301  32.289  1.00  0.00    -0.365 N 
ATOM     12  H3  UNL     1      25.538  16.472  32.372  1.00  0.00     0.161 HD
BRANCH  11  13
HETATM   13  C4  UNL     1      25.674  18.513  32.364  1.00  0.00     0.157 C 
BRANCH  13  14
HETATM   14  C5  UNL     1      26.751  18.793  31.420  1.00  0.00     0.240 C 
HETATM   15  C6  UNL     1      26.887  18.026  30.164  1.00  0.00     0.039 C 
HETATM   16  C7  UNL     1      25.866  18.717  29.249  1.00  0.00     0.032 C 
HETATM   17  C8  UNL     1      25.574  20.044  29.953  1.00  0.00     0.272 C 
HETATM   18  N4  UNL     1      26.671  20.160  30.871  1.00  0.00     0.090 N 
HETATM   19  C9  UNL     1      26.521  21.155  31.882  1.00  0.00     0.310 C 
ENDBRANCH  13  14
ENDBRANCH  11  13
ENDBRANCH   9  11
ENDBRANCH   5   9
BRANCH   7  20
HETATM   20  C10 UNL     1      19.805  18.668  34.156  1.00  0.00     0.099 C 
HETATM   21  C11 UNL     1      18.871  19.783  33.743  1.00  0.00     0.026 C 
HETATM   22  C12 UNL     1      17.654  19.111  33.148  1.00  0.00     0.002 C 
HETATM   23  C13 UNL     1      18.236  17.892  32.461  1.00  0.00     0.002 C 
HETATM   24  C14 UNL     1      19.484  17.538  33.210  1.00  0.00     0.026 C 
ENDBRANCH   7  20
TORSDOF 5
ENDMDL
MODEL 4
REMARK VINA RESULT: -6.180617252      2.286      6.525
REMARK  5 active torsions:
REMARK  status: ('A' for Active; 'I' for Inactive)
REMARK       I    between atoms: N1_2  and  C2_4 
REMARK       I    between atoms: C2_4  and  N5_18 
REMARK    1  A    between atoms: N2_5  and  C3_7 
REMARK    2  A    between atoms: C3_7  and  N3_9 
REMARK    3  A    between atoms: N3_9  and  C4_11 
REMARK    4  A    between atoms: C4_11  and  C5_12 
REMARK    5  A    between atoms: N5_18  and  C10_20 
ROOT
HETATM    1  C1  UNL     1      26.217  20.574  32.974  1.00  0.00     0.165 C 
HETATM    2  N1  UNL     1      25.159  19.661  32.580  1.00  0.00    -0.231 N 
ATOM      3  H1  UNL     1      24.341  20.009  32.079  1.00  0.00     0.177 HD
HETATM    4  C2  UNL     1      25.269  18.277  32.898  1.00  0.00     0.676 C 
HETATM    5  N2  UNL     1      24.572  17.813  33.856  1.00  0.00    -0.167 N 
ATOM      6  H2  UNL     1      24.640  16.824  34.096  1.00  0.00     0.186 HD
HETATM    7  N5  UNL     1      26.133  17.461  32.158  1.00  0.00    -0.222 N 
ATOM      8  H5  UNL     1      27.055  17.230  32.526  1.00  0.00     0.178 HD
ENDROOT
BRANCH   5   9
HETATM    9  C3  UNL     1      23.676  18.683  34.613  1.00  0.00     0.186 C 
HETATM   10  S1  UNL     1      24.335  19.249  35.984  1.00  0.00    -0.040 SA
BRANCH   9  11
HETATM   11  N3  UNL     1      22.423  19.027  34.106  1.00  0.00    -0.365 N 
ATOM     12  H3  UNL     1      22.406  19.941  33.653  1.00  0.00     0.161 HD
BRANCH  11  13
HETATM   13  C4  UNL     1      21.171  18.370  34.091  1.00  0.00     0.157 C 
BRANCH  13  14
HETATM   14  C5  UNL     1      20.557  17.974  32.828  1.00  0.00     0.240 C 
HETATM   15  C6  UNL     1      20.708  16.603  32.299  1.00  0.00     0.039 C 
HETATM   16  C7  UNL     1      19.643  15.831  33.091  1.00  0.00     0.032 C 
HETATM   17  C8  UNL     1      18.741  16.926  33.668  1.00  0.00     0.272 C 
HETATM   18  N4  UNL     1      19.085  18.068  32.869  1.00  0.00     0.090 N 
HETATM   19  C9  UNL     1      18.623  19.322  33.364  1.00  0.00     0.310 C 
ENDBRANCH  13  14
ENDBRANCH  11  13
ENDBRANCH   9  11
ENDBRANCH   5   9
BRANCH   7  20
HETATM   20  C10 UNL     1      25.716  16.941  30.863  1.00  0.00     0.099 C 
HETATM   21  C11 UNL     1      25.797  15.431  30.858  1.00  0.00     0.026 C 
HETATM   22  C12 UNL     1      24.665  14.954  29.975  1.00  0.00     0.002 C 
HETATM   23  C13 UNL     1      23.570  15.967  30.245  1.00  0.00     0.002 C 
HETATM   24  C14 UNL     1      24.256  17.241  30.633  1.00  0.00     0.026 C 
ENDBRANCH   7  20
TORSDOF 5
ENDMDL
MODEL 5
REMARK VINA RESULT: -6.177812792      1.977      2.394
REMARK  5 active torsions:
REMARK  status: ('A' for Active; 'I' for Inactive)
REMARK       I    between atoms: N1_2  and  C2_4 
REMARK       I    between atoms: C2_4  and  N5_18 
REMARK    1  A    between atoms: N2_5  and  C3_7 
REMARK    2  A    between atoms: C3_7  and  N3_9 
REMARK    3  A    between atoms: N3_9  and  C4_11 
REMARK    4  A    between atoms: C4_11  and  C5_12 
REMARK    5  A    between atoms: N5_18  and  C10_20 
ROOT
HETATM    1  C1  UNL     1      23.473  16.142  34.150  1.00  0.00     0.165 C 
HETATM    2  N1  UNL     1      23.202  17.417  33.509  1.00  0.00    -0.231 N 
ATOM      3  H1  UNL     1      23.504  17.584  32.549  1.00  0.00     0.177 HD
HETATM    4  C2  UNL     1      22.512  18.434  34.230  1.00  0.00     0.676 C 
HETATM    5  N2  UNL     1      23.176  19.419  34.684  1.00  0.00    -0.167 N 
ATOM      6  H2  UNL     1      22.696  20.155  35.202  1.00  0.00     0.186 HD
HETATM    7  N5  UNL     1      21.128  18.332  34.421  1.00  0.00    -0.222 N 
ATOM      8  H5  UNL     1      20.762  17.985  35.307  1.00  0.00     0.178 HD
ENDROOT
BRANCH   5   9
HETATM    9  C3  UNL     1      24.618  19.505  34.470  1.00  0.00     0.186 C 
HETATM   10  S1  UNL     1      25.488  19.117  35.783  1.00  0.00    -0.040 SA
BRANCH   9  11
HETATM   11  N3  UNL     1      25.133  19.808  33.209  1.00  0.00    -0.365 N 
ATOM     12  H3  UNL     1      24.667  20.596  32.759  1.00  0.00     0.161 HD
BRANCH  11  13
HETATM   13  C4  UNL     1      26.168  19.248  32.427  1.00  0.00     0.157 C 
BRANCH  13  14
HETATM   14  C5  UNL     1      25.856  18.410  31.273  1.00  0.00     0.240 C 
HETATM   15  C6  UNL     1      24.555  18.515  30.581  1.00  0.00     0.039 C 
HETATM   16  C7  UNL     1      24.768  19.735  29.672  1.00  0.00     0.032 C 
HETATM   17  C8  UNL     1      26.288  19.922  29.652  1.00  0.00     0.272 C 
HETATM   18  N4  UNL     1      26.766  18.659  30.139  1.00  0.00     0.090 N 
HETATM   19  C9  UNL     1      28.141  18.629  30.514  1.00  0.00     0.310 C 
ENDBRANCH  13  14
ENDBRANCH  11  13
ENDBRANCH   9  11
ENDBRANCH   5   9
BRANCH   7  20
HETATM   20  C10 UNL     1      20.213  18.721  33.359  1.00  0.00     0.099 C 
HETATM   21  C11 UNL     1      19.436  17.518  32.873  1.00  0.00     0.026 C 
HETATM   22  C12 UNL     1      18.066  18.031  32.490  1.00  0.00     0.002 C 
HETATM   23  C13 UNL     1      17.815  19.130  33.503  1.00  0.00     0.002 C 
HETATM   24  C14 UNL     1      19.160  19.655  33.902  1.00  0.00     0.026 C 
ENDBRANCH   7  20
TORSDOF 5
ENDMDL
