MODEL 1
REMARK VINA RESULT: -6.229493272      0.000      0.000
REMARK  5 active torsions:
REMARK  status: ('A' for Active; 'I' for Inactive)
REMARK    1  A    between atoms: C2_2  and  C3_3 
REMARK    2  A    between atoms: C3_3  and  N1_4 
REMARK       I    between atoms: C4_6  and  N3_8 
REMARK       I    between atoms: N3_8  and  C5_10 
REMARK       I    between atoms: C5_10  and  N5_14 
REMARK    3  A    between atoms: N5_14  and  C7_16 
REMARK    4  A    between atoms: C7_16  and  C8_17 
REMARK    5  A    between atoms: C8_17  and  N6_18 
ROOT
HETATM    1  N1  UNL     1      20.955  16.608  33.064  1.00  0.00    -0.364 N 
ATOM      2  H1  UNL     1      20.777  17.347  33.744  1.00  0.00     0.162 HD
HETATM    3  C4  UNL     1      22.088  15.996  33.119  1.00  0.00     0.202 C 
HETATM    4  N2  UNL     1      23.001  16.403  34.128  1.00  0.00    -0.063 NA
HETATM    5  N3  UNL     1      22.366  14.960  32.183  1.00  0.00    -0.164 N 
ATOM      6  H3  UNL     1      21.594  14.372  31.870  1.00  0.00     0.187 HD
HETATM    7  C5  UNL     1      23.651  14.706  31.666  1.00  0.00     0.675 C 
HETATM    8  N4  UNL     1      24.219  15.503  30.826  1.00  0.00    -0.231 N 
ATOM      9  H4  UNL     1      25.151  15.276  30.480  1.00  0.00     0.177 HD
HETATM   10  C6  UNL     1      23.566  16.718  30.357  1.00  0.00     0.165 C 
HETATM   11  N5  UNL     1      24.402  13.547  32.046  1.00  0.00    -0.225 N 
ATOM     12  H5  UNL     1      25.234  13.261  31.530  1.00  0.00     0.177 HD
ENDROOT
BRANCH  11  13
HETATM   13  C7  UNL     1      23.930  12.795  33.191  1.00  0.00     0.166 C 
BRANCH  13  14
HETATM   14  C8  UNL     1      24.745  11.565  33.452  1.00  0.00     0.257 C 
BRANCH  14  15
HETATM   15  N6  UNL     1      24.043  10.333  33.335  1.00  0.00    -0.066 N 
HETATM   16  C9  UNL     1      22.610  10.431  33.513  1.00  0.00     0.272 C 
HETATM   17  C10 UNL     1      24.514   9.483  34.442  1.00  0.00     0.265 C 
HETATM   18  C11 UNL     1      25.873   8.959  34.025  1.00  0.00     0.264 C 
HETATM   19  N7  UNL     1      25.626   7.807  33.172  1.00  0.00    -0.071 N 
HETATM   20  C12 UNL     1      26.820   7.471  32.424  1.00  0.00     0.272 C 
HETATM   21  C13 UNL     1      25.343   6.677  34.068  1.00  0.00     0.272 C 
HETATM   22  C14 UNL     1      24.503   8.120  32.340  1.00  0.00     0.264 C 
HETATM   23  C15 UNL     1      24.307   9.609  32.125  1.00  0.00     0.265 C 
ENDBRANCH  14  15
ENDBRANCH  13  14
ENDBRANCH  11  13
BRANCH   1  24
HETATM   24  C3  UNL     1      19.932  16.315  32.109  1.00  0.00     0.122 C 
BRANCH  24  25
HETATM   25  C2  UNL     1      18.849  17.388  32.275  1.00  0.00     0.015 C 
HETATM   26  C1  UNL     1      18.738  17.838  33.712  1.00  0.00     0.006 C 
ENDBRANCH  24  25
ENDBRANCH   1  24
TORSDOF 5
ENDMDL
MODEL 2
REMARK VINA RESULT: -6.014940983      0.936      1.263
REMARK  5 active torsions:
REMARK  status: ('A' for Active; 'I' for Inactive)
REMARK    1  A    between atoms: C2_2  and  C3_3 
REMARK    2  A    between atoms: C3_3  and  N1_4 
REMARK       I    between atoms: C4_6  and  N3_8 
REMARK       I    between atoms: N3_8  and  C5_10 
REMARK       I    between atoms: C5_10  and  N5_14 
REMARK    3  A    between atoms: N5_14  and  C7_16 
REMARK    4  A    between atoms: C7_16  and  C8_17 
REMARK    5  A    between atoms: C8_17  and  N6_18 
ROOT
HETATM    1  N1  UNL     1      21.058  16.519  33.026  1.00  0.00    -0.364 N 
ATOM      2  H1  UNL     1      20.892  17.243  33.724  1.00  0.00     0.162 HD
HETATM    3  C4  UNL     1      22.184  15.893  33.061  1.00  0.00     0.202 C 
HETATM    4  N2  UNL     1      23.106  16.266  34.076  1.00  0.00    -0.063 NA
HETATM    5  N3  UNL     1      22.447  14.877  32.100  1.00  0.00    -0.164 N 
ATOM      6  H3  UNL     1      21.667  14.305  31.776  1.00  0.00     0.187 HD
HETATM    7  C5  UNL     1      23.727  14.621  31.571  1.00  0.00     0.675 C 
HETATM    8  N4  UNL     1      24.300  15.431  30.748  1.00  0.00    -0.231 N 
ATOM      9  H4  UNL     1      25.228  15.202  30.393  1.00  0.00     0.177 HD
HETATM   10  C6  UNL     1      23.659  16.665  30.311  1.00  0.00     0.165 C 
HETATM   11  N5  UNL     1      24.465  13.444  31.920  1.00  0.00    -0.225 N 
ATOM     12  H5  UNL     1      25.292  13.162  31.394  1.00  0.00     0.177 HD
ENDROOT
BRANCH  11  13
HETATM   13  C7  UNL     1      23.989  12.670  33.049  1.00  0.00     0.166 C 
BRANCH  13  14
HETATM   14  C8  UNL     1      23.706  11.243  32.694  1.00  0.00     0.257 C 
BRANCH  14  15
HETATM   15  N6  UNL     1      24.390  10.273  33.478  1.00  0.00    -0.066 N 
HETATM   16  C9  UNL     1      24.133  10.350  34.901  1.00  0.00     0.272 C 
HETATM   17  C10 UNL     1      25.828  10.561  33.329  1.00  0.00     0.265 C 
HETATM   18  C11 UNL     1      26.230  10.017  31.974  1.00  0.00     0.264 C 
HETATM   19  N7  UNL     1      26.478   8.596  32.159  1.00  0.00    -0.071 N 
HETATM   20  C12 UNL     1      26.495   7.919  30.878  1.00  0.00     0.272 C 
HETATM   21  C13 UNL     1      27.828   8.478  32.730  1.00  0.00     0.272 C 
HETATM   22  C14 UNL     1      25.477   8.096  33.053  1.00  0.00     0.264 C 
HETATM   23  C15 UNL     1      24.202   8.917  33.051  1.00  0.00     0.265 C 
ENDBRANCH  14  15
ENDBRANCH  13  14
ENDBRANCH  11  13
BRANCH   1  24
HETATM   24  C3  UNL     1      20.028  16.261  32.069  1.00  0.00     0.122 C 
BRANCH  24  25
HETATM   25  C2  UNL     1      18.975  17.361  32.243  1.00  0.00     0.015 C 
HETATM   26  C1  UNL     1      18.724  17.657  33.702  1.00  0.00     0.006 C 
ENDBRANCH  24  25
ENDBRANCH   1  24
TORSDOF 5
ENDMDL
MODEL 3
REMARK VINA RESULT: -5.989831206      1.552      8.198
REMARK  5 active torsions:
REMARK  status: ('A' for Active; 'I' for Inactive)
REMARK    1  A    between atoms: C2_2  and  C3_3 
REMARK    2  A    between atoms: C3_3  and  N1_4 
REMARK       I    between atoms: C4_6  and  N3_8 
REMARK       I    between atoms: N3_8  and  C5_10 
REMARK       I    between atoms: C5_10  and  N5_14 
REMARK    3  A    between atoms: N5_14  and  C7_16 
REMARK    4  A    between atoms: C7_16  and  C8_17 
REMARK    5  A    between atoms: C8_17  and  N6_18 
ROOT
HETATM    1  N1  UNL     1      24.651   8.755  35.773  1.00  0.00    -0.364 N 
ATOM      2  H1  UNL     1      23.942   8.444  36.436  1.00  0.00     0.162 HD
HETATM    3  C4  UNL     1      24.290   9.565  34.838  1.00  0.00     0.202 C 
HETATM    4  N2  UNL     1      22.926   9.960  34.808  1.00  0.00    -0.063 NA
HETATM    5  N3  UNL     1      25.256  10.015  33.895  1.00  0.00    -0.164 N 
ATOM      6  H3  UNL     1      26.215  10.156  34.216  1.00  0.00     0.187 HD
HETATM    7  C5  UNL     1      24.960  10.277  32.544  1.00  0.00     0.675 C 
HETATM    8  N4  UNL     1      24.707   9.331  31.705  1.00  0.00    -0.231 N 
ATOM      9  H4  UNL     1      24.497   9.570  30.736  1.00  0.00     0.177 HD
HETATM   10  C6  UNL     1      24.712   7.929  32.103  1.00  0.00     0.165 C 
HETATM   11  N5  UNL     1      24.922  11.611  32.024  1.00  0.00    -0.225 N 
ATOM     12  H5  UNL     1      24.904  11.789  31.019  1.00  0.00     0.177 HD
ENDROOT
BRANCH  11  13
HETATM   13  C7  UNL     1      24.909  12.698  32.982  1.00  0.00     0.166 C 
BRANCH  13  14
HETATM   14  C8  UNL     1      23.650  13.507  32.923  1.00  0.00     0.257 C 
BRANCH  14  15
HETATM   15  N6  UNL     1      23.811  14.852  32.487  1.00  0.00    -0.066 N 
HETATM   16  C9  UNL     1      25.184  15.273  32.308  1.00  0.00     0.272 C 
HETATM   17  C10 UNL     1      23.282  15.702  33.568  1.00  0.00     0.265 C 
HETATM   18  C11 UNL     1      21.773  15.650  33.448  1.00  0.00     0.264 C 
HETATM   19  N7  UNL     1      21.408  16.623  32.430  1.00  0.00    -0.071 N 
HETATM   20  C12 UNL     1      20.054  16.386  31.973  1.00  0.00     0.272 C 
HETATM   21  C13 UNL     1      21.421  17.939  33.085  1.00  0.00     0.272 C 
HETATM   22  C14 UNL     1      22.383  16.539  31.385  1.00  0.00     0.264 C 
HETATM   23  C15 UNL     1      23.070  15.189  31.306  1.00  0.00     0.265 C 
ENDBRANCH  14  15
ENDBRANCH  13  14
ENDBRANCH  11  13
BRANCH   1  24
HETATM   24  C3  UNL     1      25.984   8.265  35.938  1.00  0.00     0.122 C 
BRANCH  24  25
HETATM   25  C2  UNL     1      25.868   6.787  36.328  1.00  0.00     0.015 C 
HETATM   26  C1  UNL     1      25.647   5.914  35.116  1.00  0.00     0.006 C 
ENDBRANCH  24  25
ENDBRANCH   1  24
TORSDOF 5
ENDMDL
MODEL 4
REMARK VINA RESULT: -5.921409429      1.232      1.818
REMARK  5 active torsions:
REMARK  status: ('A' for Active; 'I' for Inactive)
REMARK    1  A    between atoms: C2_2  and  C3_3 
REMARK    2  A    between atoms: C3_3  and  N1_4 
REMARK       I    between atoms: C4_6  and  N3_8 
REMARK       I    between atoms: N3_8  and  C5_10 
REMARK       I    between atoms: C5_10  and  N5_14 
REMARK    3  A    between atoms: N5_14  and  C7_16 
REMARK    4  A    between atoms: C7_16  and  C8_17 
REMARK    5  A    between atoms: C8_17  and  N6_18 
ROOT
HETATM    1  N1  UNL     1      21.179  16.597  33.587  1.00  0.00    -0.364 N 
ATOM      2  H1  UNL     1      21.143  17.347  34.276  1.00  0.00     0.162 HD
HETATM    3  C4  UNL     1      22.288  15.956  33.449  1.00  0.00     0.202 C 
HETATM    4  N2  UNL     1      23.376  16.350  34.274  1.00  0.00    -0.063 NA
HETATM    5  N3  UNL     1      22.371  14.905  32.494  1.00  0.00    -0.164 N 
ATOM      6  H3  UNL     1      21.542  14.334  32.331  1.00  0.00     0.187 HD
HETATM    7  C5  UNL     1      23.538  14.612  31.761  1.00  0.00     0.675 C 
HETATM    8  N4  UNL     1      23.967  15.385  30.823  1.00  0.00    -0.231 N 
ATOM      9  H4  UNL     1      24.817  15.130  30.321  1.00  0.00     0.177 HD
HETATM   10  C6  UNL     1      23.271  16.612  30.459  1.00  0.00     0.165 C 
HETATM   11  N5  UNL     1      24.315  13.436  32.019  1.00  0.00    -0.225 N 
ATOM     12  H5  UNL     1      25.036  13.124  31.368  1.00  0.00     0.177 HD
ENDROOT
BRANCH  11  13
HETATM   13  C7  UNL     1      24.036  12.708  33.240  1.00  0.00     0.166 C 
BRANCH  13  14
HETATM   14  C8  UNL     1      23.562  11.310  32.986  1.00  0.00     0.257 C 
BRANCH  14  15
HETATM   15  N6  UNL     1      24.586  10.324  32.917  1.00  0.00    -0.066 N 
HETATM   16  C9  UNL     1      24.815   9.779  31.596  1.00  0.00     0.272 C 
HETATM   17  C10 UNL     1      24.119   9.188  33.730  1.00  0.00     0.265 C 
HETATM   18  C11 UNL     1      24.342   9.581  35.175  1.00  0.00     0.264 C 
HETATM   19  N7  UNL     1      25.737   9.290  35.470  1.00  0.00    -0.071 N 
HETATM   20  C12 UNL     1      26.146   9.971  36.681  1.00  0.00     0.272 C 
HETATM   21  C13 UNL     1      25.816   7.847  35.735  1.00  0.00     0.272 C 
HETATM   22  C14 UNL     1      26.506   9.663  34.321  1.00  0.00     0.264 C 
HETATM   23  C15 UNL     1      25.845  10.730  33.471  1.00  0.00     0.265 C 
ENDBRANCH  14  15
ENDBRANCH  13  14
ENDBRANCH  11  13
BRANCH   1  24
HETATM   24  C3  UNL     1      19.996  16.322  32.832  1.00  0.00     0.122 C 
BRANCH  24  25
HETATM   25  C2  UNL     1      18.836  17.012  33.560  1.00  0.00     0.015 C 
HETATM   26  C1  UNL     1      18.422  18.281  32.855  1.00  0.00     0.006 C 
ENDBRANCH  24  25
ENDBRANCH   1  24
TORSDOF 5
ENDMDL
MODEL 5
REMARK VINA RESULT: -5.917330128      1.666      3.292
REMARK  5 active torsions:
REMARK  status: ('A' for Active; 'I' for Inactive)
REMARK    1  A    between atoms: C2_2  and  C3_3 
REMARK    2  A    between atoms: C3_3  and  N1_4 
REMARK       I    between atoms: C4_6  and  N3_8 
REMARK       I    between atoms: N3_8  and  C5_10 
REMARK       I    between atoms: C5_10  and  N5_14 
REMARK    3  A    between atoms: N5_14  and  C7_16 
REMARK    4  A    between atoms: C7_16  and  C8_17 
REMARK    5  A    between atoms: C8_17  and  N6_18 
ROOT
HETATM    1  N1  UNL     1      25.520  16.661  30.268  1.00  0.00    -0.364 N 
ATOM      2  H1  UNL     1      25.728  16.914  29.302  1.00  0.00     0.162 HD
HETATM    3  C4  UNL     1      24.852  15.580  30.478  1.00  0.00     0.202 C 
HETATM    4  N2  UNL     1      24.457  14.825  29.342  1.00  0.00    -0.063 NA
HETATM    5  N3  UNL     1      24.545  15.200  31.815  1.00  0.00    -0.164 N 
ATOM      6  H3  UNL     1      25.223  15.415  32.546  1.00  0.00     0.187 HD
HETATM    7  C5  UNL     1      23.354  14.545  32.182  1.00  0.00     0.675 C 
HETATM    8  N4  UNL     1      22.214  15.148  32.181  1.00  0.00    -0.231 N 
ATOM      9  H4  UNL     1      21.379  14.630  32.454  1.00  0.00     0.177 HD
HETATM   10  C6  UNL     1      22.086  16.548  31.800  1.00  0.00     0.165 C 
HETATM   11  N5  UNL     1      23.341  13.168  32.577  1.00  0.00    -0.225 N 
ATOM     12  H5  UNL     1      22.526  12.752  33.027  1.00  0.00     0.177 HD
ENDROOT
BRANCH  11  13
HETATM   13  C7  UNL     1      24.535  12.389  32.312  1.00  0.00     0.166 C 
BRANCH  13  14
HETATM   14  C8  UNL     1      24.928  11.522  33.469  1.00  0.00     0.257 C 
BRANCH  14  15
HETATM   15  N6  UNL     1      24.430  10.190  33.429  1.00  0.00    -0.066 N 
HETATM   16  C9  UNL     1      23.266   9.953  34.256  1.00  0.00     0.272 C 
HETATM   17  C10 UNL     1      25.488   9.336  33.995  1.00  0.00     0.265 C 
HETATM   18  C11 UNL     1      26.529   9.174  32.907  1.00  0.00     0.264 C 
HETATM   19  N7  UNL     1      26.055   8.106  32.040  1.00  0.00    -0.071 N 
HETATM   20  C12 UNL     1      26.767   8.129  30.779  1.00  0.00     0.272 C 
HETATM   21  C13 UNL     1      26.396   6.842  32.709  1.00  0.00     0.272 C 
HETATM   22  C14 UNL     1      24.638   8.265  31.896  1.00  0.00     0.264 C 
HETATM   23  C15 UNL     1      24.166   9.690  32.111  1.00  0.00     0.265 C 
ENDBRANCH  14  15
ENDBRANCH  13  14
ENDBRANCH  11  13
BRANCH   1  24
HETATM   24  C3  UNL     1      25.988  17.528  31.303  1.00  0.00     0.122 C 
BRANCH  24  25
HETATM   25  C2  UNL     1      25.134  18.800  31.238  1.00  0.00     0.015 C 
HETATM   26  C1  UNL     1      24.919  19.244  29.811  1.00  0.00     0.006 C 
ENDBRANCH  24  25
ENDBRANCH   1  24
TORSDOF 5
ENDMDL
