MODEL 1
REMARK VINA RESULT: -6.988714103      0.000      0.000
REMARK  6 active torsions:
REMARK  status: ('A' for Active; 'I' for Inactive)
REMARK    1  A    between atoms: C2_2  and  C3_3 
REMARK    2  A    between atoms: C3_3  and  C4_4 
REMARK    3  A    between atoms: C6_10  and  C7_11 
REMARK    4  A    between atoms: C7_11  and  C8_12 
REMARK    5  A    between atoms: C9_15  and  C10_16 
REMARK    6  A    between atoms: C10_16  and  C11_17 
ROOT
HETATM    1  C4  UNL     1      24.646   8.946  35.242  1.00  0.00     0.103 A 
HETATM    2  N1  UNL     1      25.547   9.683  34.572  1.00  0.00    -0.327 N 
ATOM      3  H1  UNL     1      26.542   9.467  34.510  1.00  0.00     0.169 HD
HETATM    4  C5  UNL     1      24.959  10.746  33.994  1.00  0.00     0.139 A 
HETATM    5  N2  UNL     1      25.181  11.835  33.232  1.00  0.00    -0.337 N 
ATOM      6  H2  UNL     1      26.089  12.115  32.861  1.00  0.00     0.167 HD
HETATM    7  C6  UNL     1      24.027  12.497  33.035  1.00  0.00     0.089 A 
HETATM    8  C16 UNL     1      23.077  11.764  33.711  1.00  0.00     0.229 A 
HETATM    9  O1  UNL     1      21.861  12.081  33.753  1.00  0.00    -0.283 OA
HETATM   10  C17 UNL     1      23.669  10.669  34.310  1.00  0.00     0.131 A 
HETATM   11  N5  UNL     1      23.464   9.576  35.071  1.00  0.00    -0.336 N 
ATOM     12  H5  UNL     1      22.567   9.276  35.453  1.00  0.00     0.168 HD
ENDROOT
BRANCH   7  13
HETATM   13  C7  UNL     1      23.852  13.620  32.332  1.00  0.00     0.065 C 
BRANCH  13  14
HETATM   14  C8  UNL     1      23.067  14.713  32.913  1.00  0.00     0.058 A 
HETATM   15  N3  UNL     1      21.742  14.920  32.829  1.00  0.00    -0.344 N 
HETATM   16  C9  UNL     1      21.375  16.039  33.495  1.00  0.00     0.083 A 
ATOM     17  H3  UNL     1      21.096  14.311  32.327  1.00  0.00     0.167 HD
HETATM   18  N4  UNL     1      22.510  16.541  34.008  1.00  0.00    -0.343 N 
HETATM   19  C13 UNL     1      22.624  17.736  34.797  1.00  0.00     0.157 C 
HETATM   20  C14 UNL     1      23.563  15.753  33.670  1.00  0.00     0.035 A 
HETATM   21  C15 UNL     1      24.976  15.999  34.061  1.00  0.00     0.070 C 
BRANCH  16  22
HETATM   22  C10 UNL     1      19.988  16.575  33.607  1.00  0.00     0.076 C 
BRANCH  22  23
HETATM   23  C11 UNL     1      19.441  17.114  32.332  1.00  0.00     0.003 C 
HETATM   24  C12 UNL     1      18.233  17.982  32.457  1.00  0.00     0.005 C 
ENDBRANCH  22  23
ENDBRANCH  16  22
ENDBRANCH  13  14
ENDBRANCH   7  13
BRANCH   1  25
HETATM   25  C3  UNL     1      24.848   7.820  35.941  1.00  0.00     0.021 C 
BRANCH  25  26
HETATM   26  C2  UNL     1      25.889   6.901  35.443  1.00  0.00     0.026 C 
HETATM   27  C1  UNL     1      25.448   6.188  34.183  1.00  0.00     0.009 C 
ENDBRANCH  25  26
ENDBRANCH   1  25
TORSDOF 6
ENDMDL
MODEL 2
REMARK VINA RESULT: -6.953678496      1.978      8.121
REMARK  6 active torsions:
REMARK  status: ('A' for Active; 'I' for Inactive)
REMARK    1  A    between atoms: C2_2  and  C3_3 
REMARK    2  A    between atoms: C3_3  and  C4_4 
REMARK    3  A    between atoms: C6_10  and  C7_11 
REMARK    4  A    between atoms: C7_11  and  C8_12 
REMARK    5  A    between atoms: C9_15  and  C10_16 
REMARK    6  A    between atoms: C10_16  and  C11_17 
ROOT
HETATM    1  C4  UNL     1      19.359  17.405  33.213  1.00  0.00     0.103 A 
HETATM    2  N1  UNL     1      19.638  16.763  32.067  1.00  0.00    -0.327 N 
ATOM      3  H1  UNL     1      18.990  16.665  31.285  1.00  0.00     0.169 HD
HETATM    4  C5  UNL     1      20.887  16.265  32.091  1.00  0.00     0.139 A 
HETATM    5  N2  UNL     1      21.797  15.568  31.384  1.00  0.00    -0.337 N 
ATOM      6  H2  UNL     1      21.650  15.195  30.446  1.00  0.00     0.167 HD
HETATM    7  C6  UNL     1      22.929  15.436  32.099  1.00  0.00     0.089 A 
HETATM    8  C16 UNL     1      22.676  16.088  33.286  1.00  0.00     0.229 A 
HETATM    9  O1  UNL     1      23.516  16.175  34.218  1.00  0.00    -0.283 OA
HETATM   10  C17 UNL     1      21.395  16.604  33.274  1.00  0.00     0.131 A 
HETATM   11  N5  UNL     1      20.474  17.299  33.968  1.00  0.00    -0.336 N 
ATOM     12  H5  UNL     1      20.598  17.682  34.905  1.00  0.00     0.168 HD
ENDROOT
BRANCH   7  13
HETATM   13  C7  UNL     1      24.048  14.808  31.727  1.00  0.00     0.065 C 
BRANCH  13  14
HETATM   14  C8  UNL     1      24.219  13.391  32.063  1.00  0.00     0.058 A 
HETATM   15  N3  UNL     1      23.400  12.602  32.778  1.00  0.00    -0.344 N 
HETATM   16  C9  UNL     1      23.891  11.345  32.880  1.00  0.00     0.083 A 
ATOM     17  H3  UNL     1      22.520  12.911  33.190  1.00  0.00     0.167 HD
HETATM   18  N4  UNL     1      25.053  11.358  32.206  1.00  0.00    -0.343 N 
HETATM   19  C13 UNL     1      25.944  10.243  32.039  1.00  0.00     0.157 C 
HETATM   20  C14 UNL     1      25.283  12.595  31.694  1.00  0.00     0.035 A 
HETATM   21  C15 UNL     1      26.471  12.981  30.891  1.00  0.00     0.070 C 
BRANCH  16  22
HETATM   22  C10 UNL     1      23.249  10.212  33.605  1.00  0.00     0.076 C 
BRANCH  22  23
HETATM   23  C11 UNL     1      23.755  10.014  34.991  1.00  0.00     0.003 C 
HETATM   24  C12 UNL     1      24.614   8.812  35.206  1.00  0.00     0.005 C 
ENDBRANCH  22  23
ENDBRANCH  16  22
ENDBRANCH  13  14
ENDBRANCH   7  13
BRANCH   1  25
HETATM   25  C3  UNL     1      18.225  18.029  33.561  1.00  0.00     0.021 C 
BRANCH  25  26
HETATM   26  C2  UNL     1      17.942  19.321  32.906  1.00  0.00     0.026 C 
HETATM   27  C1  UNL     1      18.525  20.480  33.684  1.00  0.00     0.009 C 
ENDBRANCH  25  26
ENDBRANCH   1  25
TORSDOF 6
ENDMDL
MODEL 3
REMARK VINA RESULT: -6.839492232      4.678      7.890
REMARK  6 active torsions:
REMARK  status: ('A' for Active; 'I' for Inactive)
REMARK    1  A    between atoms: C2_2  and  C3_3 
REMARK    2  A    between atoms: C3_3  and  C4_4 
REMARK    3  A    between atoms: C6_10  and  C7_11 
REMARK    4  A    between atoms: C7_11  and  C8_12 
REMARK    5  A    between atoms: C9_15  and  C10_16 
REMARK    6  A    between atoms: C10_16  and  C11_17 
ROOT
HETATM    1  C4  UNL     1      19.551  17.218  33.200  1.00  0.00     0.103 A 
HETATM    2  N1  UNL     1      19.773  16.687  31.987  1.00  0.00    -0.327 N 
ATOM      3  H1  UNL     1      19.112  16.721  31.210  1.00  0.00     0.169 HD
HETATM    4  C5  UNL     1      20.984  16.105  31.934  1.00  0.00     0.139 A 
HETATM    5  N2  UNL     1      21.835  15.428  31.139  1.00  0.00    -0.337 N 
ATOM      6  H2  UNL     1      21.653  15.172  30.169  1.00  0.00     0.167 HD
HETATM    7  C6  UNL     1      22.962  15.141  31.816  1.00  0.00     0.089 A 
HETATM    8  C16 UNL     1      22.768  15.674  33.071  1.00  0.00     0.229 A 
HETATM    9  O1  UNL     1      23.621  15.600  33.991  1.00  0.00    -0.283 OA
HETATM   10  C17 UNL     1      21.526  16.276  33.138  1.00  0.00     0.131 A 
HETATM   11  N5  UNL     1      20.663  16.953  33.920  1.00  0.00    -0.336 N 
ATOM     12  H5  UNL     1      20.823  17.220  34.891  1.00  0.00     0.168 HD
ENDROOT
BRANCH   7  13
HETATM   13  C7  UNL     1      24.031  14.482  31.358  1.00  0.00     0.065 C 
BRANCH  13  14
HETATM   14  C8  UNL     1      25.158  15.242  30.809  1.00  0.00     0.058 A 
HETATM   15  N3  UNL     1      25.386  16.564  30.886  1.00  0.00    -0.344 N 
HETATM   16  C9  UNL     1      26.535  16.903  30.255  1.00  0.00     0.083 A 
ATOM     17  H3  UNL     1      24.773  17.226  31.360  1.00  0.00     0.167 HD
HETATM   18  N4  UNL     1      27.033  15.753  29.772  1.00  0.00    -0.343 N 
HETATM   19  C13 UNL     1      28.248  15.611  29.018  1.00  0.00     0.157 C 
HETATM   20  C14 UNL     1      26.215  14.718  30.093  1.00  0.00     0.035 A 
HETATM   21  C15 UNL     1      26.447  13.298  29.724  1.00  0.00     0.070 C 
BRANCH  16  22
HETATM   22  C10 UNL     1      27.093  18.280  30.138  1.00  0.00     0.076 C 
BRANCH  22  23
HETATM   23  C11 UNL     1      26.311  19.178  29.244  1.00  0.00     0.003 C 
HETATM   24  C12 UNL     1      25.243  19.986  29.904  1.00  0.00     0.005 C 
ENDBRANCH  22  23
ENDBRANCH  16  22
ENDBRANCH  13  14
ENDBRANCH   7  13
BRANCH   1  25
HETATM   25  C3  UNL     1      18.468  17.876  33.635  1.00  0.00     0.021 C 
BRANCH  25  26
HETATM   26  C2  UNL     1      18.091  19.102  32.904  1.00  0.00     0.026 C 
HETATM   27  C1  UNL     1      18.483  20.349  33.666  1.00  0.00     0.009 C 
ENDBRANCH  25  26
ENDBRANCH   1  25
TORSDOF 6
ENDMDL
MODEL 4
REMARK VINA RESULT: -6.834986017      1.192      1.468
REMARK  6 active torsions:
REMARK  status: ('A' for Active; 'I' for Inactive)
REMARK    1  A    between atoms: C2_2  and  C3_3 
REMARK    2  A    between atoms: C3_3  and  C4_4 
REMARK    3  A    between atoms: C6_10  and  C7_11 
REMARK    4  A    between atoms: C7_11  and  C8_12 
REMARK    5  A    between atoms: C9_15  and  C10_16 
REMARK    6  A    between atoms: C10_16  and  C11_17 
ROOT
HETATM    1  C4  UNL     1      24.425   9.124  34.761  1.00  0.00     0.103 A 
HETATM    2  N1  UNL     1      23.270   9.683  34.364  1.00  0.00    -0.327 N 
ATOM      3  H1  UNL     1      22.349   9.264  34.494  1.00  0.00     0.169 HD
HETATM    4  C5  UNL     1      23.493  10.869  33.771  1.00  0.00     0.139 A 
HETATM    5  N2  UNL     1      22.897  11.918  33.172  1.00  0.00    -0.337 N 
ATOM      6  H2  UNL     1      21.892  12.016  33.026  1.00  0.00     0.167 HD
HETATM    7  C6  UNL     1      23.825  12.816  32.793  1.00  0.00     0.089 A 
HETATM    8  C16 UNL     1      25.027  12.272  33.188  1.00  0.00     0.229 A 
HETATM    9  O1  UNL     1      26.134  12.836  33.000  1.00  0.00    -0.283 OA
HETATM   10  C17 UNL     1      24.811  11.052  33.800  1.00  0.00     0.131 A 
HETATM   11  N5  UNL     1      25.392   9.996  34.401  1.00  0.00    -0.336 N 
ATOM     12  H5  UNL     1      26.392   9.875  34.558  1.00  0.00     0.168 HD
ENDROOT
BRANCH   7  13
HETATM   13  C7  UNL     1      23.613  13.979  32.171  1.00  0.00     0.065 C 
BRANCH  13  14
HETATM   14  C8  UNL     1      22.769  14.991  32.814  1.00  0.00     0.058 A 
HETATM   15  N3  UNL     1      21.439  15.152  32.710  1.00  0.00    -0.344 N 
HETATM   16  C9  UNL     1      21.009  16.200  33.451  1.00  0.00     0.083 A 
ATOM     17  H3  UNL     1      20.830  14.559  32.145  1.00  0.00     0.167 HD
HETATM   18  N4  UNL     1      22.110  16.704  34.032  1.00  0.00    -0.343 N 
HETATM   19  C13 UNL     1      22.155  17.836  34.915  1.00  0.00     0.157 C 
HETATM   20  C14 UNL     1      23.203  15.987  33.663  1.00  0.00     0.035 A 
HETATM   21  C15 UNL     1      24.594  16.257  34.111  1.00  0.00     0.070 C 
BRANCH  16  22
HETATM   22  C10 UNL     1      19.599  16.669  33.566  1.00  0.00     0.076 C 
BRANCH  22  23
HETATM   23  C11 UNL     1      19.184  17.613  32.493  1.00  0.00     0.003 C 
HETATM   24  C12 UNL     1      18.414  18.811  32.940  1.00  0.00     0.005 C 
ENDBRANCH  22  23
ENDBRANCH  16  22
ENDBRANCH  13  14
ENDBRANCH   7  13
BRANCH   1  25
HETATM   25  C3  UNL     1      24.611   7.953  35.386  1.00  0.00     0.021 C 
BRANCH  25  26
HETATM   26  C2  UNL     1      25.123   6.834  34.572  1.00  0.00     0.026 C 
HETATM   27  C1  UNL     1      25.857   5.817  35.420  1.00  0.00     0.009 C 
ENDBRANCH  25  26
ENDBRANCH   1  25
TORSDOF 6
ENDMDL
MODEL 5
REMARK VINA RESULT: -6.756118932      2.748      8.124
REMARK  6 active torsions:
REMARK  status: ('A' for Active; 'I' for Inactive)
REMARK    1  A    between atoms: C2_2  and  C3_3 
REMARK    2  A    between atoms: C3_3  and  C4_4 
REMARK    3  A    between atoms: C6_10  and  C7_11 
REMARK    4  A    between atoms: C7_11  and  C8_12 
REMARK    5  A    between atoms: C9_15  and  C10_16 
REMARK    6  A    between atoms: C10_16  and  C11_17 
ROOT
HETATM    1  C4  UNL     1      19.714  17.487  33.036  1.00  0.00     0.103 A 
HETATM    2  N1  UNL     1      19.773  16.443  32.194  1.00  0.00    -0.327 N 
ATOM      3  H1  UNL     1      18.968  15.888  31.901  1.00  0.00     0.169 HD
HETATM    4  C5  UNL     1      21.038  16.227  31.789  1.00  0.00     0.139 A 
HETATM    5  N2  UNL     1      21.817  15.442  31.021  1.00  0.00    -0.337 N 
ATOM      6  H2  UNL     1      21.487  14.659  30.457  1.00  0.00     0.167 HD
HETATM    7  C6  UNL     1      23.098  15.846  31.108  1.00  0.00     0.089 A 
HETATM    8  C16 UNL     1      23.073  16.921  31.968  1.00  0.00     0.229 A 
HETATM    9  O1  UNL     1      24.101  17.567  32.294  1.00  0.00    -0.283 OA
HETATM   10  C17 UNL     1      21.779  17.154  32.391  1.00  0.00     0.131 A 
HETATM   11  N5  UNL     1      20.985  17.929  33.155  1.00  0.00    -0.336 N 
ATOM     12  H5  UNL     1      21.292  18.716  33.725  1.00  0.00     0.168 HD
ENDROOT
BRANCH   7  13
HETATM   13  C7  UNL     1      24.155  15.312  30.488  1.00  0.00     0.065 C 
BRANCH  13  14
HETATM   14  C8  UNL     1      24.784  14.114  31.052  1.00  0.00     0.058 A 
HETATM   15  N3  UNL     1      24.396  13.395  32.119  1.00  0.00    -0.344 N 
HETATM   16  C9  UNL     1      25.230  12.352  32.339  1.00  0.00     0.083 A 
ATOM     17  H3  UNL     1      23.578  13.608  32.689  1.00  0.00     0.167 HD
HETATM   18  N4  UNL     1      26.164  12.428  31.377  1.00  0.00    -0.343 N 
HETATM   19  C13 UNL     1      27.272  11.530  31.203  1.00  0.00     0.157 C 
HETATM   20  C14 UNL     1      25.920  13.495  30.573  1.00  0.00     0.035 A 
HETATM   21  C15 UNL     1      26.746  13.892  29.404  1.00  0.00     0.070 C 
BRANCH  16  22
HETATM   22  C10 UNL     1      25.106  11.351  33.437  1.00  0.00     0.076 C 
BRANCH  22  23
HETATM   23  C11 UNL     1      23.707  11.109  33.883  1.00  0.00     0.003 C 
HETATM   24  C12 UNL     1      23.508   9.954  34.809  1.00  0.00     0.005 C 
ENDBRANCH  22  23
ENDBRANCH  16  22
ENDBRANCH  13  14
ENDBRANCH   7  13
BRANCH   1  25
HETATM   25  C3  UNL     1      18.638  18.004  33.645  1.00  0.00     0.021 C 
BRANCH  25  26
HETATM   26  C2  UNL     1      17.980  19.148  32.986  1.00  0.00     0.026 C 
HETATM   27  C1  UNL     1      18.417  20.466  33.587  1.00  0.00     0.009 C 
ENDBRANCH  25  26
ENDBRANCH   1  25
TORSDOF 6
ENDMDL
