MODEL 1
REMARK VINA RESULT: -7.447759584      0.000      0.000
REMARK  4 active torsions:
REMARK  status: ('A' for Active; 'I' for Inactive)
REMARK    1  A    between atoms: C2_2  and  N7_24 
REMARK       I    between atoms: N1_3  and  C3_5 
REMARK       I    between atoms: C3_5  and  N3_9 
REMARK       I    between atoms: C4_11  and  N5_13 
REMARK    2  A    between atoms: N5_13  and  C5_15 
REMARK    3  A    between atoms: C5_15  and  C6_16 
REMARK    4  A    between atoms: C6_16  and  N6_17 
ROOT
HETATM    1  C1  UNL     1      23.171  17.496  32.237  1.00  0.00     0.089 C 
HETATM    2  C2  UNL     1      22.053  16.596  31.927  1.00  0.00     0.091 C 
HETATM    3  N1  UNL     1      22.223  15.664  31.042  1.00  0.00    -0.181 N 
ATOM      4  H1  UNL     1      21.438  15.046  30.837  1.00  0.00     0.185 HD
HETATM    5  C3  UNL     1      23.418  15.458  30.355  1.00  0.00     0.679 C 
HETATM    6  N2  UNL     1      23.526  15.794  29.121  1.00  0.00    -0.234 N 
ATOM      7  H21 UNL     1      24.401  15.643  28.617  1.00  0.00     0.174 HD
ATOM      8  H22 UNL     1      22.722  16.216  28.655  1.00  0.00     0.174 HD
HETATM    9  N3  UNL     1      24.532  14.872  31.001  1.00  0.00    -0.164 N 
ATOM     10  H3  UNL     1      25.459  15.217  30.754  1.00  0.00     0.187 HD
HETATM   11  C4  UNL     1      24.457  13.928  31.886  1.00  0.00     0.202 C 
HETATM   12  N4  UNL     1      23.173  13.448  32.229  1.00  0.00    -0.063 NA
HETATM   13  N5  UNL     1      25.622  13.413  32.493  1.00  0.00    -0.362 N 
ATOM     14  H5  UNL     1      26.129  14.017  33.140  1.00  0.00     0.162 HD
ENDROOT
BRANCH  13  15
HETATM   15  C5  UNL     1      26.138  12.107  32.262  1.00  0.00     0.150 C 
BRANCH  15  16
HETATM   16  C6  UNL     1      25.658  11.147  33.305  1.00  0.00     0.256 C 
BRANCH  16  17
HETATM   17  N6  UNL     1      25.263   9.853  32.776  1.00  0.00    -0.069 N 
HETATM   18  C7  UNL     1      23.965   9.931  32.153  1.00  0.00     0.272 C 
HETATM   19  C8  UNL     1      26.286   9.366  31.897  1.00  0.00     0.237 C 
HETATM   20  C9  UNL     1      25.870   8.049  31.273  1.00  0.00     0.028 C 
HETATM   21  C10 UNL     1      25.577   7.000  32.303  1.00  0.00     0.003 C 
HETATM   22  C11 UNL     1      24.862   7.523  33.510  1.00  0.00     0.028 C 
HETATM   23  C12 UNL     1      25.200   8.919  33.900  1.00  0.00     0.237 C 
ENDBRANCH  16  17
ENDBRANCH  15  16
ENDBRANCH  13  15
BRANCH   2  24
HETATM   24  N7  UNL     1      20.790  16.710  32.564  1.00  0.00    -0.371 N 
HETATM   25  C13 UNL     1      20.551  17.217  33.897  1.00  0.00     0.124 C 
HETATM   26  C14 UNL     1      19.175  17.864  33.843  1.00  0.00     0.021 C 
HETATM   27  C15 UNL     1      18.704  17.628  32.412  1.00  0.00     0.021 C 
HETATM   28  C16 UNL     1      19.479  16.362  32.056  1.00  0.00     0.124 C 
ENDBRANCH   2  24
TORSDOF 4
ENDMDL
MODEL 2
REMARK VINA RESULT: -7.335919469      0.524      1.279
REMARK  4 active torsions:
REMARK  status: ('A' for Active; 'I' for Inactive)
REMARK    1  A    between atoms: C2_2  and  N7_24 
REMARK       I    between atoms: N1_3  and  C3_5 
REMARK       I    between atoms: C3_5  and  N3_9 
REMARK       I    between atoms: C4_11  and  N5_13 
REMARK    2  A    between atoms: N5_13  and  C5_15 
REMARK    3  A    between atoms: C5_15  and  C6_16 
REMARK    4  A    between atoms: C6_16  and  N6_17 
ROOT
HETATM    1  C1  UNL     1      23.033  17.649  32.286  1.00  0.00     0.089 C 
HETATM    2  C2  UNL     1      21.908  16.758  31.975  1.00  0.00     0.091 C 
HETATM    3  N1  UNL     1      22.076  15.815  31.103  1.00  0.00    -0.181 N 
ATOM      4  H1  UNL     1      21.285  15.203  30.898  1.00  0.00     0.185 HD
HETATM    5  C3  UNL     1      23.273  15.588  30.428  1.00  0.00     0.679 C 
HETATM    6  N2  UNL     1      23.396  15.909  29.192  1.00  0.00    -0.234 N 
ATOM      7  H21 UNL     1      24.274  15.743  28.698  1.00  0.00     0.174 HD
ATOM      8  H22 UNL     1      22.601  16.335  28.714  1.00  0.00     0.174 HD
HETATM    9  N3  UNL     1      24.376  14.997  31.091  1.00  0.00    -0.164 N 
ATOM     10  H3  UNL     1      25.309  15.329  30.848  1.00  0.00     0.187 HD
HETATM   11  C4  UNL     1      24.283  14.064  31.985  1.00  0.00     0.202 C 
HETATM   12  N4  UNL     1      22.991  13.601  32.322  1.00  0.00    -0.063 NA
HETATM   13  N5  UNL     1      25.437  13.543  32.608  1.00  0.00    -0.362 N 
ATOM     14  H5  UNL     1      25.944  14.149  33.252  1.00  0.00     0.162 HD
ENDROOT
BRANCH  13  15
HETATM   15  C5  UNL     1      25.941  12.229  32.397  1.00  0.00     0.150 C 
BRANCH  15  16
HETATM   16  C6  UNL     1      25.436  11.284  33.441  1.00  0.00     0.256 C 
BRANCH  16  17
HETATM   17  N6  UNL     1      25.692   9.885  33.143  1.00  0.00    -0.069 N 
HETATM   18  C7  UNL     1      26.985   9.486  33.640  1.00  0.00     0.272 C 
HETATM   19  C8  UNL     1      24.616   9.087  33.656  1.00  0.00     0.237 C 
HETATM   20  C9  UNL     1      24.888   7.614  33.423  1.00  0.00     0.028 C 
HETATM   21  C10 UNL     1      25.082   7.294  31.972  1.00  0.00     0.003 C 
HETATM   22  C11 UNL     1      25.857   8.333  31.223  1.00  0.00     0.028 C 
HETATM   23  C12 UNL     1      25.668   9.734  31.689  1.00  0.00     0.237 C 
ENDBRANCH  16  17
ENDBRANCH  15  16
ENDBRANCH  13  15
BRANCH   2  24
HETATM   24  N7  UNL     1      20.640  16.893  32.600  1.00  0.00    -0.371 N 
HETATM   25  C13 UNL     1      20.396  17.404  33.931  1.00  0.00     0.124 C 
HETATM   26  C14 UNL     1      19.032  18.074  33.863  1.00  0.00     0.021 C 
HETATM   27  C15 UNL     1      18.571  17.844  32.427  1.00  0.00     0.021 C 
HETATM   28  C16 UNL     1      19.329  16.565  32.080  1.00  0.00     0.124 C 
ENDBRANCH   2  24
TORSDOF 4
ENDMDL
MODEL 3
REMARK VINA RESULT: -7.163747047      1.557      2.315
REMARK  4 active torsions:
REMARK  status: ('A' for Active; 'I' for Inactive)
REMARK    1  A    between atoms: C2_2  and  N7_24 
REMARK       I    between atoms: N1_3  and  C3_5 
REMARK       I    between atoms: C3_5  and  N3_9 
REMARK       I    between atoms: C4_11  and  N5_13 
REMARK    2  A    between atoms: N5_13  and  C5_15 
REMARK    3  A    between atoms: C5_15  and  C6_16 
REMARK    4  A    between atoms: C6_16  and  N6_17 
ROOT
HETATM    1  C1  UNL     1      22.180  18.179  34.786  1.00  0.00     0.089 C 
HETATM    2  C2  UNL     1      21.328  18.011  33.602  1.00  0.00     0.091 C 
HETATM    3  N1  UNL     1      21.875  17.671  32.477  1.00  0.00    -0.181 N 
ATOM      4  H1  UNL     1      21.271  17.557  31.663  1.00  0.00     0.185 HD
HETATM    5  C3  UNL     1      23.242  17.453  32.316  1.00  0.00     0.679 C 
HETATM    6  N2  UNL     1      23.971  18.314  31.703  1.00  0.00    -0.234 N 
ATOM      7  H21 UNL     1      24.972  18.154  31.584  1.00  0.00     0.174 HD
ATOM      8  H22 UNL     1      23.531  19.159  31.339  1.00  0.00     0.174 HD
HETATM    9  N3  UNL     1      23.852  16.280  32.820  1.00  0.00    -0.164 N 
ATOM     10  H3  UNL     1      24.793  16.362  33.204  1.00  0.00     0.187 HD
HETATM   11  C4  UNL     1      23.298  15.108  32.829  1.00  0.00     0.202 C 
HETATM   12  N4  UNL     1      21.994  14.992  32.296  1.00  0.00    -0.063 NA
HETATM   13  N5  UNL     1      23.975  13.994  33.368  1.00  0.00    -0.362 N 
ATOM     14  H5  UNL     1      24.115  13.965  34.377  1.00  0.00     0.162 HD
ENDROOT
BRANCH  13  15
HETATM   15  C5  UNL     1      24.474  12.906  32.597  1.00  0.00     0.150 C 
BRANCH  15  16
HETATM   16  C6  UNL     1      23.647  11.676  32.803  1.00  0.00     0.256 C 
BRANCH  16  17
HETATM   17  N6  UNL     1      24.428  10.466  32.989  1.00  0.00    -0.069 N 
HETATM   18  C7  UNL     1      25.830  10.778  33.120  1.00  0.00     0.272 C 
HETATM   19  C8  UNL     1      23.905   9.729  34.103  1.00  0.00     0.237 C 
HETATM   20  C9  UNL     1      24.743   8.495  34.367  1.00  0.00     0.028 C 
HETATM   21  C10 UNL     1      24.812   7.589  33.176  1.00  0.00     0.003 C 
HETATM   22  C11 UNL     1      24.926   8.314  31.871  1.00  0.00     0.028 C 
HETATM   23  C12 UNL     1      24.232   9.629  31.806  1.00  0.00     0.237 C 
ENDBRANCH  16  17
ENDBRANCH  15  16
ENDBRANCH  13  15
BRANCH   2  24
HETATM   24  N7  UNL     1      19.923  18.205  33.646  1.00  0.00    -0.371 N 
HETATM   25  C13 UNL     1      19.244  19.444  33.956  1.00  0.00     0.124 C 
HETATM   26  C14 UNL     1      17.948  19.405  33.159  1.00  0.00     0.021 C 
HETATM   27  C15 UNL     1      17.984  18.056  32.448  1.00  0.00     0.021 C 
HETATM   28  C16 UNL     1      18.863  17.249  33.400  1.00  0.00     0.124 C 
ENDBRANCH   2  24
TORSDOF 4
ENDMDL
MODEL 4
REMARK VINA RESULT: -7.114655962      1.594      2.445
REMARK  4 active torsions:
REMARK  status: ('A' for Active; 'I' for Inactive)
REMARK    1  A    between atoms: C2_2  and  N7_24 
REMARK       I    between atoms: N1_3  and  C3_5 
REMARK       I    between atoms: C3_5  and  N3_9 
REMARK       I    between atoms: C4_11  and  N5_13 
REMARK    2  A    between atoms: N5_13  and  C5_15 
REMARK    3  A    between atoms: C5_15  and  C6_16 
REMARK    4  A    between atoms: C6_16  and  N6_17 
ROOT
HETATM    1  C1  UNL     1      24.036  15.841  34.034  1.00  0.00     0.089 C 
HETATM    2  C2  UNL     1      22.784  15.545  33.325  1.00  0.00     0.091 C 
HETATM    3  N1  UNL     1      22.782  14.625  32.412  1.00  0.00    -0.181 N 
ATOM      4  H1  UNL     1      21.905  14.429  31.928  1.00  0.00     0.185 HD
HETATM    5  C3  UNL     1      23.908  13.887  32.053  1.00  0.00     0.679 C 
HETATM    6  N2  UNL     1      24.514  14.119  30.945  1.00  0.00    -0.234 N 
ATOM      7  H21 UNL     1      25.339  13.578  30.682  1.00  0.00     0.174 HD
ATOM      8  H22 UNL     1      24.155  14.854  30.335  1.00  0.00     0.174 HD
HETATM    9  N3  UNL     1      24.405  12.867  32.900  1.00  0.00    -0.164 N 
ATOM     10  H3  UNL     1      25.416  12.748  32.957  1.00  0.00     0.187 HD
HETATM   11  C4  UNL     1      23.665  12.074  33.609  1.00  0.00     0.202 C 
HETATM   12  N4  UNL     1      22.263  12.237  33.531  1.00  0.00    -0.063 NA
HETATM   13  N5  UNL     1      24.247  11.094  34.440  1.00  0.00    -0.362 N 
ATOM     14  H5  UNL     1      24.750  11.411  35.269  1.00  0.00     0.162 HD
ENDROOT
BRANCH  13  15
HETATM   15  C5  UNL     1      24.180   9.693  34.200  1.00  0.00     0.150 C 
BRANCH  15  16
HETATM   16  C6  UNL     1      24.841   9.336  32.906  1.00  0.00     0.256 C 
BRANCH  16  17
HETATM   17  N6  UNL     1      25.742   8.199  32.999  1.00  0.00    -0.069 N 
HETATM   18  C7  UNL     1      27.005   8.594  33.571  1.00  0.00     0.272 C 
HETATM   19  C8  UNL     1      25.097   7.141  33.721  1.00  0.00     0.237 C 
HETATM   20  C9  UNL     1      26.038   5.966  33.896  1.00  0.00     0.028 C 
HETATM   21  C10 UNL     1      26.529   5.430  32.586  1.00  0.00     0.003 C 
HETATM   22  C11 UNL     1      26.827   6.492  31.573  1.00  0.00     0.028 C 
HETATM   23  C12 UNL     1      25.964   7.703  31.642  1.00  0.00     0.237 C 
ENDBRANCH  16  17
ENDBRANCH  15  16
ENDBRANCH  13  15
BRANCH   2  24
HETATM   24  N7  UNL     1      21.574  16.231  33.606  1.00  0.00    -0.371 N 
HETATM   25  C13 UNL     1      21.445  17.455  34.366  1.00  0.00     0.124 C 
HETATM   26  C14 UNL     1      20.248  18.178  33.767  1.00  0.00     0.021 C 
HETATM   27  C15 UNL     1      19.745  17.237  32.677  1.00  0.00     0.021 C 
HETATM   28  C16 UNL     1      20.222  15.889  33.215  1.00  0.00     0.124 C 
ENDBRANCH   2  24
TORSDOF 4
ENDMDL
MODEL 5
REMARK VINA RESULT: -7.015383763      1.881      9.001
REMARK  4 active torsions:
REMARK  status: ('A' for Active; 'I' for Inactive)
REMARK    1  A    between atoms: C2_2  and  N7_24 
REMARK       I    between atoms: N1_3  and  C3_5 
REMARK       I    between atoms: C3_5  and  N3_9 
REMARK       I    between atoms: C4_11  and  N5_13 
REMARK    2  A    between atoms: N5_13  and  C5_15 
REMARK    3  A    between atoms: C5_15  and  C6_16 
REMARK    4  A    between atoms: C6_16  and  N6_17 
ROOT
HETATM    1  C1  UNL     1      26.526   9.497  34.085  1.00  0.00     0.089 C 
HETATM    2  C2  UNL     1      25.522   8.834  33.244  1.00  0.00     0.091 C 
HETATM    3  N1  UNL     1      24.265   9.006  33.513  1.00  0.00    -0.181 N 
ATOM      4  H1  UNL     1      23.578   8.540  32.920  1.00  0.00     0.185 HD
HETATM    5  C3  UNL     1      23.799   9.792  34.564  1.00  0.00     0.679 C 
HETATM    6  N2  UNL     1      23.315   9.246  35.621  1.00  0.00    -0.234 N 
ATOM      7  H21 UNL     1      22.974   9.822  36.391  1.00  0.00     0.174 HD
ATOM      8  H22 UNL     1      23.282   8.228  35.676  1.00  0.00     0.174 HD
HETATM    9  N3  UNL     1      23.845  11.205  34.487  1.00  0.00    -0.164 N 
ATOM     10  H3  UNL     1      24.054  11.719  35.342  1.00  0.00     0.187 HD
HETATM   11  C4  UNL     1      23.641  11.890  33.407  1.00  0.00     0.202 C 
HETATM   12  N4  UNL     1      23.350  11.178  32.221  1.00  0.00    -0.063 NA
HETATM   13  N5  UNL     1      23.723  13.298  33.418  1.00  0.00    -0.362 N 
ATOM     14  H5  UNL     1      24.644  13.720  33.545  1.00  0.00     0.162 HD
ENDROOT
BRANCH  13  15
HETATM   15  C5  UNL     1      22.609  14.170  33.265  1.00  0.00     0.150 C 
BRANCH  15  16
HETATM   16  C6  UNL     1      22.997  15.591  33.529  1.00  0.00     0.256 C 
BRANCH  16  17
HETATM   17  N6  UNL     1      22.051  16.565  33.014  1.00  0.00    -0.069 N 
HETATM   18  C7  UNL     1      22.535  17.149  31.788  1.00  0.00     0.272 C 
HETATM   19  C8  UNL     1      20.762  15.950  32.879  1.00  0.00     0.237 C 
HETATM   20  C9  UNL     1      19.768  16.922  32.276  1.00  0.00     0.028 C 
HETATM   21  C10 UNL     1      19.627  18.171  33.093  1.00  0.00     0.003 C 
HETATM   22  C11 UNL     1      20.918  18.668  33.664  1.00  0.00     0.028 C 
HETATM   23  C12 UNL     1      21.908  17.616  34.021  1.00  0.00     0.237 C 
ENDBRANCH  16  17
ENDBRANCH  15  16
ENDBRANCH  13  15
BRANCH   2  24
HETATM   24  N7  UNL     1      25.878   8.010  32.145  1.00  0.00    -0.371 N 
HETATM   25  C13 UNL     1      26.201   8.464  30.810  1.00  0.00     0.124 C 
HETATM   26  C14 UNL     1      27.209   7.458  30.274  1.00  0.00     0.021 C 
HETATM   27  C15 UNL     1      27.359   6.439  31.398  1.00  0.00     0.021 C 
HETATM   28  C16 UNL     1      26.003   6.568  32.090  1.00  0.00     0.124 C 
ENDBRANCH   2  24
TORSDOF 4
ENDMDL
