MODEL 1
REMARK VINA RESULT: -6.721863738      0.000      0.000
REMARK  8 active torsions:
REMARK  status: ('A' for Active; 'I' for Inactive)
REMARK    1  A    between atoms: C1_4  and  C2_5 
REMARK    2  A    between atoms: N3_10  and  C5_11 
REMARK    3  A    between atoms: C5_11  and  C6_12 
REMARK    4  A    between atoms: C7_13  and  C8_14 
REMARK    5  A    between atoms: C9_15  and  C10_16 
REMARK    6  A    between atoms: C11_17  and  C12_18 
REMARK    7  A    between atoms: C12_18  and  O1_19 
REMARK    8  A    between atoms: C15_23  and  N4_24 
ROOT
HETATM    1  C8  UNL     1      24.777  10.503  33.485  1.00  0.00    -0.015 C 
HETATM    2  C9  UNL     1      25.272   9.404  33.578  1.00  0.00    -0.085 C 
ENDROOT
BRANCH   2   3
HETATM    3  C10 UNL     1      25.886   8.079  33.710  1.00  0.00     0.097 C 
HETATM    4  C11 UNL     1      25.044   7.128  34.491  1.00  0.00     0.027 C 
HETATM    5  C13 UNL     1      25.556   5.779  34.033  1.00  0.00     0.010 C 
HETATM    6  C14 UNL     1      26.193   6.009  32.672  1.00  0.00     0.029 C 
HETATM    7  C15 UNL     1      25.965   7.476  32.358  1.00  0.00     0.123 C 
BRANCH   4   8
HETATM    8  C12 UNL     1      25.212   7.312  35.986  1.00  0.00     0.170 C 
BRANCH   8   9
HETATM    9  O1  UNL     1      23.987   7.316  36.642  1.00  0.00    -0.400 OA
ATOM     10  H1  UNL     1      23.510   8.122  36.485  1.00  0.00     0.209 HD
ENDBRANCH   8   9
ENDBRANCH   4   8
BRANCH   7  11
HETATM   11  N4  UNL     1      27.048   8.022  31.551  1.00  0.00    -0.298 N 
HETATM   12  C16 UNL     1      28.341   8.060  31.879  1.00  0.00     0.112 A 
HETATM   13  C17 UNL     1      29.003   8.660  30.824  1.00  0.00     0.037 A 
HETATM   14  C18 UNL     1      28.069   8.974  29.869  1.00  0.00     0.108 A 
HETATM   15  N5  UNL     1      26.882   8.564  30.357  1.00  0.00    -0.310 N 
ATOM     16  H5  UNL     1      25.988   8.658  29.875  1.00  0.00     0.186 HD
ENDBRANCH   7  11
ENDBRANCH   2   3
BRANCH   1  17
HETATM   17  C7  UNL     1      24.208  11.802  33.397  1.00  0.00    -0.013 C 
HETATM   18  C6  UNL     1      23.730  12.910  33.342  1.00  0.00    -0.072 C 
BRANCH  18  19
HETATM   19  C5  UNL     1      23.150  14.258  33.301  1.00  0.00     0.224 C 
BRANCH  19  20
HETATM   20  N3  UNL     1      23.335  14.805  31.999  1.00  0.00    -0.330 N 
HETATM   21  C2  UNL     1      22.542  15.640  31.337  1.00  0.00     0.123 A 
HETATM   22  N2  UNL     1      23.129  15.860  30.112  1.00  0.00    -0.350 N 
HETATM   23  C3  UNL     1      24.273  15.164  30.036  1.00  0.00     0.107 A 
ATOM     24  H2  UNL     1      22.754  16.460  29.377  1.00  0.00     0.166 HD
HETATM   25  C4  UNL     1      24.419  14.490  31.221  1.00  0.00     0.110 A 
BRANCH  21  26
HETATM   26  C1  UNL     1      21.289  16.277  31.691  1.00  0.00     0.129 C 
HETATM   27  N1  UNL     1      20.140  15.780  31.673  1.00  0.00    -0.405 N 
ATOM     28  H12 UNL     1      20.098  14.807  31.369  1.00  0.00     0.155 HD
ATOM     29  H11 UNL     1      19.258  16.228  31.922  1.00  0.00     0.155 HD
ENDBRANCH  21  26
ENDBRANCH  19  20
ENDBRANCH  18  19
ENDBRANCH   1  17
TORSDOF 8
ENDMDL
MODEL 2
REMARK VINA RESULT: -6.697562990      3.026      8.973
REMARK  8 active torsions:
REMARK  status: ('A' for Active; 'I' for Inactive)
REMARK    1  A    between atoms: C1_4  and  C2_5 
REMARK    2  A    between atoms: N3_10  and  C5_11 
REMARK    3  A    between atoms: C5_11  and  C6_12 
REMARK    4  A    between atoms: C7_13  and  C8_14 
REMARK    5  A    between atoms: C9_15  and  C10_16 
REMARK    6  A    between atoms: C11_17  and  C12_18 
REMARK    7  A    between atoms: C12_18  and  O1_19 
REMARK    8  A    between atoms: C15_23  and  N4_24 
ROOT
HETATM    1  C8  UNL     1      23.381  14.157  32.658  1.00  0.00    -0.015 C 
HETATM    2  C9  UNL     1      22.743  15.183  32.698  1.00  0.00    -0.085 C 
ENDROOT
BRANCH   2   3
HETATM    3  C10 UNL     1      21.983  16.436  32.726  1.00  0.00     0.097 C 
HETATM    4  C11 UNL     1      20.811  16.381  33.646  1.00  0.00     0.027 C 
HETATM    5  C13 UNL     1      20.549  17.843  33.937  1.00  0.00     0.010 C 
HETATM    6  C14 UNL     1      21.858  18.568  33.673  1.00  0.00     0.029 C 
HETATM    7  C15 UNL     1      22.856  17.486  33.303  1.00  0.00     0.123 C 
BRANCH   4   8
HETATM    8  C12 UNL     1      19.611  15.714  33.004  1.00  0.00     0.170 C 
BRANCH   8   9
HETATM    9  O1  UNL     1      19.372  14.458  33.549  1.00  0.00    -0.400 OA
ATOM     10  H1  UNL     1      18.494  14.153  33.352  1.00  0.00     0.209 HD
ENDBRANCH   8   9
ENDBRANCH   4   8
BRANCH   7  11
HETATM   11  N4  UNL     1      23.854  17.980  32.365  1.00  0.00    -0.298 N 
HETATM   12  C16 UNL     1      25.141  18.218  32.629  1.00  0.00     0.112 A 
HETATM   13  C17 UNL     1      25.711  18.674  31.454  1.00  0.00     0.037 A 
HETATM   14  C18 UNL     1      24.729  18.698  30.495  1.00  0.00     0.108 A 
HETATM   15  N5  UNL     1      23.605  18.264  31.098  1.00  0.00    -0.310 N 
ATOM     16  H5  UNL     1      22.697  18.168  30.644  1.00  0.00     0.186 HD
ENDBRANCH   7  11
ENDBRANCH   2   3
BRANCH   1  17
HETATM   17  C7  UNL     1      24.144  12.960  32.593  1.00  0.00    -0.013 C 
HETATM   18  C6  UNL     1      24.806  11.952  32.524  1.00  0.00    -0.072 C 
BRANCH  18  19
HETATM   19  C5  UNL     1      25.623  10.736  32.419  1.00  0.00     0.224 C 
BRANCH  19  20
HETATM   20  N3  UNL     1      25.165   9.784  33.374  1.00  0.00    -0.330 N 
HETATM   21  C2  UNL     1      24.795   8.525  33.167  1.00  0.00     0.123 A 
HETATM   22  N2  UNL     1      24.408   8.019  34.387  1.00  0.00    -0.350 N 
HETATM   23  C3  UNL     1      24.546   8.967  35.326  1.00  0.00     0.107 A 
ATOM     24  H2  UNL     1      24.069   7.071  34.552  1.00  0.00     0.166 HD
HETATM   25  C4  UNL     1      25.024  10.090  34.702  1.00  0.00     0.110 A 
BRANCH  21  26
HETATM   26  C1  UNL     1      24.751   7.708  31.971  1.00  0.00     0.129 C 
HETATM   27  N1  UNL     1      25.644   6.956  31.517  1.00  0.00    -0.405 N 
ATOM     28  H12 UNL     1      26.501   6.927  32.070  1.00  0.00     0.155 HD
ATOM     29  H11 UNL     1      25.614   6.381  30.675  1.00  0.00     0.155 HD
ENDBRANCH  21  26
ENDBRANCH  19  20
ENDBRANCH  18  19
ENDBRANCH   1  17
TORSDOF 8
ENDMDL
MODEL 3
REMARK VINA RESULT: -6.572093540      2.997      8.772
REMARK  8 active torsions:
REMARK  status: ('A' for Active; 'I' for Inactive)
REMARK    1  A    between atoms: C1_4  and  C2_5 
REMARK    2  A    between atoms: N3_10  and  C5_11 
REMARK    3  A    between atoms: C5_11  and  C6_12 
REMARK    4  A    between atoms: C7_13  and  C8_14 
REMARK    5  A    between atoms: C9_15  and  C10_16 
REMARK    6  A    between atoms: C11_17  and  C12_18 
REMARK    7  A    between atoms: C12_18  and  O1_19 
REMARK    8  A    between atoms: C15_23  and  N4_24 
ROOT
HETATM    1  C8  UNL     1      23.307  14.157  33.110  1.00  0.00    -0.015 C 
HETATM    2  C9  UNL     1      22.696  15.196  33.012  1.00  0.00    -0.085 C 
ENDROOT
BRANCH   2   3
HETATM    3  C10 UNL     1      21.934  16.442  32.887  1.00  0.00     0.097 C 
HETATM    4  C11 UNL     1      20.684  16.439  33.701  1.00  0.00     0.027 C 
HETATM    5  C13 UNL     1      20.394  17.915  33.866  1.00  0.00     0.010 C 
HETATM    6  C14 UNL     1      21.719  18.631  33.671  1.00  0.00     0.029 C 
HETATM    7  C15 UNL     1      22.749  17.535  33.467  1.00  0.00     0.123 C 
BRANCH   4   8
HETATM    8  C12 UNL     1      19.549  15.719  33.001  1.00  0.00     0.170 C 
BRANCH   8   9
HETATM    9  O1  UNL     1      19.334  14.457  33.540  1.00  0.00    -0.400 OA
ATOM     10  H1  UNL     1      19.825  13.790  33.074  1.00  0.00     0.209 HD
ENDBRANCH   8   9
ENDBRANCH   4   8
BRANCH   7  11
HETATM   11  N4  UNL     1      23.826  17.974  32.590  1.00  0.00    -0.298 N 
HETATM   12  C16 UNL     1      25.114  18.100  32.917  1.00  0.00     0.112 A 
HETATM   13  C17 UNL     1      25.773  18.540  31.784  1.00  0.00     0.037 A 
HETATM   14  C18 UNL     1      24.841  18.670  30.784  1.00  0.00     0.108 A 
HETATM   15  N5  UNL     1      23.660  18.311  31.323  1.00  0.00    -0.310 N 
ATOM     16  H5  UNL     1      22.769  18.302  30.826  1.00  0.00     0.186 HD
ENDBRANCH   7  11
ENDBRANCH   2   3
BRANCH   1  17
HETATM   17  C7  UNL     1      24.005  12.924  33.219  1.00  0.00    -0.013 C 
HETATM   18  C6  UNL     1      24.610  11.881  33.295  1.00  0.00    -0.072 C 
BRANCH  18  19
HETATM   19  C5  UNL     1      25.355  10.618  33.364  1.00  0.00     0.224 C 
BRANCH  19  20
HETATM   20  N3  UNL     1      25.868  10.310  32.071  1.00  0.00    -0.330 N 
HETATM   21  C2  UNL     1      25.774   9.167  31.400  1.00  0.00     0.123 A 
HETATM   22  N2  UNL     1      26.447   9.346  30.214  1.00  0.00    -0.350 N 
HETATM   23  C3  UNL     1      26.944  10.592  30.168  1.00  0.00     0.107 A 
ATOM     24  H2  UNL     1      26.553   8.643  29.483  1.00  0.00     0.166 HD
HETATM   25  C4  UNL     1      26.586  11.215  31.335  1.00  0.00     0.110 A 
BRANCH  21  26
HETATM   26  C1  UNL     1      25.131   7.907  31.712  1.00  0.00     0.129 C 
HETATM   27  N1  UNL     1      25.632   6.759  31.692  1.00  0.00    -0.405 N 
ATOM     28  H12 UNL     1      26.615   6.726  31.421  1.00  0.00     0.155 HD
ATOM     29  H11 UNL     1      25.179   5.872  31.912  1.00  0.00     0.155 HD
ENDBRANCH  21  26
ENDBRANCH  19  20
ENDBRANCH  18  19
ENDBRANCH   1  17
TORSDOF 8
ENDMDL
MODEL 4
REMARK VINA RESULT: -6.537668989      3.473      5.114
REMARK  8 active torsions:
REMARK  status: ('A' for Active; 'I' for Inactive)
REMARK    1  A    between atoms: C1_4  and  C2_5 
REMARK    2  A    between atoms: N3_10  and  C5_11 
REMARK    3  A    between atoms: C5_11  and  C6_12 
REMARK    4  A    between atoms: C7_13  and  C8_14 
REMARK    5  A    between atoms: C9_15  and  C10_16 
REMARK    6  A    between atoms: C11_17  and  C12_18 
REMARK    7  A    between atoms: C12_18  and  O1_19 
REMARK    8  A    between atoms: C15_23  and  N4_24 
ROOT
HETATM    1  C8  UNL     1      23.127  14.522  33.246  1.00  0.00    -0.015 C 
HETATM    2  C9  UNL     1      23.705  13.467  33.121  1.00  0.00    -0.085 C 
ENDROOT
BRANCH   2   3
HETATM    3  C10 UNL     1      24.389  12.177  32.986  1.00  0.00     0.097 C 
HETATM    4  C11 UNL     1      23.466  11.072  32.598  1.00  0.00     0.027 C 
HETATM    5  C13 UNL     1      24.406  10.053  31.992  1.00  0.00     0.010 C 
HETATM    6  C14 UNL     1      25.638  10.825  31.549  1.00  0.00     0.029 C 
HETATM    7  C15 UNL     1      25.338  12.281  31.852  1.00  0.00     0.123 C 
BRANCH   4   8
HETATM    8  C12 UNL     1      22.719  10.507  33.789  1.00  0.00     0.170 C 
BRANCH   8   9
HETATM    9  O1  UNL     1      21.376  10.866  33.768  1.00  0.00    -0.400 OA
ATOM     10  H1  UNL     1      21.162  11.372  32.993  1.00  0.00     0.209 HD
ENDBRANCH   8   9
ENDBRANCH   4   8
BRANCH   7  11
HETATM   11  N4  UNL     1      26.550  13.016  32.185  1.00  0.00    -0.298 N 
HETATM   12  C16 UNL     1      27.540  12.598  32.977  1.00  0.00     0.112 A 
HETATM   13  C17 UNL     1      28.480  13.611  33.010  1.00  0.00     0.037 A 
HETATM   14  C18 UNL     1      28.019  14.634  32.219  1.00  0.00     0.108 A 
HETATM   15  N5  UNL     1      26.831  14.226  31.733  1.00  0.00    -0.310 N 
ATOM     16  H5  UNL     1      26.237  14.771  31.107  1.00  0.00     0.186 HD
ENDBRANCH   7  11
ENDBRANCH   2   3
BRANCH   1  17
HETATM   17  C7  UNL     1      22.431  15.750  33.408  1.00  0.00    -0.013 C 
HETATM   18  C6  UNL     1      21.848  16.801  33.528  1.00  0.00    -0.072 C 
BRANCH  18  19
HETATM   19  C5  UNL     1      21.156  18.089  33.656  1.00  0.00     0.224 C 
BRANCH  19  20
HETATM   20  N3  UNL     1      19.890  18.004  33.007  1.00  0.00    -0.330 N 
HETATM   21  C2  UNL     1      18.875  18.859  33.068  1.00  0.00     0.123 A 
HETATM   22  N2  UNL     1      17.865  18.332  32.296  1.00  0.00    -0.350 N 
HETATM   23  C3  UNL     1      18.270  17.166  31.770  1.00  0.00     0.107 A 
ATOM     24  H2  UNL     1      16.952  18.761  32.147  1.00  0.00     0.166 HD
HETATM   25  C4  UNL     1      19.549  16.944  32.209  1.00  0.00     0.110 A 
BRANCH  21  26
HETATM   26  C1  UNL     1      18.710  20.123  33.756  1.00  0.00     0.129 C 
HETATM   27  N1  UNL     1      18.636  20.326  34.990  1.00  0.00    -0.405 N 
ATOM     28  H12 UNL     1      18.702  19.487  35.567  1.00  0.00     0.155 HD
ATOM     29  H11 UNL     1      18.519  21.216  35.475  1.00  0.00     0.155 HD
ENDBRANCH  21  26
ENDBRANCH  19  20
ENDBRANCH  18  19
ENDBRANCH   1  17
TORSDOF 8
ENDMDL
MODEL 5
REMARK VINA RESULT: -6.532108415      3.154      8.759
REMARK  8 active torsions:
REMARK  status: ('A' for Active; 'I' for Inactive)
REMARK    1  A    between atoms: C1_4  and  C2_5 
REMARK    2  A    between atoms: N3_10  and  C5_11 
REMARK    3  A    between atoms: C5_11  and  C6_12 
REMARK    4  A    between atoms: C7_13  and  C8_14 
REMARK    5  A    between atoms: C9_15  and  C10_16 
REMARK    6  A    between atoms: C11_17  and  C12_18 
REMARK    7  A    between atoms: C12_18  and  O1_19 
REMARK    8  A    between atoms: C15_23  and  N4_24 
ROOT
HETATM    1  C8  UNL     1      23.653  14.190  32.820  1.00  0.00    -0.015 C 
HETATM    2  C9  UNL     1      22.942  15.166  32.772  1.00  0.00    -0.085 C 
ENDROOT
BRANCH   2   3
HETATM    3  C10 UNL     1      22.101  16.365  32.709  1.00  0.00     0.097 C 
HETATM    4  C11 UNL     1      20.888  16.266  33.572  1.00  0.00     0.027 C 
HETATM    5  C13 UNL     1      20.515  17.717  33.786  1.00  0.00     0.010 C 
HETATM    6  C14 UNL     1      21.786  18.519  33.556  1.00  0.00     0.029 C 
HETATM    7  C15 UNL     1      22.871  17.494  33.283  1.00  0.00     0.123 C 
BRANCH   4   8
HETATM    8  C12 UNL     1      19.771  15.493  32.900  1.00  0.00     0.170 C 
BRANCH   8   9
HETATM    9  O1  UNL     1      19.485  14.314  33.577  1.00  0.00    -0.400 OA
ATOM     10  H1  UNL     1      19.094  14.485  34.426  1.00  0.00     0.209 HD
ENDBRANCH   8   9
ENDBRANCH   4   8
BRANCH   7  11
HETATM   11  N4  UNL     1      23.882  18.018  32.375  1.00  0.00    -0.298 N 
HETATM   12  C16 UNL     1      25.152  18.298  32.679  1.00  0.00     0.112 A 
HETATM   13  C17 UNL     1      25.743  18.769  31.521  1.00  0.00     0.037 A 
HETATM   14  C18 UNL     1      24.792  18.759  30.532  1.00  0.00     0.108 A 
HETATM   15  N5  UNL     1      23.664  18.290  31.100  1.00  0.00    -0.310 N 
ATOM     16  H5  UNL     1      22.775  18.163  30.618  1.00  0.00     0.186 HD
ENDBRANCH   7  11
ENDBRANCH   2   3
BRANCH   1  17
HETATM   17  C7  UNL     1      24.509  13.056  32.870  1.00  0.00    -0.013 C 
HETATM   18  C6  UNL     1      25.244  12.099  32.930  1.00  0.00    -0.072 C 
BRANCH  18  19
HETATM   19  C5  UNL     1      26.150  10.948  33.023  1.00  0.00     0.224 C 
BRANCH  19  20
HETATM   20  N3  UNL     1      25.406   9.751  32.813  1.00  0.00    -0.330 N 
HETATM   21  C2  UNL     1      24.565   9.149  33.647  1.00  0.00     0.123 A 
HETATM   22  N2  UNL     1      24.116   8.016  33.008  1.00  0.00    -0.350 N 
HETATM   23  C3  UNL     1      24.680   7.937  31.794  1.00  0.00     0.107 A 
ATOM     24  H2  UNL     1      23.456   7.342  33.397  1.00  0.00     0.166 HD
HETATM   25  C4  UNL     1      25.499   9.027  31.654  1.00  0.00     0.110 A 
BRANCH  21  26
HETATM   26  C1  UNL     1      24.111   9.486  34.981  1.00  0.00     0.129 C 
HETATM   27  N1  UNL     1      23.619   8.723  35.844  1.00  0.00    -0.405 N 
ATOM     28  H12 UNL     1      23.535   7.748  35.555  1.00  0.00     0.155 HD
ATOM     29  H11 UNL     1      23.299   8.961  36.783  1.00  0.00     0.155 HD
ENDBRANCH  21  26
ENDBRANCH  19  20
ENDBRANCH  18  19
ENDBRANCH   1  17
TORSDOF 8
ENDMDL
