MODEL 1
REMARK VINA RESULT: -6.271678061      0.000      0.000
REMARK  8 active torsions:
REMARK  status: ('A' for Active; 'I' for Inactive)
REMARK    1  A    between atoms: N1_2  and  C2_5 
REMARK    2  A    between atoms: C2_5  and  C3_6 
REMARK    3  A    between atoms: C2_5  and  C15_25 
REMARK       I    between atoms: C3_6  and  N2_8 
REMARK    4  A    between atoms: C4_10  and  C5_11 
REMARK    5  A    between atoms: C6_12  and  C7_13 
REMARK    6  A    between atoms: C8_14  and  C9_15 
REMARK    7  A    between atoms: C9_15  and  C10_16 
REMARK    8  A    between atoms: C10_16  and  N3_17 
ROOT
HETATM    1  C3  UNL     1      24.699   9.855  34.099  1.00  0.00     0.253 C 
HETATM    2  O1  UNL     1      25.240  10.967  34.325  1.00  0.00    -0.271 OA
HETATM    3  N2  UNL     1      23.354   9.664  33.802  1.00  0.00    -0.328 N 
ATOM      4  H2  UNL     1      22.989   8.713  33.799  1.00  0.00     0.168 HD
HETATM    5  C4  UNL     1      22.561  10.613  33.535  1.00  0.00     0.157 C 
ENDROOT
BRANCH   5   6
HETATM    6  C5  UNL     1      22.967  11.979  33.512  1.00  0.00    -0.047 C 
HETATM    7  C6  UNL     1      23.298  13.161  33.472  1.00  0.00    -0.009 C 
BRANCH   7   8
HETATM    8  C7  UNL     1      23.668  14.525  33.451  1.00  0.00    -0.015 C 
HETATM    9  C8  UNL     1      23.969  15.693  33.437  1.00  0.00    -0.091 C 
BRANCH   9  10
HETATM   10  C9  UNL     1      24.329  17.120  33.404  1.00  0.00     0.114 C 
BRANCH  10  11
HETATM   11  C10 UNL     1      23.451  17.819  32.351  1.00  0.00     0.133 C 
BRANCH  11  12
HETATM   12  N3  UNL     1      22.414  18.486  33.100  1.00  0.00    -0.379 N 
HETATM   13  C11 UNL     1      21.220  18.037  33.093  1.00  0.00     0.072 C 
HETATM   14  C12 UNL     1      20.087  18.670  33.841  1.00  0.00     0.077 C 
HETATM   15  N4  UNL     1      20.688  16.894  32.412  1.00  0.00    -0.380 N 
HETATM   16  C13 UNL     1      18.894  18.257  33.031  1.00  0.00     0.027 C 
HETATM   17  C14 UNL     1      19.275  17.076  32.186  1.00  0.00     0.121 C 
ATOM     18  H4  UNL     1      21.228  16.076  32.131  1.00  0.00     0.160 HD
ATOM     19  H3  UNL     1      22.638  19.322  33.639  1.00  0.00     0.160 HD
ENDBRANCH  11  12
ENDBRANCH  10  11
ENDBRANCH   9  10
ENDBRANCH   7   8
ENDBRANCH   5   6
BRANCH   1  20
HETATM   20  C2  UNL     1      25.566   8.631  34.150  1.00  0.00     0.284 C 
BRANCH  20  21
HETATM   21  N1  UNL     1      24.792   7.472  34.536  1.00  0.00    -0.066 N 
HETATM   22  C1  UNL     1      25.098   6.981  35.860  1.00  0.00     0.267 C 
ATOM     23  H12 UNL     1      24.891   6.728  33.846  1.00  0.00     0.277 HD
ATOM     24  H11 UNL     1      23.794   7.660  34.445  1.00  0.00     0.277 HD
ENDBRANCH  20  21
BRANCH  20  25
HETATM   25  C15 UNL     1      26.135   8.332  32.783  1.00  0.00    -0.014 C 
HETATM   26  C16 UNL     1      26.173   9.512  31.865  1.00  0.00     0.017 C 
HETATM   27  C17 UNL     1      25.224   7.280  32.147  1.00  0.00     0.017 C 
HETATM   28  C18 UNL     1      27.537   7.776  32.953  1.00  0.00     0.017 C 
ENDBRANCH  20  25
ENDBRANCH   1  20
TORSDOF 8
ENDMDL
MODEL 2
REMARK VINA RESULT: -6.096361768      0.698      1.009
REMARK  8 active torsions:
REMARK  status: ('A' for Active; 'I' for Inactive)
REMARK    1  A    between atoms: N1_2  and  C2_5 
REMARK    2  A    between atoms: C2_5  and  C3_6 
REMARK    3  A    between atoms: C2_5  and  C15_25 
REMARK       I    between atoms: C3_6  and  N2_8 
REMARK    4  A    between atoms: C4_10  and  C5_11 
REMARK    5  A    between atoms: C6_12  and  C7_13 
REMARK    6  A    between atoms: C8_14  and  C9_15 
REMARK    7  A    between atoms: C9_15  and  C10_16 
REMARK    8  A    between atoms: C10_16  and  N3_17 
ROOT
HETATM    1  C3  UNL     1      24.701   9.900  34.096  1.00  0.00     0.253 C 
HETATM    2  O1  UNL     1      25.228  11.012  34.352  1.00  0.00    -0.271 OA
HETATM    3  N2  UNL     1      23.365   9.705  33.762  1.00  0.00    -0.328 N 
ATOM      4  H2  UNL     1      23.007   8.751  33.736  1.00  0.00     0.168 HD
HETATM    5  C4  UNL     1      22.572  10.652  33.489  1.00  0.00     0.157 C 
ENDROOT
BRANCH   5   6
HETATM    6  C5  UNL     1      22.969  12.021  33.496  1.00  0.00    -0.047 C 
HETATM    7  C6  UNL     1      23.296  13.205  33.479  1.00  0.00    -0.009 C 
BRANCH   7   8
HETATM    8  C7  UNL     1      23.656  14.571  33.482  1.00  0.00    -0.015 C 
HETATM    9  C8  UNL     1      23.950  15.741  33.478  1.00  0.00    -0.091 C 
BRANCH   9  10
HETATM   10  C9  UNL     1      24.311  17.168  33.456  1.00  0.00     0.114 C 
BRANCH  10  11
HETATM   11  C10 UNL     1      23.082  17.988  33.885  1.00  0.00     0.133 C 
BRANCH  11  12
HETATM   12  N3  UNL     1      21.962  17.378  33.210  1.00  0.00    -0.379 N 
HETATM   13  C11 UNL     1      20.828  17.963  33.178  1.00  0.00     0.072 C 
HETATM   14  C12 UNL     1      19.618  17.398  32.500  1.00  0.00     0.077 C 
HETATM   15  N4  UNL     1      20.445  19.221  33.745  1.00  0.00    -0.380 N 
HETATM   16  C13 UNL     1      18.494  18.026  33.271  1.00  0.00     0.027 C 
HETATM   17  C14 UNL     1      19.024  19.230  33.994  1.00  0.00     0.121 C 
ATOM     18  H4  UNL     1      21.081  19.994  33.943  1.00  0.00     0.160 HD
ATOM     19  H3  UNL     1      22.078  16.473  32.754  1.00  0.00     0.160 HD
ENDBRANCH  11  12
ENDBRANCH  10  11
ENDBRANCH   9  10
ENDBRANCH   7   8
ENDBRANCH   5   6
BRANCH   1  20
HETATM   20  C2  UNL     1      25.575   8.682  34.151  1.00  0.00     0.284 C 
BRANCH  20  21
HETATM   21  N1  UNL     1      24.806   7.517  34.530  1.00  0.00    -0.066 N 
HETATM   22  C1  UNL     1      24.895   7.189  35.934  1.00  0.00     0.267 C 
ATOM     23  H12 UNL     1      25.064   6.714  33.957  1.00  0.00     0.277 HD
ATOM     24  H11 UNL     1      23.831   7.623  34.247  1.00  0.00     0.277 HD
ENDBRANCH  20  21
BRANCH  20  25
HETATM   25  C15 UNL     1      26.157   8.389  32.788  1.00  0.00    -0.014 C 
HETATM   26  C16 UNL     1      26.106   9.545  31.841  1.00  0.00     0.017 C 
HETATM   27  C17 UNL     1      25.319   7.259  32.185  1.00  0.00     0.017 C 
HETATM   28  C18 UNL     1      27.595   7.937  32.962  1.00  0.00     0.017 C 
ENDBRANCH  20  25
ENDBRANCH   1  20
TORSDOF 8
ENDMDL
MODEL 3
REMARK VINA RESULT: -6.066616984      1.279      1.422
REMARK  8 active torsions:
REMARK  status: ('A' for Active; 'I' for Inactive)
REMARK    1  A    between atoms: N1_2  and  C2_5 
REMARK    2  A    between atoms: C2_5  and  C3_6 
REMARK    3  A    between atoms: C2_5  and  C15_25 
REMARK       I    between atoms: C3_6  and  N2_8 
REMARK    4  A    between atoms: C4_10  and  C5_11 
REMARK    5  A    between atoms: C6_12  and  C7_13 
REMARK    6  A    between atoms: C8_14  and  C9_15 
REMARK    7  A    between atoms: C9_15  and  C10_16 
REMARK    8  A    between atoms: C10_16  and  N3_17 
ROOT
HETATM    1  C3  UNL     1      24.901   9.358  34.188  1.00  0.00     0.253 C 
HETATM    2  O1  UNL     1      25.563  10.382  33.879  1.00  0.00    -0.271 OA
HETATM    3  N2  UNL     1      23.518   9.309  34.321  1.00  0.00    -0.328 N 
ATOM      4  H2  UNL     1      23.101   8.476  34.734  1.00  0.00     0.168 HD
HETATM    5  C4  UNL     1      22.752  10.248  33.957  1.00  0.00     0.157 C 
ENDROOT
BRANCH   5   6
HETATM    6  C5  UNL     1      23.230  11.455  33.369  1.00  0.00    -0.047 C 
HETATM    7  C6  UNL     1      23.633  12.487  32.838  1.00  0.00    -0.009 C 
BRANCH   7   8
HETATM    8  C7  UNL     1      24.077  13.687  32.241  1.00  0.00    -0.015 C 
HETATM    9  C8  UNL     1      24.454  14.720  31.743  1.00  0.00    -0.091 C 
BRANCH   9  10
HETATM   10  C9  UNL     1      24.898  15.986  31.137  1.00  0.00     0.114 C 
BRANCH  10  11
HETATM   11  C10 UNL     1      23.687  16.656  30.466  1.00  0.00     0.133 C 
BRANCH  11  12
HETATM   12  N3  UNL     1      23.061  17.439  31.503  1.00  0.00    -0.379 N 
HETATM   13  C11 UNL     1      21.919  17.108  31.966  1.00  0.00     0.072 C 
HETATM   14  C12 UNL     1      21.202  17.867  33.040  1.00  0.00     0.077 C 
HETATM   15  N4  UNL     1      21.083  16.003  31.601  1.00  0.00    -0.380 N 
HETATM   16  C13 UNL     1      19.764  17.548  32.755  1.00  0.00     0.027 C 
HETATM   17  C14 UNL     1      19.707  16.313  31.903  1.00  0.00     0.121 C 
ATOM     18  H4  UNL     1      21.412  15.129  31.191  1.00  0.00     0.160 HD
ATOM     19  H3  UNL     1      23.535  18.264  31.870  1.00  0.00     0.160 HD
ENDBRANCH  11  12
ENDBRANCH  10  11
ENDBRANCH   9  10
ENDBRANCH   7   8
ENDBRANCH   5   6
BRANCH   1  20
HETATM   20  C2  UNL     1      25.655   8.084  34.432  1.00  0.00     0.284 C 
BRANCH  20  21
HETATM   21  N1  UNL     1      24.879   7.179  35.250  1.00  0.00    -0.066 N 
HETATM   22  C1  UNL     1      25.119   7.321  36.667  1.00  0.00     0.267 C 
ATOM     23  H12 UNL     1      25.026   6.214  34.956  1.00  0.00     0.277 HD
ATOM     24  H11 UNL     1      23.884   7.272  35.043  1.00  0.00     0.277 HD
ENDBRANCH  20  21
BRANCH  20  25
HETATM   25  C15 UNL     1      25.917   7.369  33.127  1.00  0.00    -0.014 C 
HETATM   26  C16 UNL     1      24.889   7.626  32.072  1.00  0.00     0.017 C 
HETATM   27  C17 UNL     1      25.898   5.870  33.435  1.00  0.00     0.017 C 
HETATM   28  C18 UNL     1      27.285   7.781  32.614  1.00  0.00     0.017 C 
ENDBRANCH  20  25
ENDBRANCH   1  20
TORSDOF 8
ENDMDL
MODEL 4
REMARK VINA RESULT: -5.872079417      2.000      2.881
REMARK  8 active torsions:
REMARK  status: ('A' for Active; 'I' for Inactive)
REMARK    1  A    between atoms: N1_2  and  C2_5 
REMARK    2  A    between atoms: C2_5  and  C3_6 
REMARK    3  A    between atoms: C2_5  and  C15_25 
REMARK       I    between atoms: C3_6  and  N2_8 
REMARK    4  A    between atoms: C4_10  and  C5_11 
REMARK    5  A    between atoms: C6_12  and  C7_13 
REMARK    6  A    between atoms: C8_14  and  C9_15 
REMARK    7  A    between atoms: C9_15  and  C10_16 
REMARK    8  A    between atoms: C10_16  and  N3_17 
ROOT
HETATM    1  C3  UNL     1      26.689   8.319  32.382  1.00  0.00     0.253 C 
HETATM    2  O1  UNL     1      26.735   9.455  32.918  1.00  0.00    -0.271 OA
HETATM    3  N2  UNL     1      25.535   7.703  31.911  1.00  0.00    -0.328 N 
ATOM      4  H2  UNL     1      25.585   6.720  31.646  1.00  0.00     0.168 HD
HETATM    5  C4  UNL     1      24.426   8.301  31.795  1.00  0.00     0.157 C 
ENDROOT
BRANCH   5   6
HETATM    6  C5  UNL     1      24.246   9.673  32.135  1.00  0.00    -0.047 C 
HETATM    7  C6  UNL     1      24.067  10.855  32.418  1.00  0.00    -0.009 C 
BRANCH   7   8
HETATM    8  C7  UNL     1      23.859  12.207  32.770  1.00  0.00    -0.015 C 
HETATM    9  C8  UNL     1      23.672  13.364  33.058  1.00  0.00    -0.091 C 
BRANCH   9  10
HETATM   10  C9  UNL     1      23.457  14.781  33.396  1.00  0.00     0.114 C 
BRANCH  10  11
HETATM   11  C10 UNL     1      23.225  15.563  32.092  1.00  0.00     0.133 C 
BRANCH  11  12
HETATM   12  N3  UNL     1      21.797  15.551  31.888  1.00  0.00    -0.379 N 
HETATM   13  C11 UNL     1      21.093  16.575  32.176  1.00  0.00     0.072 C 
HETATM   14  C12 UNL     1      19.607  16.644  31.995  1.00  0.00     0.077 C 
HETATM   15  N4  UNL     1      21.510  17.836  32.713  1.00  0.00    -0.380 N 
HETATM   16  C13 UNL     1      19.203  17.652  33.030  1.00  0.00     0.027 C 
HETATM   17  C14 UNL     1      20.413  18.453  33.416  1.00  0.00     0.121 C 
ATOM     18  H4  UNL     1      22.443  18.236  32.612  1.00  0.00     0.160 HD
ATOM     19  H3  UNL     1      21.347  14.717  31.510  1.00  0.00     0.160 HD
ENDBRANCH  11  12
ENDBRANCH  10  11
ENDBRANCH   9  10
ENDBRANCH   7   8
ENDBRANCH   5   6
BRANCH   1  20
HETATM   20  C2  UNL     1      27.976   7.562  32.232  1.00  0.00     0.284 C 
BRANCH  20  21
HETATM   21  N1  UNL     1      27.733   6.137  32.232  1.00  0.00    -0.066 N 
HETATM   22  C1  UNL     1      28.130   5.476  33.454  1.00  0.00     0.267 C 
ATOM     23  H12 UNL     1      28.177   5.697  31.426  1.00  0.00     0.277 HD
ATOM     24  H11 UNL     1      26.756   5.939  32.018  1.00  0.00     0.277 HD
ENDBRANCH  20  21
BRANCH  20  25
HETATM   25  C15 UNL     1      28.628   7.889  30.909  1.00  0.00    -0.014 C 
HETATM   26  C16 UNL     1      28.291   9.246  30.379  1.00  0.00     0.017 C 
HETATM   27  C17 UNL     1      28.116   6.858  29.900  1.00  0.00     0.017 C 
HETATM   28  C18 UNL     1      30.132   7.764  31.066  1.00  0.00     0.017 C 
ENDBRANCH  20  25
ENDBRANCH   1  20
TORSDOF 8
ENDMDL
MODEL 5
REMARK VINA RESULT: -5.872021524      2.445      3.619
REMARK  8 active torsions:
REMARK  status: ('A' for Active; 'I' for Inactive)
REMARK    1  A    between atoms: N1_2  and  C2_5 
REMARK    2  A    between atoms: C2_5  and  C3_6 
REMARK    3  A    between atoms: C2_5  and  C15_25 
REMARK       I    between atoms: C3_6  and  N2_8 
REMARK    4  A    between atoms: C4_10  and  C5_11 
REMARK    5  A    between atoms: C6_12  and  C7_13 
REMARK    6  A    between atoms: C8_14  and  C9_15 
REMARK    7  A    between atoms: C9_15  and  C10_16 
REMARK    8  A    between atoms: C10_16  and  N3_17 
ROOT
HETATM    1  C3  UNL     1      26.689   8.645  31.050  1.00  0.00     0.253 C 
HETATM    2  O1  UNL     1      25.574   9.223  31.111  1.00  0.00    -0.271 OA
HETATM    3  N2  UNL     1      27.924   9.283  31.077  1.00  0.00    -0.328 N 
ATOM      4  H2  UNL     1      28.756   8.737  30.857  1.00  0.00     0.168 HD
HETATM    5  C4  UNL     1      28.067  10.508  31.360  1.00  0.00     0.157 C 
ENDROOT
BRANCH   5   6
HETATM    6  C5  UNL     1      26.972  11.361  31.683  1.00  0.00    -0.047 C 
HETATM    7  C6  UNL     1      26.043  12.108  31.981  1.00  0.00    -0.009 C 
BRANCH   7   8
HETATM    8  C7  UNL     1      24.980  12.980  32.301  1.00  0.00    -0.015 C 
HETATM    9  C8  UNL     1      24.073  13.732  32.561  1.00  0.00    -0.091 C 
BRANCH   9  10
HETATM   10  C9  UNL     1      22.978  14.664  32.882  1.00  0.00     0.114 C 
BRANCH  10  11
HETATM   11  C10 UNL     1      22.695  15.528  31.641  1.00  0.00     0.133 C 
BRANCH  11  12
HETATM   12  N3  UNL     1      21.263  15.699  31.614  1.00  0.00    -0.379 N 
HETATM   13  C11 UNL     1      20.722  16.722  32.153  1.00  0.00     0.072 C 
HETATM   14  C12 UNL     1      19.245  16.973  32.168  1.00  0.00     0.077 C 
HETATM   15  N4  UNL     1      21.343  17.816  32.837  1.00  0.00    -0.380 N 
HETATM   16  C13 UNL     1      19.075  17.816  33.397  1.00  0.00     0.027 C 
HETATM   17  C14 UNL     1      20.406  18.406  33.762  1.00  0.00     0.121 C 
ATOM     18  H4  UNL     1      22.303  18.130  32.692  1.00  0.00     0.160 HD
ATOM     19  H3  UNL     1      20.679  14.997  31.160  1.00  0.00     0.160 HD
ENDBRANCH  11  12
ENDBRANCH  10  11
ENDBRANCH   9  10
ENDBRANCH   7   8
ENDBRANCH   5   6
BRANCH   1  20
HETATM   20  C2  UNL     1      26.697   7.148  30.942  1.00  0.00     0.284 C 
BRANCH  20  21
HETATM   21  N1  UNL     1      27.889   6.691  30.263  1.00  0.00    -0.066 N 
HETATM   22  C1  UNL     1      27.728   6.544  28.835  1.00  0.00     0.267 C 
ATOM     23  H12 UNL     1      28.227   5.822  30.678  1.00  0.00     0.277 HD
ATOM     24  H11 UNL     1      28.679   7.300  30.475  1.00  0.00     0.277 HD
ENDBRANCH  20  21
BRANCH  20  25
HETATM   25  C15 UNL     1      26.717   6.522  32.317  1.00  0.00    -0.014 C 
HETATM   26  C16 UNL     1      27.933   6.851  33.122  1.00  0.00     0.017 C 
HETATM   27  C17 UNL     1      26.696   5.005  32.109  1.00  0.00     0.017 C 
HETATM   28  C18 UNL     1      25.474   6.963  33.069  1.00  0.00     0.017 C 
ENDBRANCH  20  25
ENDBRANCH   1  20
TORSDOF 8
ENDMDL
