MODEL 1
REMARK VINA RESULT: -6.070965885      0.000      0.000
REMARK  5 active torsions:
REMARK  status: ('A' for Active; 'I' for Inactive)
REMARK    1  A    between atoms: C3_3  and  C4_4 
REMARK    2  A    between atoms: C4_4  and  N1_5 
REMARK    3  A    between atoms: C9_10  and  C10_11 
REMARK    4  A    between atoms: C14_18  and  C15_19 
REMARK    5  A    between atoms: C15_19  and  N3_20 
REMARK       I    between atoms: N3_20  and  C16_22 
ROOT
HETATM    1  N1  UNL     1      25.146  16.547  33.303  1.00  0.00    -0.061 N 
HETATM    2  C5  UNL     1      24.700  16.583  34.686  1.00  0.00     0.273 C 
HETATM    3  C6  UNL     1      25.358  15.159  33.007  1.00  0.00     0.244 C 
HETATM    4  C7  UNL     1      25.249  14.775  31.588  1.00  0.00     0.036 C 
HETATM    5  C8  UNL     1      25.716  15.895  30.674  1.00  0.00     0.022 C 
HETATM    6  C9  UNL     1      24.372  16.514  30.980  1.00  0.00     0.010 C 
HETATM    7  C12 UNL     1      23.940  15.063  30.887  1.00  0.00     0.100 C 
HETATM    8  N2  UNL     1      22.724  14.712  31.473  1.00  0.00    -0.355 N 
ATOM      9  H2  UNL     1      22.123  14.015  31.032  1.00  0.00     0.162 HD
HETATM   10  C13 UNL     1      22.330  15.324  32.679  1.00  0.00     0.225 C 
HETATM   11  O1  UNL     1      21.676  14.748  33.574  1.00  0.00    -0.273 OA
HETATM   12  C14 UNL     1      22.739  16.735  32.846  1.00  0.00     0.127 C 
HETATM   13  C17 UNL     1      24.145  17.014  32.352  1.00  0.00     0.215 C 
ENDROOT
BRANCH  12  14
HETATM   14  C15 UNL     1      21.695  17.697  32.355  1.00  0.00     0.138 C 
BRANCH  14  15
HETATM   15  N3  UNL     1      20.357  17.129  32.595  1.00  0.00    -0.364 N 
HETATM   16  C16 UNL     1      19.421  17.734  33.441  1.00  0.00     0.181 C 
HETATM   17  N4  UNL     1      18.170  17.541  33.262  1.00  0.00    -0.374 N 
HETATM   18  N5  UNL     1      19.856  18.559  34.495  1.00  0.00    -0.064 NA
ATOM     19  H42 UNL     1      17.855  16.944  32.498  1.00  0.00     0.158 HD
ATOM     20  H41 UNL     1      17.488  17.982  33.878  1.00  0.00     0.158 HD
ATOM     21  H3  UNL     1      20.103  16.261  32.126  1.00  0.00     0.162 HD
ENDBRANCH  14  15
ENDBRANCH  12  14
BRANCH   1  22
HETATM   22  C4  UNL     1      26.315  17.392  33.266  1.00  0.00     0.264 C 
BRANCH  22  23
HETATM   23  C3  UNL     1      26.025  18.841  33.376  1.00  0.00    -0.004 C 
HETATM   24  C2  UNL     1      26.722  19.702  32.684  1.00  0.00    -0.033 C 
HETATM   25  C1  UNL     1      26.431  21.145  32.796  1.00  0.00     0.036 C 
ENDBRANCH  22  23
ENDBRANCH   1  22
BRANCH   6  26
HETATM   26  C10 UNL     1      23.985  17.433  29.865  1.00  0.00     0.009 C 
HETATM   27  C11 UNL     1      24.435  18.856  30.074  1.00  0.00     0.006 C 
ENDBRANCH   6  26
TORSDOF 5
ENDMDL
MODEL 2
REMARK VINA RESULT: -6.068558714      2.412      5.122
REMARK  5 active torsions:
REMARK  status: ('A' for Active; 'I' for Inactive)
REMARK    1  A    between atoms: C3_3  and  C4_4 
REMARK    2  A    between atoms: C4_4  and  N1_5 
REMARK    3  A    between atoms: C9_10  and  C10_11 
REMARK    4  A    between atoms: C14_18  and  C15_19 
REMARK    5  A    between atoms: C15_19  and  N3_20 
REMARK       I    between atoms: N3_20  and  C16_22 
ROOT
HETATM    1  N1  UNL     1      22.302  16.416  32.721  1.00  0.00    -0.061 N 
HETATM    2  C5  UNL     1      21.328  16.263  31.654  1.00  0.00     0.273 C 
HETATM    3  C6  UNL     1      22.970  15.150  32.812  1.00  0.00     0.244 C 
HETATM    4  C7  UNL     1      24.335  15.175  33.368  1.00  0.00     0.036 C 
HETATM    5  C8  UNL     1      24.486  16.265  34.415  1.00  0.00     0.022 C 
HETATM    6  C9  UNL     1      24.567  17.197  33.228  1.00  0.00     0.010 C 
HETATM    7  C12 UNL     1      25.359  16.035  32.661  1.00  0.00     0.100 C 
HETATM    8  N2  UNL     1      25.511  15.971  31.276  1.00  0.00    -0.355 N 
ATOM      9  H2  UNL     1      26.385  15.638  30.870  1.00  0.00     0.162 HD
HETATM   10  C13 UNL     1      24.449  16.370  30.440  1.00  0.00     0.225 C 
HETATM   11  O1  UNL     1      24.192  15.842  29.338  1.00  0.00    -0.273 OA
HETATM   12  C14 UNL     1      23.620  17.485  30.944  1.00  0.00     0.127 C 
HETATM   13  C17 UNL     1      23.338  17.399  32.432  1.00  0.00     0.215 C 
ENDROOT
BRANCH  12  14
HETATM   14  C15 UNL     1      24.110  18.825  30.471  1.00  0.00     0.138 C 
BRANCH  14  15
HETATM   15  N3  UNL     1      25.089  18.630  29.388  1.00  0.00    -0.364 N 
HETATM   16  C16 UNL     1      26.417  19.061  29.484  1.00  0.00     0.181 C 
HETATM   17  N4  UNL     1      27.334  18.477  28.812  1.00  0.00    -0.374 N 
HETATM   18  N5  UNL     1      26.747  20.140  30.325  1.00  0.00    -0.064 NA
ATOM     19  H42 UNL     1      27.096  17.695  28.203  1.00  0.00     0.158 HD
ATOM     20  H41 UNL     1      28.302  18.790  28.882  1.00  0.00     0.158 HD
ATOM     21  H3  UNL     1      24.787  18.163  28.534  1.00  0.00     0.162 HD
ENDBRANCH  14  15
ENDBRANCH  12  14
BRANCH   1  22
HETATM   22  C4  UNL     1      21.532  16.815  33.874  1.00  0.00     0.264 C 
BRANCH  22  23
HETATM   23  C3  UNL     1      20.835  18.113  33.725  1.00  0.00    -0.004 C 
HETATM   24  C2  UNL     1      19.569  18.217  34.035  1.00  0.00    -0.033 C 
HETATM   25  C1  UNL     1      18.878  19.511  33.885  1.00  0.00     0.036 C 
ENDBRANCH  22  23
ENDBRANCH   1  22
BRANCH   6  26
HETATM   26  C10 UNL     1      25.316  18.432  33.619  1.00  0.00     0.009 C 
HETATM   27  C11 UNL     1      24.443  19.498  34.230  1.00  0.00     0.006 C 
ENDBRANCH   6  26
TORSDOF 5
ENDMDL
MODEL 3
REMARK VINA RESULT: -6.051035487      1.887      3.402
REMARK  5 active torsions:
REMARK  status: ('A' for Active; 'I' for Inactive)
REMARK    1  A    between atoms: C3_3  and  C4_4 
REMARK    2  A    between atoms: C4_4  and  N1_5 
REMARK    3  A    between atoms: C9_10  and  C10_11 
REMARK    4  A    between atoms: C14_18  and  C15_19 
REMARK    5  A    between atoms: C15_19  and  N3_20 
REMARK       I    between atoms: N3_20  and  C16_22 
ROOT
HETATM    1  N1  UNL     1      24.320  17.251  31.461  1.00  0.00    -0.061 N 
HETATM    2  C5  UNL     1      23.689  18.219  30.579  1.00  0.00     0.273 C 
HETATM    3  C6  UNL     1      24.914  18.025  32.513  1.00  0.00     0.244 C 
HETATM    4  C7  UNL     1      25.106  17.331  33.799  1.00  0.00     0.036 C 
HETATM    5  C8  UNL     1      25.399  15.855  33.592  1.00  0.00     0.022 C 
HETATM    6  C9  UNL     1      23.913  15.739  33.344  1.00  0.00     0.010 C 
HETATM    7  C12 UNL     1      23.879  16.756  34.470  1.00  0.00     0.100 C 
HETATM    8  N2  UNL     1      22.721  17.519  34.616  1.00  0.00    -0.355 N 
ATOM      9  H2  UNL     1      22.383  17.767  35.546  1.00  0.00     0.162 HD
HETATM   10  C13 UNL     1      22.019  17.946  33.471  1.00  0.00     0.225 C 
HETATM   11  O1  UNL     1      21.413  19.035  33.389  1.00  0.00    -0.273 OA
HETATM   12  C14 UNL     1      22.032  17.012  32.325  1.00  0.00     0.127 C 
HETATM   13  C17 UNL     1      23.377  16.348  32.108  1.00  0.00     0.215 C 
ENDROOT
BRANCH  12  14
HETATM   14  C15 UNL     1      20.859  16.074  32.337  1.00  0.00     0.138 C 
BRANCH  14  15
HETATM   15  N3  UNL     1      19.692  16.745  31.739  1.00  0.00    -0.364 N 
HETATM   16  C16 UNL     1      18.675  17.319  32.509  1.00  0.00     0.181 C 
HETATM   17  N4  UNL     1      17.979  18.284  32.041  1.00  0.00    -0.374 N 
HETATM   18  N5  UNL     1      18.415  16.835  33.804  1.00  0.00    -0.064 NA
ATOM     19  H42 UNL     1      18.166  18.635  31.103  1.00  0.00     0.158 HD
ATOM     20  H41 UNL     1      17.237  18.703  32.602  1.00  0.00     0.158 HD
ATOM     21  H3  UNL     1      19.623  16.793  30.723  1.00  0.00     0.162 HD
ENDBRANCH  14  15
ENDBRANCH  12  14
BRANCH   1  22
HETATM   22  C4  UNL     1      25.230  16.516  30.617  1.00  0.00     0.264 C 
BRANCH  22  23
HETATM   23  C3  UNL     1      26.360  17.317  30.092  1.00  0.00    -0.004 C 
HETATM   24  C2  UNL     1      27.492  16.736  29.794  1.00  0.00    -0.033 C 
HETATM   25  C1  UNL     1      28.616  17.537  29.271  1.00  0.00     0.036 C 
ENDBRANCH  22  23
ENDBRANCH   1  22
BRANCH   6  26
HETATM   26  C10 UNL     1      23.468  14.343  33.645  1.00  0.00     0.009 C 
HETATM   27  C11 UNL     1      23.664  13.387  32.497  1.00  0.00     0.006 C 
ENDBRANCH   6  26
TORSDOF 5
ENDMDL
MODEL 4
REMARK VINA RESULT: -5.941221422      1.976      5.189
REMARK  5 active torsions:
REMARK  status: ('A' for Active; 'I' for Inactive)
REMARK    1  A    between atoms: C3_3  and  C4_4 
REMARK    2  A    between atoms: C4_4  and  N1_5 
REMARK    3  A    between atoms: C9_10  and  C10_11 
REMARK    4  A    between atoms: C14_18  and  C15_19 
REMARK    5  A    between atoms: C15_19  and  N3_20 
REMARK       I    between atoms: N3_20  and  C16_22 
ROOT
HETATM    1  N1  UNL     1      21.815  16.909  32.696  1.00  0.00    -0.061 N 
HETATM    2  C5  UNL     1      20.739  16.106  32.139  1.00  0.00     0.273 C 
HETATM    3  C6  UNL     1      22.160  16.278  33.937  1.00  0.00     0.244 C 
HETATM    4  C7  UNL     1      23.535  16.503  34.419  1.00  0.00     0.036 C 
HETATM    5  C8  UNL     1      24.042  17.879  34.024  1.00  0.00     0.022 C 
HETATM    6  C9  UNL     1      24.239  17.259  32.660  1.00  0.00     0.010 C 
HETATM    7  C12 UNL     1      24.668  16.080  33.511  1.00  0.00     0.100 C 
HETATM    8  N2  UNL     1      24.672  14.819  32.914  1.00  0.00    -0.355 N 
ATOM      9  H2  UNL     1      25.398  14.142  33.149  1.00  0.00     0.162 HD
HETATM   10  C13 UNL     1      23.668  14.486  31.983  1.00  0.00     0.225 C 
HETATM   11  O1  UNL     1      23.190  13.340  31.852  1.00  0.00    -0.273 OA
HETATM   12  C14 UNL     1      23.186  15.596  31.136  1.00  0.00     0.127 C 
HETATM   13  C17 UNL     1      23.028  16.903  31.889  1.00  0.00     0.215 C 
ENDROOT
BRANCH  12  14
HETATM   14  C15 UNL     1      23.942  15.701  29.841  1.00  0.00     0.138 C 
BRANCH  14  15
HETATM   15  N3  UNL     1      24.917  14.600  29.756  1.00  0.00    -0.364 N 
HETATM   16  C16 UNL     1      26.298  14.806  29.842  1.00  0.00     0.181 C 
HETATM   17  N4  UNL     1      27.065  13.872  30.260  1.00  0.00    -0.374 N 
HETATM   18  N5  UNL     1      26.848  16.045  29.467  1.00  0.00    -0.064 NA
ATOM     19  H42 UNL     1      26.666  12.974  30.532  1.00  0.00     0.158 HD
ATOM     20  H41 UNL     1      28.071  14.022  30.323  1.00  0.00     0.158 HD
ATOM     21  H3  UNL     1      24.570  13.649  29.630  1.00  0.00     0.162 HD
ENDBRANCH  14  15
ENDBRANCH  12  14
BRANCH   1  22
HETATM   22  C4  UNL     1      21.274  18.244  32.788  1.00  0.00     0.264 C 
BRANCH  22  23
HETATM   23  C3  UNL     1      19.842  18.299  33.163  1.00  0.00    -0.004 C 
HETATM   24  C2  UNL     1      19.255  19.454  33.337  1.00  0.00    -0.033 C 
HETATM   25  C1  UNL     1      17.828  19.505  33.710  1.00  0.00     0.036 C 
ENDBRANCH  22  23
ENDBRANCH   1  22
BRANCH   6  26
HETATM   26  C10 UNL     1      25.299  18.014  31.921  1.00  0.00     0.009 C 
HETATM   27  C11 UNL     1      24.760  18.869  30.803  1.00  0.00     0.006 C 
ENDBRANCH   6  26
TORSDOF 5
ENDMDL
MODEL 5
REMARK VINA RESULT: -5.880802345      1.586      1.841
REMARK  5 active torsions:
REMARK  status: ('A' for Active; 'I' for Inactive)
REMARK    1  A    between atoms: C3_3  and  C4_4 
REMARK    2  A    between atoms: C4_4  and  N1_5 
REMARK    3  A    between atoms: C9_10  and  C10_11 
REMARK    4  A    between atoms: C14_18  and  C15_19 
REMARK    5  A    between atoms: C15_19  and  N3_20 
REMARK       I    between atoms: N3_20  and  C16_22 
ROOT
HETATM    1  N1  UNL     1      23.793  17.510  34.063  1.00  0.00    -0.061 N 
HETATM    2  C5  UNL     1      22.791  17.643  35.107  1.00  0.00     0.273 C 
HETATM    3  C6  UNL     1      24.529  16.323  34.391  1.00  0.00     0.244 C 
HETATM    4  C7  UNL     1      25.188  15.637  33.265  1.00  0.00     0.036 C 
HETATM    5  C8  UNL     1      25.644  16.626  32.205  1.00  0.00     0.022 C 
HETATM    6  C9  UNL     1      24.187  16.650  31.804  1.00  0.00     0.010 C 
HETATM    7  C12 UNL     1      24.311  15.173  32.124  1.00  0.00     0.100 C 
HETATM    8  N2  UNL     1      23.135  14.463  32.369  1.00  0.00    -0.355 N 
ATOM      9  H2  UNL     1      23.041  13.499  32.050  1.00  0.00     0.162 HD
HETATM   10  C13 UNL     1      22.078  15.086  33.062  1.00  0.00     0.225 C 
HETATM   11  O1  UNL     1      21.308  14.489  33.842  1.00  0.00    -0.273 OA
HETATM   12  C14 UNL     1      21.915  16.534  32.814  1.00  0.00     0.127 C 
HETATM   13  C17 UNL     1      23.231  17.283  32.738  1.00  0.00     0.215 C 
ENDROOT
BRANCH  12  14
HETATM   14  C15 UNL     1      20.960  16.820  31.690  1.00  0.00     0.138 C 
BRANCH  14  15
HETATM   15  N3  UNL     1      19.581  16.812  32.208  1.00  0.00    -0.364 N 
HETATM   16  C16 UNL     1      18.942  17.967  32.674  1.00  0.00     0.181 C 
HETATM   17  N4  UNL     1      17.668  18.057  32.640  1.00  0.00    -0.374 N 
HETATM   18  N5  UNL     1      19.705  19.035  33.181  1.00  0.00    -0.064 NA
ATOM     19  H42 UNL     1      17.115  17.283  32.273  1.00  0.00     0.158 HD
ATOM     20  H41 UNL     1      17.202  18.898  32.979  1.00  0.00     0.158 HD
ATOM     21  H3  UNL     1      19.071  15.929  32.228  1.00  0.00     0.162 HD
ENDBRANCH  14  15
ENDBRANCH  12  14
BRANCH   1  22
HETATM   22  C4  UNL     1      24.532  18.749  34.096  1.00  0.00     0.264 C 
BRANCH  22  23
HETATM   23  C3  UNL     1      24.536  19.424  35.414  1.00  0.00    -0.004 C 
HETATM   24  C2  UNL     1      25.666  19.660  36.026  1.00  0.00    -0.033 C 
HETATM   25  C1  UNL     1      25.666  20.333  37.339  1.00  0.00     0.036 C 
ENDBRANCH  22  23
ENDBRANCH   1  22
BRANCH   6  26
HETATM   26  C10 UNL     1      24.076  17.050  30.367  1.00  0.00     0.009 C 
HETATM   27  C11 UNL     1      24.156  18.539  30.148  1.00  0.00     0.006 C 
ENDBRANCH   6  26
TORSDOF 5
ENDMDL
