MODEL 1
REMARK VINA RESULT: -7.243914026      0.000      0.000
REMARK  4 active torsions:
REMARK  status: ('A' for Active; 'I' for Inactive)
REMARK    1  A    between atoms: C3_3  and  C4_4 
REMARK    2  A    between atoms: N1_7  and  C8_9 
REMARK    3  A    between atoms: C11_12  and  C12_13 
REMARK    4  A    between atoms: C12_13  and  C13_14 
REMARK       I    between atoms: C13_14  and  N2_16 
ROOT
HETATM    1  C8  UNL     1      23.713  13.993  33.209  1.00  0.00     0.290 C 
HETATM    2  C9  UNL     1      24.488  13.324  32.127  1.00  0.00     0.056 C 
HETATM    3  C10 UNL     1      25.209  12.142  32.736  1.00  0.00     0.018 C 
HETATM    4  C11 UNL     1      24.213  11.206  33.359  1.00  0.00     0.086 C 
HETATM    5  C15 UNL     1      22.854  11.739  33.502  1.00  0.00     0.223 C 
HETATM    6  O2  UNL     1      21.917  10.904  33.685  1.00  0.00    -0.273 OA
HETATM    7  N5  UNL     1      22.542  13.141  33.442  1.00  0.00    -0.333 N 
ATOM      8  H5  UNL     1      21.597  13.508  33.552  1.00  0.00     0.164 HD
ENDROOT
BRANCH   1   9
HETATM    9  N1  UNL     1      23.335  15.344  32.986  1.00  0.00    -0.049 N 
HETATM   10  C6  UNL     1      23.773  15.820  31.694  1.00  0.00     0.240 C 
HETATM   11  C5  UNL     1      22.977  17.128  31.551  1.00  0.00     0.038 C 
HETATM   12  C4  UNL     1      21.676  16.818  32.180  1.00  0.00     0.035 C 
HETATM   13  C16 UNL     1      21.906  15.579  33.029  1.00  0.00     0.248 C 
HETATM   14  C7  UNL     1      23.991  16.164  33.988  1.00  0.00     0.275 C 
BRANCH  12  15
HETATM   15  C3  UNL     1      21.026  17.893  32.936  1.00  0.00    -0.025 C 
HETATM   16  C2  UNL     1      19.736  18.039  33.109  1.00  0.00    -0.035 C 
HETATM   17  C1  UNL     1      19.183  19.179  33.901  1.00  0.00     0.036 C 
ENDBRANCH  12  15
ENDBRANCH   1   9
BRANCH   4  18
HETATM   18  C12 UNL     1      24.763  10.600  34.650  1.00  0.00     0.117 C 
BRANCH  18  19
HETATM   19  C13 UNL     1      24.386   9.200  34.832  1.00  0.00     0.224 C 
HETATM   20  O1  UNL     1      23.885   8.836  35.943  1.00  0.00    -0.273 OA
HETATM   21  N2  UNL     1      24.545   8.221  33.834  1.00  0.00    -0.304 N 
HETATM   22  C14 UNL     1      25.588   7.920  33.183  1.00  0.00     0.203 C 
ATOM     23  H2  UNL     1      23.709   7.683  33.606  1.00  0.00     0.171 HD
HETATM   24  N3  UNL     1      25.485   6.876  32.211  1.00  0.00    -0.066 NA
HETATM   25  N4  UNL     1      26.837   8.553  33.373  1.00  0.00    -0.066 NA
ENDBRANCH  18  19
ENDBRANCH   4  18
TORSDOF 4
ENDMDL
MODEL 2
REMARK VINA RESULT: -6.887997226      4.188      8.015
REMARK  4 active torsions:
REMARK  status: ('A' for Active; 'I' for Inactive)
REMARK    1  A    between atoms: C3_3  and  C4_4 
REMARK    2  A    between atoms: N1_7  and  C8_9 
REMARK    3  A    between atoms: C11_12  and  C12_13 
REMARK    4  A    between atoms: C12_13  and  C13_14 
REMARK       I    between atoms: C13_14  and  N2_16 
ROOT
HETATM    1  C8  UNL     1      24.113  15.776  31.965  1.00  0.00     0.290 C 
HETATM    2  C9  UNL     1      24.707  15.759  33.331  1.00  0.00     0.056 C 
HETATM    3  C10 UNL     1      23.911  16.713  34.194  1.00  0.00     0.018 C 
HETATM    4  C11 UNL     1      22.469  16.294  34.216  1.00  0.00     0.086 C 
HETATM    5  C15 UNL     1      22.093  15.283  33.221  1.00  0.00     0.223 C 
HETATM    6  O2  UNL     1      21.012  14.649  33.416  1.00  0.00    -0.273 OA
HETATM    7  N5  UNL     1      22.882  14.984  32.059  1.00  0.00    -0.333 N 
ATOM      8  H5  UNL     1      22.612  14.286  31.365  1.00  0.00     0.164 HD
ENDROOT
BRANCH   1   9
HETATM    9  N1  UNL     1      24.939  15.327  30.901  1.00  0.00    -0.049 N 
HETATM   10  C6  UNL     1      26.057  16.214  30.675  1.00  0.00     0.240 C 
HETATM   11  C5  UNL     1      26.953  15.367  29.755  1.00  0.00     0.038 C 
HETATM   12  C4  UNL     1      26.780  13.991  30.264  1.00  0.00     0.035 C 
HETATM   13  C16 UNL     1      25.514  14.013  31.106  1.00  0.00     0.248 C 
HETATM   14  C7  UNL     1      24.145  15.324  29.687  1.00  0.00     0.275 C 
BRANCH  12  15
HETATM   15  C3  UNL     1      26.768  12.909  29.276  1.00  0.00    -0.025 C 
HETATM   16  C2  UNL     1      27.640  12.737  28.314  1.00  0.00    -0.035 C 
HETATM   17  C1  UNL     1      27.527  11.592  27.360  1.00  0.00     0.036 C 
ENDBRANCH  12  15
ENDBRANCH   1   9
BRANCH   4  18
HETATM   18  C12 UNL     1      21.544  17.511  34.219  1.00  0.00     0.117 C 
BRANCH  18  19
HETATM   19  C13 UNL     1      21.053  17.861  32.889  1.00  0.00     0.224 C 
HETATM   20  O1  UNL     1      21.893  18.135  31.974  1.00  0.00    -0.273 OA
HETATM   21  N2  UNL     1      19.687  17.909  32.557  1.00  0.00    -0.304 N 
HETATM   22  C14 UNL     1      18.756  18.544  33.135  1.00  0.00     0.203 C 
ATOM     23  H2  UNL     1      19.409  17.360  31.743  1.00  0.00     0.171 HD
HETATM   24  N3  UNL     1      17.437  18.424  32.596  1.00  0.00    -0.066 NA
HETATM   25  N4  UNL     1      18.956  19.362  34.270  1.00  0.00    -0.066 NA
ENDBRANCH  18  19
ENDBRANCH   4  18
TORSDOF 4
ENDMDL
MODEL 3
REMARK VINA RESULT: -6.887746334      5.364      7.989
REMARK  4 active torsions:
REMARK  status: ('A' for Active; 'I' for Inactive)
REMARK    1  A    between atoms: C3_3  and  C4_4 
REMARK    2  A    between atoms: N1_7  and  C8_9 
REMARK    3  A    between atoms: C11_12  and  C12_13 
REMARK    4  A    between atoms: C12_13  and  C13_14 
REMARK       I    between atoms: C13_14  and  N2_16 
ROOT
HETATM    1  C8  UNL     1      24.288  17.595  31.817  1.00  0.00     0.290 C 
HETATM    2  C9  UNL     1      24.779  16.628  32.838  1.00  0.00     0.056 C 
HETATM    3  C10 UNL     1      23.722  16.511  33.913  1.00  0.00     0.018 C 
HETATM    4  C11 UNL     1      22.427  16.056  33.303  1.00  0.00     0.086 C 
HETATM    5  C15 UNL     1      22.372  16.100  31.837  1.00  0.00     0.223 C 
HETATM    6  O2  UNL     1      21.469  15.417  31.268  1.00  0.00    -0.273 OA
HETATM    7  N5  UNL     1      23.283  16.867  31.033  1.00  0.00    -0.333 N 
ATOM      8  H5  UNL     1      23.236  16.902  30.015  1.00  0.00     0.164 HD
ENDROOT
BRANCH   1   9
HETATM    9  N1  UNL     1      25.264  18.195  30.978  1.00  0.00    -0.049 N 
HETATM   10  C6  UNL     1      25.847  19.370  31.584  1.00  0.00     0.240 C 
HETATM   11  C5  UNL     1      27.066  19.622  30.680  1.00  0.00     0.038 C 
HETATM   12  C4  UNL     1      27.536  18.264  30.337  1.00  0.00     0.035 C 
HETATM   13  C16 UNL     1      26.378  17.329  30.646  1.00  0.00     0.248 C 
HETATM   14  C7  UNL     1      24.605  18.625  29.759  1.00  0.00     0.275 C 
BRANCH  12  15
HETATM   15  C3  UNL     1      28.065  18.061  28.986  1.00  0.00    -0.025 C 
HETATM   16  C2  UNL     1      28.598  16.956  28.527  1.00  0.00    -0.035 C 
HETATM   17  C1  UNL     1      29.108  16.863  27.125  1.00  0.00     0.036 C 
ENDBRANCH  12  15
ENDBRANCH   1   9
BRANCH   4  18
HETATM   18  C12 UNL     1      21.235  16.741  33.972  1.00  0.00     0.117 C 
BRANCH  18  19
HETATM   19  C13 UNL     1      20.805  17.952  33.277  1.00  0.00     0.224 C 
HETATM   20  O1  UNL     1      21.474  19.022  33.434  1.00  0.00    -0.273 OA
HETATM   21  N2  UNL     1      19.683  18.000  32.431  1.00  0.00    -0.304 N 
HETATM   22  C14 UNL     1      18.493  17.646  32.677  1.00  0.00     0.203 C 
ATOM     23  H2  UNL     1      19.850  18.370  31.495  1.00  0.00     0.171 HD
HETATM   24  N3  UNL     1      17.526  17.797  31.635  1.00  0.00    -0.066 NA
HETATM   25  N4  UNL     1      18.076  17.121  33.922  1.00  0.00    -0.066 NA
ENDBRANCH  18  19
ENDBRANCH   4  18
TORSDOF 4
ENDMDL
MODEL 4
REMARK VINA RESULT: -6.883646782      5.296      7.820
REMARK  4 active torsions:
REMARK  status: ('A' for Active; 'I' for Inactive)
REMARK    1  A    between atoms: C3_3  and  C4_4 
REMARK    2  A    between atoms: N1_7  and  C8_9 
REMARK    3  A    between atoms: C11_12  and  C12_13 
REMARK    4  A    between atoms: C12_13  and  C13_14 
REMARK       I    between atoms: C13_14  and  N2_16 
ROOT
HETATM    1  C8  UNL     1      24.352  17.455  32.004  1.00  0.00     0.290 C 
HETATM    2  C9  UNL     1      24.738  16.413  32.996  1.00  0.00     0.056 C 
HETATM    3  C10 UNL     1      23.617  16.294  34.004  1.00  0.00     0.018 C 
HETATM    4  C11 UNL     1      22.339  15.937  33.301  1.00  0.00     0.086 C 
HETATM    5  C15 UNL     1      22.370  16.059  31.839  1.00  0.00     0.223 C 
HETATM    6  O2  UNL     1      21.469  15.452  31.185  1.00  0.00    -0.273 OA
HETATM    7  N5  UNL     1      23.361  16.819  31.129  1.00  0.00    -0.333 N 
ATOM      8  H5  UNL     1      23.374  16.909  30.112  1.00  0.00     0.164 HD
ENDROOT
BRANCH   1   9
HETATM    9  N1  UNL     1      25.403  18.046  31.253  1.00  0.00    -0.049 N 
HETATM   10  C6  UNL     1      24.977  18.406  29.920  1.00  0.00     0.240 C 
HETATM   11  C5  UNL     1      26.133  19.304  29.449  1.00  0.00     0.038 C 
HETATM   12  C4  UNL     1      26.528  20.039  30.669  1.00  0.00     0.035 C 
HETATM   13  C16 UNL     1      25.943  19.258  31.835  1.00  0.00     0.248 C 
HETATM   14  C7  UNL     1      26.461  17.063  31.112  1.00  0.00     0.275 C 
BRANCH  12  15
HETATM   15  C3  UNL     1      27.955  20.316  30.850  1.00  0.00    -0.025 C 
HETATM   16  C2  UNL     1      28.471  21.442  31.279  1.00  0.00    -0.035 C 
HETATM   17  C1  UNL     1      29.948  21.613  31.424  1.00  0.00     0.036 C 
ENDBRANCH  12  15
ENDBRANCH   1   9
BRANCH   4  18
HETATM   18  C12 UNL     1      21.144  16.646  33.940  1.00  0.00     0.117 C 
BRANCH  18  19
HETATM   19  C13 UNL     1      20.772  17.877  33.249  1.00  0.00     0.224 C 
HETATM   20  O1  UNL     1      21.496  18.913  33.400  1.00  0.00    -0.273 OA
HETATM   21  N2  UNL     1      19.646  17.984  32.412  1.00  0.00    -0.304 N 
HETATM   22  C14 UNL     1      18.441  17.691  32.669  1.00  0.00     0.203 C 
ATOM     23  H2  UNL     1      19.824  18.345  31.475  1.00  0.00     0.171 HD
HETATM   24  N3  UNL     1      17.475  17.891  31.635  1.00  0.00    -0.066 NA
HETATM   25  N4  UNL     1      18.009  17.187  33.917  1.00  0.00    -0.066 NA
ENDBRANCH  18  19
ENDBRANCH   4  18
TORSDOF 4
ENDMDL
MODEL 5
REMARK VINA RESULT: -6.874069981      5.040      8.034
REMARK  4 active torsions:
REMARK  status: ('A' for Active; 'I' for Inactive)
REMARK    1  A    between atoms: C3_3  and  C4_4 
REMARK    2  A    between atoms: N1_7  and  C8_9 
REMARK    3  A    between atoms: C11_12  and  C12_13 
REMARK    4  A    between atoms: C12_13  and  C13_14 
REMARK       I    between atoms: C13_14  and  N2_16 
ROOT
HETATM    1  C8  UNL     1      24.118  17.708  31.240  1.00  0.00     0.290 C 
HETATM    2  C9  UNL     1      23.966  17.758  32.721  1.00  0.00     0.056 C 
HETATM    3  C10 UNL     1      22.507  17.530  33.045  1.00  0.00     0.018 C 
HETATM    4  C11 UNL     1      22.066  16.205  32.492  1.00  0.00     0.086 C 
HETATM    5  C15 UNL     1      22.999  15.573  31.553  1.00  0.00     0.223 C 
HETATM    6  O2  UNL     1      22.855  14.333  31.334  1.00  0.00    -0.273 OA
HETATM    7  N5  UNL     1      24.053  16.286  30.884  1.00  0.00    -0.333 N 
ATOM      8  H5  UNL     1      24.694  15.845  30.224  1.00  0.00     0.164 HD
ENDROOT
BRANCH   1   9
HETATM    9  N1  UNL     1      25.273  18.327  30.692  1.00  0.00    -0.049 N 
HETATM   10  C6  UNL     1      25.831  19.315  31.587  1.00  0.00     0.240 C 
HETATM   11  C5  UNL     1      27.206  19.578  30.951  1.00  0.00     0.038 C 
HETATM   12  C4  UNL     1      27.620  18.252  30.447  1.00  0.00     0.035 C 
HETATM   13  C16 UNL     1      26.355  17.412  30.391  1.00  0.00     0.248 C 
HETATM   14  C7  UNL     1      24.876  19.023  29.482  1.00  0.00     0.275 C 
BRANCH  12  15
HETATM   15  C3  UNL     1      28.362  18.219  29.184  1.00  0.00    -0.025 C 
HETATM   16  C2  UNL     1      28.595  17.154  28.457  1.00  0.00    -0.035 C 
HETATM   17  C1  UNL     1      29.368  17.239  27.181  1.00  0.00     0.036 C 
ENDBRANCH  12  15
ENDBRANCH   1   9
BRANCH   4  18
HETATM   18  C12 UNL     1      20.634  16.281  31.961  1.00  0.00     0.117 C 
BRANCH  18  19
HETATM   19  C13 UNL     1      19.627  16.080  32.999  1.00  0.00     0.224 C 
HETATM   20  O1  UNL     1      19.450  14.910  33.468  1.00  0.00    -0.273 OA
HETATM   21  N2  UNL     1      18.833  17.119  33.519  1.00  0.00    -0.304 N 
HETATM   22  C14 UNL     1      18.111  17.949  32.893  1.00  0.00     0.203 C 
ATOM     23  H2  UNL     1      18.841  17.216  34.534  1.00  0.00     0.171 HD
HETATM   24  N3  UNL     1      17.397  18.920  33.661  1.00  0.00    -0.066 NA
HETATM   25  N4  UNL     1      17.972  17.958  31.486  1.00  0.00    -0.066 NA
ENDBRANCH  18  19
ENDBRANCH   4  18
TORSDOF 4
ENDMDL
