MODEL 1
REMARK VINA RESULT: -6.134718918      0.000      0.000
REMARK  2 active torsions:
REMARK  status: ('A' for Active; 'I' for Inactive)
REMARK    1  A    between atoms: C6_8  and  N2_9 
REMARK    2  A    between atoms: N2_9  and  C7_12 
ROOT
HETATM    1  C1  UNL     1      12.863  15.988   3.696  1.00  0.00     0.039 C 
HETATM    2  C2  UNL     1      13.583  17.097   3.050  1.00  0.00     0.122 C 
HETATM    3  N1  UNL     1      13.342  17.323   1.656  1.00  0.00    -0.380 N 
ATOM      4  H1  UNL     1      13.868  18.074   1.210  1.00  0.00     0.160 HD
HETATM    5  C3  UNL     1      12.533  16.672   0.926  1.00  0.00     0.076 C 
HETATM    6  C4  UNL     1      12.174  16.788  -0.509  1.00  0.00     0.080 C 
HETATM    7  C5  UNL     1      10.710  16.223  -0.394  1.00  0.00     0.062 C 
HETATM    8  C6  UNL     1      11.044  15.008   0.409  1.00  0.00     0.288 C 
HETATM    9  N3  UNL     1      11.784  15.621   1.519  1.00  0.00    -0.343 N 
HETATM   10  C10 UNL     1      11.800  15.309   2.902  1.00  0.00     0.128 C 
ENDROOT
BRANCH   8  11
HETATM   11  N2  UNL     1      10.017  14.165   0.852  1.00  0.00    -0.050 N 
ATOM     12  H22 UNL     1       9.996  13.300   0.311  1.00  0.00     0.280 HD
ATOM     13  H21 UNL     1      10.232  13.779   1.772  1.00  0.00     0.280 HD
BRANCH  11  14
HETATM   14  C7  UNL     1       8.736  14.805   0.850  1.00  0.00     0.188 A 
HETATM   15  C8  UNL     1       7.976  14.895   2.161  1.00  0.00     0.035 A 
HETATM   16  C9  UNL     1       7.442  14.129   0.926  1.00  0.00     0.035 A 
ENDBRANCH  11  14
ENDBRANCH   8  11
TORSDOF 2
ENDMDL
MODEL 2
REMARK VINA RESULT: -6.092250012      1.607      3.241
REMARK  2 active torsions:
REMARK  status: ('A' for Active; 'I' for Inactive)
REMARK    1  A    between atoms: C6_8  and  N2_9 
REMARK    2  A    between atoms: N2_9  and  C7_12 
ROOT
HETATM    1  C1  UNL     1      10.578  15.759  -0.540  1.00  0.00     0.039 C 
HETATM    2  C2  UNL     1      11.748  16.632  -0.360  1.00  0.00     0.122 C 
HETATM    3  N1  UNL     1      12.198  16.871   0.980  1.00  0.00    -0.380 N 
ATOM      4  H1  UNL     1      12.991  17.501   1.097  1.00  0.00     0.160 HD
HETATM    5  C3  UNL     1      11.699  16.370   2.033  1.00  0.00     0.076 C 
HETATM    6  C4  UNL     1      12.050  16.514   3.467  1.00  0.00     0.080 C 
HETATM    7  C5  UNL     1      11.527  15.109   3.943  1.00  0.00     0.062 C 
HETATM    8  C6  UNL     1      10.190  15.177   3.279  1.00  0.00     0.288 C 
HETATM    9  N3  UNL     1      10.595  15.485   1.902  1.00  0.00    -0.343 N 
HETATM   10  C10 UNL     1      10.069  15.040   0.663  1.00  0.00     0.128 C 
ENDROOT
BRANCH   8  11
HETATM   11  N2  UNL     1       9.324  14.078   3.348  1.00  0.00    -0.050 N 
ATOM     12  H22 UNL     1       9.075  13.750   2.414  1.00  0.00     0.280 HD
ATOM     13  H21 UNL     1       9.810  13.249   3.690  1.00  0.00     0.280 HD
BRANCH  11  14
HETATM   14  C7  UNL     1       8.152  14.344   4.128  1.00  0.00     0.188 A 
HETATM   15  C8  UNL     1       7.122  15.309   3.569  1.00  0.00     0.035 A 
HETATM   16  C9  UNL     1       7.891  15.564   4.889  1.00  0.00     0.035 A 
ENDBRANCH  11  14
ENDBRANCH   8  11
TORSDOF 2
ENDMDL
MODEL 3
REMARK VINA RESULT: -6.055030778      1.683      3.211
REMARK  2 active torsions:
REMARK  status: ('A' for Active; 'I' for Inactive)
REMARK    1  A    between atoms: C6_8  and  N2_9 
REMARK    2  A    between atoms: N2_9  and  C7_12 
ROOT
HETATM    1  C1  UNL     1      11.410  16.135  -0.487  1.00  0.00     0.039 C 
HETATM    2  C2  UNL     1      12.735  16.756  -0.341  1.00  0.00     0.122 C 
HETATM    3  N1  UNL     1      13.217  16.988   0.989  1.00  0.00    -0.380 N 
ATOM      4  H1  UNL     1      14.123  17.446   1.080  1.00  0.00     0.160 HD
HETATM    5  C3  UNL     1      12.617  16.676   2.062  1.00  0.00     0.076 C 
HETATM    6  C4  UNL     1      12.981  16.843   3.491  1.00  0.00     0.080 C 
HETATM    7  C5  UNL     1      12.173  15.614   4.048  1.00  0.00     0.062 C 
HETATM    8  C6  UNL     1      10.884  15.913   3.354  1.00  0.00     0.288 C 
HETATM    9  N3  UNL     1      11.353  16.034   1.968  1.00  0.00    -0.343 N 
HETATM   10  C10 UNL     1      10.754  15.623   0.751  1.00  0.00     0.128 C 
ENDROOT
BRANCH   8  11
HETATM   11  N2  UNL     1       9.807  15.025   3.477  1.00  0.00    -0.050 N 
ATOM     12  H22 UNL     1       9.326  14.908   2.585  1.00  0.00     0.280 HD
ATOM     13  H21 UNL     1      10.135  14.069   3.615  1.00  0.00     0.280 HD
BRANCH  11  14
HETATM   14  C7  UNL     1       8.890  15.408   4.509  1.00  0.00     0.188 A 
HETATM   15  C8  UNL     1       8.206  14.310   5.304  1.00  0.00     0.035 A 
HETATM   16  C9  UNL     1       7.433  15.329   4.430  1.00  0.00     0.035 A 
ENDBRANCH  11  14
ENDBRANCH   8  11
TORSDOF 2
ENDMDL
MODEL 4
REMARK VINA RESULT: -6.041976561      1.200      4.303
REMARK  2 active torsions:
REMARK  status: ('A' for Active; 'I' for Inactive)
REMARK    1  A    between atoms: C6_8  and  N2_9 
REMARK    2  A    between atoms: N2_9  and  C7_12 
ROOT
HETATM    1  C1  UNL     1       9.436  14.108   1.732  1.00  0.00     0.039 C 
HETATM    2  C2  UNL     1       8.661  14.660   0.611  1.00  0.00     0.122 C 
HETATM    3  N1  UNL     1       9.275  15.687  -0.179  1.00  0.00    -0.380 N 
ATOM      4  H1  UNL     1       8.718  16.085  -0.936  1.00  0.00     0.160 HD
HETATM    5  C3  UNL     1      10.447  16.145  -0.021  1.00  0.00     0.076 C 
HETATM    6  C4  UNL     1      11.215  17.187  -0.748  1.00  0.00     0.080 C 
HETATM    7  C5  UNL     1      12.651  16.614  -0.460  1.00  0.00     0.062 C 
HETATM    8  C6  UNL     1      12.476  16.412   1.010  1.00  0.00     0.288 C 
HETATM    9  N3  UNL     1      11.248  15.609   1.022  1.00  0.00    -0.343 N 
HETATM   10  C10 UNL     1      10.865  14.519   1.844  1.00  0.00     0.128 C 
ENDROOT
BRANCH   8  11
HETATM   11  N2  UNL     1      13.505  15.825   1.758  1.00  0.00    -0.050 N 
ATOM     12  H22 UNL     1      13.251  14.883   2.053  1.00  0.00     0.280 HD
ATOM     13  H21 UNL     1      14.307  15.602   1.167  1.00  0.00     0.280 HD
BRANCH  11  14
HETATM   14  C7  UNL     1      13.901  16.625   2.878  1.00  0.00     0.188 A 
HETATM   15  C8  UNL     1      12.831  17.417   3.609  1.00  0.00     0.035 A 
HETATM   16  C9  UNL     1      14.029  18.081   2.887  1.00  0.00     0.035 A 
ENDBRANCH  11  14
ENDBRANCH   8  11
TORSDOF 2
ENDMDL
MODEL 5
REMARK VINA RESULT: -5.906114918      1.931      4.626
REMARK  2 active torsions:
REMARK  status: ('A' for Active; 'I' for Inactive)
REMARK    1  A    between atoms: C6_8  and  N2_9 
REMARK    2  A    between atoms: N2_9  and  C7_12 
ROOT
HETATM    1  C1  UNL     1       8.005  15.402   4.979  1.00  0.00     0.039 C 
HETATM    2  C2  UNL     1       6.908  15.308   4.002  1.00  0.00     0.122 C 
HETATM    3  N1  UNL     1       7.259  15.117   2.626  1.00  0.00    -0.380 N 
ATOM      4  H1  UNL     1       6.494  15.082   1.953  1.00  0.00     0.160 HD
HETATM    5  C3  UNL     1       8.436  14.986   2.170  1.00  0.00     0.076 C 
HETATM    6  C4  UNL     1       8.953  14.779   0.794  1.00  0.00     0.080 C 
HETATM    7  C5  UNL     1      10.267  14.010   1.188  1.00  0.00     0.062 C 
HETATM    8  C6  UNL     1      10.726  14.962   2.245  1.00  0.00     0.288 C 
HETATM    9  N3  UNL     1       9.523  15.026   3.083  1.00  0.00    -0.343 N 
HETATM   10  C10 UNL     1       9.382  15.101   4.492  1.00  0.00     0.128 C 
ENDROOT
BRANCH   8  11
HETATM   11  N2  UNL     1      11.879  14.672   2.987  1.00  0.00    -0.050 N 
ATOM     12  H22 UNL     1      11.649  14.493   3.964  1.00  0.00     0.280 HD
ATOM     13  H21 UNL     1      12.256  13.758   2.735  1.00  0.00     0.280 HD
BRANCH  11  14
HETATM   14  C7  UNL     1      12.881  15.690   2.873  1.00  0.00     0.188 A 
HETATM   15  C8  UNL     1      12.673  16.989   3.630  1.00  0.00     0.035 A 
HETATM   16  C9  UNL     1      12.768  16.916   2.086  1.00  0.00     0.035 A 
ENDBRANCH  11  14
ENDBRANCH   8  11
TORSDOF 2
ENDMDL
