MODEL 1
REMARK VINA RESULT: -5.849551982      0.000      0.000
REMARK  2 active torsions:
REMARK  status: ('A' for Active; 'I' for Inactive)
REMARK    1  A    between atoms: C2_3  and  N2_4 
REMARK    2  A    between atoms: N2_4  and  C3_6 
ROOT
HETATM    1  N1  UNL     1      13.585  10.917   4.519  1.00  0.00    -0.196 NA
HETATM    2  C1  UNL     1      13.444  12.068   4.671  1.00  0.00     0.078 C 
HETATM    3  C2  UNL     1      13.284  13.501   4.868  1.00  0.00     0.239 C 
ENDROOT
BRANCH   3   4
HETATM    4  N2  UNL     1      13.816  14.314   3.830  1.00  0.00    -0.401 N 
ATOM      5  H2  UNL     1      14.787  14.200   3.539  1.00  0.00     0.154 HD
BRANCH   4   6
HETATM    6  C3  UNL     1      13.011  15.267   3.213  1.00  0.00     0.028 C 
HETATM    7  C4  UNL     1      12.596  16.303   4.248  1.00  0.00     0.031 C 
HETATM    8  C5  UNL     1      12.189  17.543   3.431  1.00  0.00     0.008 C 
HETATM    9  C6  UNL     1      12.294  17.055   2.027  1.00  0.00     0.005 C 
HETATM   10  C7  UNL     1      13.545  16.148   2.137  1.00  0.00     0.036 C 
HETATM   11  C8  UNL     1      11.258  15.963   1.813  1.00  0.00     0.099 C 
HETATM   12  C9  UNL     1      11.073  15.635   0.397  1.00  0.00     0.064 C 
HETATM   13  C10 UNL     1      11.729  14.762   2.603  1.00  0.00     0.050 C 
HETATM   14  N3  UNL     1      10.911  15.383  -0.727  1.00  0.00    -0.197 NA
ENDBRANCH   4   6
ENDBRANCH   3   4
TORSDOF 2
ENDMDL
MODEL 2
REMARK VINA RESULT: -5.814178591      3.235      5.486
REMARK  2 active torsions:
REMARK  status: ('A' for Active; 'I' for Inactive)
REMARK    1  A    between atoms: C2_3  and  N2_4 
REMARK    2  A    between atoms: N2_4  and  C3_6 
ROOT
HETATM    1  N1  UNL     1      12.901  17.705  -0.750  1.00  0.00    -0.196 NA
HETATM    2  C1  UNL     1      12.140  16.880  -0.423  1.00  0.00     0.078 C 
HETATM    3  C2  UNL     1      11.204  15.841  -0.017  1.00  0.00     0.239 C 
ENDROOT
BRANCH   3   4
HETATM    4  N2  UNL     1      11.182  15.563   1.378  1.00  0.00    -0.401 N 
ATOM      5  H2  UNL     1      11.974  15.828   1.964  1.00  0.00     0.154 HD
BRANCH   4   6
HETATM    6  C3  UNL     1      10.081  14.928   1.941  1.00  0.00     0.028 C 
HETATM    7  C4  UNL     1       8.883  15.113   1.019  1.00  0.00     0.031 C 
HETATM    8  C5  UNL     1       7.902  13.992   1.408  1.00  0.00     0.008 C 
HETATM    9  C6  UNL     1       8.575  13.365   2.580  1.00  0.00     0.005 C 
HETATM   10  C7  UNL     1      10.056  13.450   2.134  1.00  0.00     0.036 C 
HETATM   11  C8  UNL     1       8.633  14.381   3.709  1.00  0.00     0.099 C 
HETATM   12  C9  UNL     1       8.995  13.774   4.993  1.00  0.00     0.064 C 
HETATM   13  C10 UNL     1       9.638  15.432   3.291  1.00  0.00     0.050 C 
HETATM   14  N3  UNL     1       9.266  13.293   6.017  1.00  0.00    -0.197 NA
ENDBRANCH   4   6
ENDBRANCH   3   4
TORSDOF 2
ENDMDL
MODEL 3
REMARK VINA RESULT: -5.787814778      3.197      4.720
REMARK  2 active torsions:
REMARK  status: ('A' for Active; 'I' for Inactive)
REMARK    1  A    between atoms: C2_3  and  N2_4 
REMARK    2  A    between atoms: N2_4  and  C3_6 
ROOT
HETATM    1  N1  UNL     1      14.569  16.871   2.984  1.00  0.00    -0.196 NA
HETATM    2  C1  UNL     1      13.634  16.367   2.495  1.00  0.00     0.078 C 
HETATM    3  C2  UNL     1      12.479  15.726   1.882  1.00  0.00     0.239 C 
ENDROOT
BRANCH   3   4
HETATM    4  N2  UNL     1      11.776  14.821   2.723  1.00  0.00    -0.401 N 
ATOM      5  H2  UNL     1      12.284  14.256   3.404  1.00  0.00     0.154 HD
BRANCH   4   6
HETATM    6  C3  UNL     1      10.394  14.706   2.617  1.00  0.00     0.028 C 
HETATM    7  C4  UNL     1       9.963  15.218   1.249  1.00  0.00     0.031 C 
HETATM    8  C5  UNL     1       8.578  14.591   1.006  1.00  0.00     0.008 C 
HETATM    9  C6  UNL     1       8.307  13.894   2.295  1.00  0.00     0.005 C 
HETATM   10  C7  UNL     1       9.725  13.375   2.638  1.00  0.00     0.036 C 
HETATM   11  C8  UNL     1       8.189  14.936   3.396  1.00  0.00     0.099 C 
HETATM   12  C9  UNL     1       7.626  14.385   4.631  1.00  0.00     0.064 C 
HETATM   13  C10 UNL     1       9.581  15.486   3.619  1.00  0.00     0.050 C 
HETATM   14  N3  UNL     1       7.163  13.955   5.609  1.00  0.00    -0.197 NA
ENDBRANCH   4   6
ENDBRANCH   3   4
TORSDOF 2
ENDMDL
MODEL 4
REMARK VINA RESULT: -5.783322395      3.220      5.185
REMARK  2 active torsions:
REMARK  status: ('A' for Active; 'I' for Inactive)
REMARK    1  A    between atoms: C2_3  and  N2_4 
REMARK    2  A    between atoms: N2_4  and  C3_6 
ROOT
HETATM    1  N1  UNL     1      12.516  17.307  -0.487  1.00  0.00    -0.196 NA
HETATM    2  C1  UNL     1      11.550  16.654  -0.417  1.00  0.00     0.078 C 
HETATM    3  C2  UNL     1      10.350  15.831  -0.343  1.00  0.00     0.239 C 
ENDROOT
BRANCH   3   4
HETATM    4  N2  UNL     1      10.523  14.570   0.289  1.00  0.00    -0.401 N 
ATOM      5  H2  UNL     1      10.999  13.814  -0.202  1.00  0.00     0.154 HD
BRANCH   4   6
HETATM    6  C3  UNL     1      10.040  14.368   1.578  1.00  0.00     0.028 C 
HETATM    7  C4  UNL     1      10.778  13.189   2.198  1.00  0.00     0.031 C 
HETATM    8  C5  UNL     1      10.595  13.358   3.717  1.00  0.00     0.008 C 
HETATM    9  C6  UNL     1       9.680  14.531   3.805  1.00  0.00     0.005 C 
HETATM   10  C7  UNL     1      10.220  15.397   2.640  1.00  0.00     0.036 C 
HETATM   11  C8  UNL     1       8.343  14.152   3.188  1.00  0.00     0.099 C 
HETATM   12  C9  UNL     1       7.289  15.121   3.497  1.00  0.00     0.064 C 
HETATM   13  C10 UNL     1       8.574  14.040   1.697  1.00  0.00     0.050 C 
HETATM   14  N3  UNL     1       6.444  15.880   3.753  1.00  0.00    -0.197 NA
ENDBRANCH   4   6
ENDBRANCH   3   4
TORSDOF 2
ENDMDL
MODEL 5
REMARK VINA RESULT: -5.701968226      3.203      4.128
REMARK  2 active torsions:
REMARK  status: ('A' for Active; 'I' for Inactive)
REMARK    1  A    between atoms: C2_3  and  N2_4 
REMARK    2  A    between atoms: N2_4  and  C3_6 
ROOT
HETATM    1  N1  UNL     1      14.702  13.126   4.632  1.00  0.00    -0.196 NA
HETATM    2  C1  UNL     1      13.612  13.543   4.573  1.00  0.00     0.078 C 
HETATM    3  C2  UNL     1      12.260  14.079   4.498  1.00  0.00     0.239 C 
ENDROOT
BRANCH   3   4
HETATM    4  N2  UNL     1      11.783  14.328   3.182  1.00  0.00    -0.401 N 
ATOM      5  H2  UNL     1      12.441  14.409   2.407  1.00  0.00     0.154 HD
BRANCH   4   6
HETATM    6  C3  UNL     1      10.417  14.462   2.953  1.00  0.00     0.028 C 
HETATM    7  C4  UNL     1      10.210  15.099   1.586  1.00  0.00     0.031 C 
HETATM    8  C5  UNL     1       8.768  14.737   1.190  1.00  0.00     0.008 C 
HETATM    9  C6  UNL     1       8.262  14.043   2.408  1.00  0.00     0.005 C 
HETATM   10  C7  UNL     1       9.532  13.269   2.839  1.00  0.00     0.036 C 
HETATM   11  C8  UNL     1       8.221  15.041   3.554  1.00  0.00     0.099 C 
HETATM   12  C9  UNL     1       7.459  14.546   4.703  1.00  0.00     0.064 C 
HETATM   13  C10 UNL     1       9.659  15.329   3.926  1.00  0.00     0.050 C 
HETATM   14  N3  UNL     1       6.841  14.163   5.612  1.00  0.00    -0.197 NA
ENDBRANCH   4   6
ENDBRANCH   3   4
TORSDOF 2
ENDMDL
