MODEL 1
REMARK VINA RESULT: -6.037996940      0.000      0.000
REMARK  3 active torsions:
REMARK  status: ('A' for Active; 'I' for Inactive)
REMARK    1  A    between atoms: O1_1  and  C1_3 
REMARK    2  A    between atoms: C1_3  and  C2_4 
REMARK    3  A    between atoms: C2_4  and  C3_5 
ROOT
HETATM    1  C3  UNL     1      11.721  14.847   2.798  1.00  0.00     0.151 C 
HETATM    2  C4  UNL     1      10.788  15.492   1.786  1.00  0.00     0.203 C 
HETATM    3  O2  UNL     1       9.549  15.062   2.290  1.00  0.00    -0.353 OA
HETATM    4  C5  UNL     1       9.717  14.792   3.621  1.00  0.00     0.164 C 
HETATM    5  C6  UNL     1       8.743  15.650   4.401  1.00  0.00     0.068 C 
HETATM    6  C7  UNL     1       7.627  14.829   5.012  1.00  0.00     0.005 C 
HETATM    7  C8  UNL     1       8.155  13.823   6.011  1.00  0.00     0.000 C 
HETATM    8  C9  UNL     1       9.490  13.283   5.516  1.00  0.00     0.005 C 
HETATM    9  C10 UNL     1       9.429  13.352   3.991  1.00  0.00     0.068 C 
HETATM   10  O3  UNL     1      11.026  15.060   3.972  1.00  0.00    -0.348 OA
ENDROOT
BRANCH   1  11
HETATM   11  C2  UNL     1      13.089  15.457   2.786  1.00  0.00     0.060 C 
BRANCH  11  12
HETATM   12  C1  UNL     1      13.194  16.293   1.527  1.00  0.00     0.166 C 
BRANCH  12  13
HETATM   13  O1  UNL     1      14.265  15.904   0.732  1.00  0.00    -0.401 OA
ATOM     14  H1  UNL     1      14.617  16.629   0.230  1.00  0.00     0.209 HD
ENDBRANCH  12  13
ENDBRANCH  11  12
ENDBRANCH   1  11
TORSDOF 3
ENDMDL
MODEL 2
REMARK VINA RESULT: -6.011922143      1.574      2.108
REMARK  3 active torsions:
REMARK  status: ('A' for Active; 'I' for Inactive)
REMARK    1  A    between atoms: O1_1  and  C1_3 
REMARK    2  A    between atoms: C1_3  and  C2_4 
REMARK    3  A    between atoms: C2_4  and  C3_5 
ROOT
HETATM    1  C3  UNL     1      12.045  16.117   3.814  1.00  0.00     0.151 C 
HETATM    2  C4  UNL     1      12.445  14.984   2.884  1.00  0.00     0.203 C 
HETATM    3  O2  UNL     1      11.259  14.231   2.895  1.00  0.00    -0.353 OA
HETATM    4  C5  UNL     1      10.236  15.078   3.227  1.00  0.00     0.164 C 
HETATM    5  C6  UNL     1       9.212  15.040   2.112  1.00  0.00     0.068 C 
HETATM    6  C7  UNL     1       7.939  14.338   2.535  1.00  0.00     0.005 C 
HETATM    7  C8  UNL     1       7.255  15.060   3.675  1.00  0.00     0.000 C 
HETATM    8  C9  UNL     1       8.312  15.628   4.612  1.00  0.00     0.005 C 
HETATM    9  C10 UNL     1       9.514  14.692   4.501  1.00  0.00     0.068 C 
HETATM   10  O3  UNL     1      10.747  16.350   3.406  1.00  0.00    -0.348 OA
ENDROOT
BRANCH   1  11
HETATM   11  C2  UNL     1      12.942  17.310   3.682  1.00  0.00     0.060 C 
BRANCH  11  12
HETATM   12  C1  UNL     1      13.942  16.997   2.587  1.00  0.00     0.166 C 
BRANCH  12  13
HETATM   13  O1  UNL     1      15.228  17.403   2.926  1.00  0.00    -0.401 OA
ATOM     14  H1  UNL     1      15.237  18.272   3.309  1.00  0.00     0.209 HD
ENDBRANCH  12  13
ENDBRANCH  11  12
ENDBRANCH   1  11
TORSDOF 3
ENDMDL
MODEL 3
REMARK VINA RESULT: -5.998664343      1.363      1.720
REMARK  3 active torsions:
REMARK  status: ('A' for Active; 'I' for Inactive)
REMARK    1  A    between atoms: O1_1  and  C1_3 
REMARK    2  A    between atoms: C1_3  and  C2_4 
REMARK    3  A    between atoms: C2_4  and  C3_5 
ROOT
HETATM    1  C3  UNL     1      11.005  15.465   0.779  1.00  0.00     0.151 C 
HETATM    2  C4  UNL     1       9.612  15.421   0.174  1.00  0.00     0.203 C 
HETATM    3  O2  UNL     1       8.973  14.579   1.099  1.00  0.00    -0.353 OA
HETATM    4  C5  UNL     1       9.662  14.663   2.278  1.00  0.00     0.164 C 
HETATM    5  C6  UNL     1       8.699  15.115   3.355  1.00  0.00     0.068 C 
HETATM    6  C7  UNL     1       8.385  14.006   4.337  1.00  0.00     0.005 C 
HETATM    7  C8  UNL     1       9.621  13.549   5.079  1.00  0.00     0.000 C 
HETATM    8  C9  UNL     1      10.813  13.589   4.133  1.00  0.00     0.005 C 
HETATM    9  C10 UNL     1      10.247  13.343   2.736  1.00  0.00     0.068 C 
HETATM   10  O3  UNL     1      10.708  15.552   2.124  1.00  0.00    -0.348 OA
ENDROOT
BRANCH   1  11
HETATM   11  C2  UNL     1      11.818  16.613   0.263  1.00  0.00     0.060 C 
BRANCH  11  12
HETATM   12  C1  UNL     1      13.099  16.652   1.071  1.00  0.00     0.166 C 
BRANCH  12  13
HETATM   13  O1  UNL     1      14.132  15.968   0.442  1.00  0.00    -0.401 OA
ATOM     14  H1  UNL     1      14.863  16.539   0.237  1.00  0.00     0.209 HD
ENDBRANCH  12  13
ENDBRANCH  11  12
ENDBRANCH   1  11
TORSDOF 3
ENDMDL
MODEL 4
REMARK VINA RESULT: -5.900670133      1.560      2.645
REMARK  3 active torsions:
REMARK  status: ('A' for Active; 'I' for Inactive)
REMARK    1  A    between atoms: O1_1  and  C1_3 
REMARK    2  A    between atoms: C1_3  and  C2_4 
REMARK    3  A    between atoms: C2_4  and  C3_5 
ROOT
HETATM    1  C3  UNL     1      11.496  16.444   1.294  1.00  0.00     0.151 C 
HETATM    2  C4  UNL     1      12.794  15.816   1.771  1.00  0.00     0.203 C 
HETATM    3  O2  UNL     1      12.321  15.094   2.880  1.00  0.00    -0.353 OA
HETATM    4  C5  UNL     1      10.988  14.856   2.679  1.00  0.00     0.164 C 
HETATM    5  C6  UNL     1      10.765  13.359   2.719  1.00  0.00     0.068 C 
HETATM    6  C7  UNL     1      10.018  12.931   3.964  1.00  0.00     0.005 C 
HETATM    7  C8  UNL     1       8.633  13.538   4.021  1.00  0.00     0.000 C 
HETATM    8  C9  UNL     1       8.684  14.950   3.455  1.00  0.00     0.005 C 
HETATM    9  C10 UNL     1      10.094  15.463   3.740  1.00  0.00     0.068 C 
HETATM   10  O3  UNL     1      10.615  15.394   1.461  1.00  0.00    -0.348 OA
ENDROOT
BRANCH   1  11
HETATM   11  C2  UNL     1      11.584  16.939  -0.118  1.00  0.00     0.060 C 
BRANCH  11  12
HETATM   12  C1  UNL     1      13.038  16.842  -0.535  1.00  0.00     0.166 C 
BRANCH  12  13
HETATM   13  O1  UNL     1      13.561  18.081  -0.887  1.00  0.00    -0.401 OA
ATOM     14  H1  UNL     1      14.179  18.014  -1.606  1.00  0.00     0.209 HD
ENDBRANCH  12  13
ENDBRANCH  11  12
ENDBRANCH   1  11
TORSDOF 3
ENDMDL
MODEL 5
REMARK VINA RESULT: -5.877513413      1.694      4.929
REMARK  3 active torsions:
REMARK  status: ('A' for Active; 'I' for Inactive)
REMARK    1  A    between atoms: O1_1  and  C1_3 
REMARK    2  A    between atoms: C1_3  and  C2_4 
REMARK    3  A    between atoms: C2_4  and  C3_5 
ROOT
HETATM    1  C3  UNL     1       9.476  14.354   4.053  1.00  0.00     0.151 C 
HETATM    2  C4  UNL     1      10.948  14.154   4.375  1.00  0.00     0.203 C 
HETATM    3  O2  UNL     1      11.495  14.266   3.086  1.00  0.00    -0.353 OA
HETATM    4  C5  UNL     1      10.620  14.996   2.328  1.00  0.00     0.164 C 
HETATM    5  C6  UNL     1      11.357  16.205   1.791  1.00  0.00     0.068 C 
HETATM    6  C7  UNL     1      11.597  16.105   0.299  1.00  0.00     0.005 C 
HETATM    7  C8  UNL     1      10.298  16.059  -0.475  1.00  0.00     0.000 C 
HETATM    8  C9  UNL     1       9.275  15.257   0.318  1.00  0.00     0.005 C 
HETATM    9  C10 UNL     1      10.077  14.243   1.131  1.00  0.00     0.068 C 
HETATM   10  O3  UNL     1       9.544  15.363   3.114  1.00  0.00    -0.348 OA
ENDROOT
BRANCH   1  11
HETATM   11  C2  UNL     1       8.667  14.708   5.263  1.00  0.00     0.060 C 
BRANCH  11  12
HETATM   12  C1  UNL     1       7.220  14.801   4.822  1.00  0.00     0.166 C 
BRANCH  12  13
HETATM   13  O1  UNL     1       6.854  16.105   4.513  1.00  0.00    -0.401 OA
ATOM     14  H1  UNL     1       7.066  16.709   5.215  1.00  0.00     0.209 HD
ENDBRANCH  12  13
ENDBRANCH  11  12
ENDBRANCH   1  11
TORSDOF 3
ENDMDL
