MODEL 1
REMARK VINA RESULT: -6.013510666      0.000      0.000
REMARK  2 active torsions:
REMARK  status: ('A' for Active; 'I' for Inactive)
REMARK    1  A    between atoms: O1_3  and  N1_4 
REMARK    2  A    between atoms: N1_4  and  C3_6 
ROOT
HETATM    1  C1  UNL     1      11.342  17.682  -0.802  1.00  0.00     0.047 C 
HETATM    2  C2  UNL     1      11.373  16.513  -0.497  1.00  0.00     0.073 C 
HETATM    3  O1  UNL     1      11.429  15.183  -0.152  1.00  0.00    -0.189 OA
ENDROOT
BRANCH   3   4
HETATM    4  N1  UNL     1      10.269  14.547   0.123  1.00  0.00    -0.264 N 
ATOM      5  H1  UNL     1       9.895  13.808  -0.473  1.00  0.00     0.191 HD
BRANCH   4   6
HETATM    6  C3  UNL     1       9.605  14.982   1.307  1.00  0.00     0.206 C 
HETATM    7  C4  UNL     1       8.306  14.179   1.414  1.00  0.00     0.053 C 
HETATM    8  C5  UNL     1       8.099  13.750   2.836  1.00  0.00    -0.009 C 
HETATM    9  C6  UNL     1       7.932  14.969   3.684  1.00  0.00     0.010 C 
HETATM   10  C10 UNL     1       9.232  12.860   3.276  1.00  0.00     0.024 C 
HETATM   11  C7  UNL     1       9.174  15.359   4.417  1.00  0.00     0.044 C 
HETATM   12  C8  UNL     1      10.349  15.599   3.511  1.00  0.00     0.060 C 
HETATM   13  N2  UNL     1      10.466  14.711   2.426  1.00  0.00    -0.371 N 
HETATM   14  C9  UNL     1      10.563  13.331   2.726  1.00  0.00     0.124 C 
ENDBRANCH   4   6
ENDBRANCH   3   4
TORSDOF 2
ENDMDL
MODEL 2
REMARK VINA RESULT: -5.621904062      1.932      2.702
REMARK  2 active torsions:
REMARK  status: ('A' for Active; 'I' for Inactive)
REMARK    1  A    between atoms: O1_3  and  N1_4 
REMARK    2  A    between atoms: N1_4  and  C3_6 
ROOT
HETATM    1  C1  UNL     1      13.989  17.683   2.963  1.00  0.00     0.047 C 
HETATM    2  C2  UNL     1      13.539  16.793   2.281  1.00  0.00     0.073 C 
HETATM    3  O1  UNL     1      13.047  15.776   1.498  1.00  0.00    -0.189 OA
ENDROOT
BRANCH   3   4
HETATM    4  N1  UNL     1      11.717  15.534   1.529  1.00  0.00    -0.264 N 
ATOM      5  H1  UNL     1      11.088  15.836   0.785  1.00  0.00     0.191 HD
BRANCH   4   6
HETATM    6  C3  UNL     1      11.256  14.826   2.678  1.00  0.00     0.206 C 
HETATM    7  C4  UNL     1      10.377  15.792   3.477  1.00  0.00     0.053 C 
HETATM    8  C5  UNL     1       9.157  15.069   3.965  1.00  0.00    -0.009 C 
HETATM    9  C6  UNL     1       9.585  13.988   4.904  1.00  0.00     0.010 C 
HETATM   10  C10 UNL     1       8.351  14.569   2.795  1.00  0.00     0.024 C 
HETATM   11  C7  UNL     1       9.627  12.634   4.272  1.00  0.00     0.044 C 
HETATM   12  C8  UNL     1      10.524  12.568   3.068  1.00  0.00     0.060 C 
HETATM   13  N2  UNL     1      10.493  13.695   2.227  1.00  0.00    -0.371 N 
HETATM   14  C9  UNL     1       9.239  14.059   1.679  1.00  0.00     0.124 C 
ENDBRANCH   4   6
ENDBRANCH   3   4
TORSDOF 2
ENDMDL
MODEL 3
REMARK VINA RESULT: -5.575252443      1.006      1.115
REMARK  2 active torsions:
REMARK  status: ('A' for Active; 'I' for Inactive)
REMARK    1  A    between atoms: O1_3  and  N1_4 
REMARK    2  A    between atoms: N1_4  and  C3_6 
ROOT
HETATM    1  C1  UNL     1      12.841  17.300  -0.724  1.00  0.00     0.047 C 
HETATM    2  C2  UNL     1      12.157  16.400  -0.296  1.00  0.00     0.073 C 
HETATM    3  O1  UNL     1      11.373  15.371   0.170  1.00  0.00    -0.189 OA
ENDROOT
BRANCH   3   4
HETATM    4  N1  UNL     1      11.349  15.142   1.503  1.00  0.00    -0.264 N 
ATOM      5  H1  UNL     1      12.160  14.793   2.012  1.00  0.00     0.191 HD
BRANCH   4   6
HETATM    6  C3  UNL     1      10.107  15.424   2.144  1.00  0.00     0.206 C 
HETATM    7  C4  UNL     1       9.004  14.831   1.264  1.00  0.00     0.053 C 
HETATM    8  C5  UNL     1       7.982  14.157   2.131  1.00  0.00    -0.009 C 
HETATM    9  C6  UNL     1       7.340  15.186   3.003  1.00  0.00     0.010 C 
HETATM   10  C10 UNL     1       8.620  13.028   2.898  1.00  0.00     0.024 C 
HETATM   11  C7  UNL     1       7.892  15.217   4.392  1.00  0.00     0.044 C 
HETATM   12  C8  UNL     1       9.377  15.450   4.436  1.00  0.00     0.060 C 
HETATM   13  N2  UNL     1      10.121  14.797   3.437  1.00  0.00    -0.371 N 
HETATM   14  C9  UNL     1      10.015  13.387   3.367  1.00  0.00     0.124 C 
ENDBRANCH   4   6
ENDBRANCH   3   4
TORSDOF 2
ENDMDL
MODEL 4
REMARK VINA RESULT: -5.565138652      1.074      2.165
REMARK  2 active torsions:
REMARK  status: ('A' for Active; 'I' for Inactive)
REMARK    1  A    between atoms: O1_3  and  N1_4 
REMARK    2  A    between atoms: N1_4  and  C3_6 
ROOT
HETATM    1  C1  UNL     1      11.696  17.196  -0.612  1.00  0.00     0.047 C 
HETATM    2  C2  UNL     1      11.731  16.320   0.220  1.00  0.00     0.073 C 
HETATM    3  O1  UNL     1      11.791  15.330   1.172  1.00  0.00    -0.189 OA
ENDROOT
BRANCH   3   4
HETATM    4  N1  UNL     1      10.718  14.519   1.316  1.00  0.00    -0.264 N 
ATOM      5  H1  UNL     1      10.205  14.144   0.519  1.00  0.00     0.191 HD
BRANCH   4   6
HETATM    6  C3  UNL     1      10.357  14.227   2.664  1.00  0.00     0.206 C 
HETATM    7  C4  UNL     1      10.041  15.562   3.343  1.00  0.00     0.053 C 
HETATM    8  C5  UNL     1       8.815  15.412   4.195  1.00  0.00    -0.009 C 
HETATM    9  C6  UNL     1       9.105  14.426   5.280  1.00  0.00     0.010 C 
HETATM   10  C10 UNL     1       7.635  15.037   3.337  1.00  0.00     0.024 C 
HETATM   11  C7  UNL     1       8.572  13.058   4.999  1.00  0.00     0.044 C 
HETATM   12  C8  UNL     1       9.084  12.474   3.711  1.00  0.00     0.060 C 
HETATM   13  N2  UNL     1       9.197  13.379   2.640  1.00  0.00    -0.371 N 
HETATM   14  C9  UNL     1       8.022  14.063   2.244  1.00  0.00     0.124 C 
ENDBRANCH   4   6
ENDBRANCH   3   4
TORSDOF 2
ENDMDL
MODEL 5
REMARK VINA RESULT: -5.564012708      2.279      2.707
REMARK  2 active torsions:
REMARK  status: ('A' for Active; 'I' for Inactive)
REMARK    1  A    between atoms: O1_3  and  N1_4 
REMARK    2  A    between atoms: N1_4  and  C3_6 
ROOT
HETATM    1  C1  UNL     1      13.942  17.750   3.014  1.00  0.00     0.047 C 
HETATM    2  C2  UNL     1      13.241  16.769   2.916  1.00  0.00     0.073 C 
HETATM    3  O1  UNL     1      12.453  15.650   2.786  1.00  0.00    -0.189 OA
ENDROOT
BRANCH   3   4
HETATM    4  N1  UNL     1      11.615  15.339   3.800  1.00  0.00    -0.264 N 
ATOM      5  H1  UNL     1      11.951  15.001   4.702  1.00  0.00     0.191 HD
BRANCH   4   6
HETATM    6  C3  UNL     1      10.229  15.518   3.518  1.00  0.00     0.206 C 
HETATM    7  C4  UNL     1       9.943  14.793   2.201  1.00  0.00     0.053 C 
HETATM    8  C5  UNL     1       8.645  14.049   2.312  1.00  0.00    -0.009 C 
HETATM    9  C6  UNL     1       7.543  15.037   2.516  1.00  0.00     0.010 C 
HETATM   10  C10 UNL     1       8.737  13.012   3.401  1.00  0.00     0.024 C 
HETATM   11  C7  UNL     1       7.116  15.164   3.942  1.00  0.00     0.044 C 
HETATM   12  C8  UNL     1       8.238  15.542   4.868  1.00  0.00     0.060 C 
HETATM   13  N2  UNL     1       9.477  14.935   4.596  1.00  0.00    -0.371 N 
HETATM   14  C9  UNL     1       9.518  13.520   4.595  1.00  0.00     0.124 C 
ENDBRANCH   4   6
ENDBRANCH   3   4
TORSDOF 2
ENDMDL
