MODEL 1
REMARK VINA RESULT: -7.502362463      0.000      0.000
REMARK  12 active torsions:
REMARK  status: ('A' for Active; 'I' for Inactive)
REMARK    1  A    between atoms: C2_2  and  C3_3 
REMARK    2  A    between atoms: C3_3  and  C4_4 
REMARK    3  A    between atoms: C4_4  and  C5_5 
REMARK    4  A    between atoms: C5_5  and  C6_6 
REMARK    5  A    between atoms: C5_5  and  C15_22 
REMARK       I    between atoms: C6_6  and  N1_8 
REMARK       I    between atoms: N1_8  and  C7_10 
REMARK    6  A    between atoms: C7_10  and  C8_12 
REMARK    7  A    between atoms: C15_22  and  O6_23 
REMARK    8  A    between atoms: C15_22  and  C16_25 
REMARK    9  A    between atoms: C16_25  and  O7_26 
REMARK   10  A    between atoms: C16_25  and  N2_28 
REMARK   11  A    between atoms: C19_31  and  C20_32 
REMARK   12  A    between atoms: C20_32  and  C21_34 
ROOT
HETATM    1  C5  UNL     1      -2.362   3.864  21.492  1.00  0.00     0.111 C 
ENDROOT
BRANCH   1   2
HETATM    2  C4  UNL     1      -2.016   4.786  22.678  1.00  0.00     0.020 C 
BRANCH   2   3
HETATM    3  C3  UNL     1      -2.360   4.114  23.954  1.00  0.00     0.027 C 
BRANCH   3   4
HETATM    4  C2  UNL     1      -1.170   4.125  24.860  1.00  0.00    -0.037 C 
HETATM    5  C1  UNL     1      -0.177   3.293  24.701  1.00  0.00     0.007 C 
ENDBRANCH   3   4
ENDBRANCH   2   3
ENDBRANCH   1   2
BRANCH   1   6
HETATM    6  C6  UNL     1      -3.152   4.636  20.528  1.00  0.00     0.231 C 
HETATM    7  O1  UNL     1      -2.448   5.395  19.752  1.00  0.00    -0.273 OA
HETATM    8  N1  UNL     1      -4.521   4.650  20.349  1.00  0.00    -0.295 N 
HETATM    9  C7  UNL     1      -5.471   3.982  21.110  1.00  0.00     0.253 C 
ATOM     10  H1  UNL     1      -4.873   5.211  19.574  1.00  0.00     0.171 HD
HETATM   11  O2  UNL     1      -5.241   3.251  22.077  1.00  0.00    -0.270 OA
BRANCH   9  12
HETATM   12  C8  UNL     1      -6.912   4.153  20.738  1.00  0.00     0.219 C 
HETATM   13  C9  UNL     1      -7.813   3.706  21.871  1.00  0.00     0.078 C 
HETATM   14  C10 UNL     1      -8.606   2.596  21.238  1.00  0.00     0.183 C 
HETATM   15  O3  UNL     1      -9.677   3.077  20.484  1.00  0.00    -0.345 OA
HETATM   16  C14 UNL     1      -7.666   2.151  20.111  1.00  0.00     0.293 C 
HETATM   17  C11 UNL     1      -9.795   2.145  19.456  1.00  0.00     0.160 C 
HETATM   18  C12 UNL     1     -10.825   1.129  19.908  1.00  0.00     0.078 C 
HETATM   19  C13 UNL     1     -10.246   2.824  18.158  1.00  0.00     0.078 C 
HETATM   20  O4  UNL     1      -8.557   1.597  19.223  1.00  0.00    -0.324 OA
HETATM   21  O5  UNL     1      -7.211   3.382  19.651  1.00  0.00    -0.344 OA
ENDBRANCH   9  12
ENDBRANCH   1   6
BRANCH   1  22
HETATM   22  C15 UNL     1      -1.112   3.332  20.855  1.00  0.00     0.180 C 
BRANCH  22  23
HETATM   23  O6  UNL     1      -0.073   4.204  21.308  1.00  0.00    -0.390 OA
ATOM     24  H6  UNL     1      -0.246   4.326  22.235  1.00  0.00     0.210 HD
ENDBRANCH  22  23
BRANCH  22  25
HETATM   25  C16 UNL     1      -0.692   1.941  21.197  1.00  0.00     0.253 C 
BRANCH  25  26
HETATM   26  O7  UNL     1      -1.609   1.344  22.056  1.00  0.00    -0.374 OA
ATOM     27  H7  UNL     1      -1.196   1.103  22.877  1.00  0.00     0.212 HD
ENDBRANCH  25  26
BRANCH  25  28
HETATM   28  N2  UNL     1      -0.619   1.140  20.020  1.00  0.00    -0.341 N 
HETATM   29  C17 UNL     1      -1.275  -0.094  19.980  1.00  0.00     0.093 C 
HETATM   30  C18 UNL     1      -1.577  -0.481  18.536  1.00  0.00     0.028 C 
HETATM   31  C19 UNL     1      -0.588  -0.309  17.646  1.00  0.00    -0.006 C 
HETATM   32  C27 UNL     1       0.683   0.248  18.142  1.00  0.00     0.087 C 
HETATM   33  C28 UNL     1       0.467   1.341  19.161  1.00  0.00     0.071 C 
BRANCH  31  34
HETATM   34  C20 UNL     1      -0.825  -0.667  16.236  1.00  0.00     0.160 C 
HETATM   35  O8  UNL     1      -1.929  -0.348  15.689  1.00  0.00    -0.292 OA
BRANCH  34  36
HETATM   36  C21 UNL     1       0.170  -1.381  15.448  1.00  0.00     0.060 C 
HETATM   37  C22 UNL     1       0.561  -2.735  15.974  1.00  0.00     0.012 C 
HETATM   38  C23 UNL     1      -0.636  -3.652  15.800  1.00  0.00     0.001 C 
HETATM   39  C24 UNL     1      -1.029  -3.825  14.375  1.00  0.00     0.000 C 
HETATM   40  C25 UNL     1      -1.185  -2.518  13.635  1.00  0.00     0.001 C 
HETATM   41  C26 UNL     1      -0.170  -1.501  13.994  1.00  0.00     0.012 C 
ENDBRANCH  34  36
ENDBRANCH  31  34
ENDBRANCH  25  28
ENDBRANCH  22  25
ENDBRANCH   1  22
TORSDOF 12
ENDMDL
MODEL 2
REMARK VINA RESULT: -7.392107522      3.376     10.411
REMARK  12 active torsions:
REMARK  status: ('A' for Active; 'I' for Inactive)
REMARK    1  A    between atoms: C2_2  and  C3_3 
REMARK    2  A    between atoms: C3_3  and  C4_4 
REMARK    3  A    between atoms: C4_4  and  C5_5 
REMARK    4  A    between atoms: C5_5  and  C6_6 
REMARK    5  A    between atoms: C5_5  and  C15_22 
REMARK       I    between atoms: C6_6  and  N1_8 
REMARK       I    between atoms: N1_8  and  C7_10 
REMARK    6  A    between atoms: C7_10  and  C8_12 
REMARK    7  A    between atoms: C15_22  and  O6_23 
REMARK    8  A    between atoms: C15_22  and  C16_25 
REMARK    9  A    between atoms: C16_25  and  O7_26 
REMARK   10  A    between atoms: C16_25  and  N2_28 
REMARK   11  A    between atoms: C19_31  and  C20_32 
REMARK   12  A    between atoms: C20_32  and  C21_34 
ROOT
HETATM    1  C5  UNL     1      -3.078   4.169  20.975  1.00  0.00     0.111 C 
ENDROOT
BRANCH   1   2
HETATM    2  C4  UNL     1      -4.085   5.066  20.228  1.00  0.00     0.020 C 
BRANCH   2   3
HETATM    3  C3  UNL     1      -5.318   4.300  19.932  1.00  0.00     0.027 C 
BRANCH   3   4
HETATM    4  C2  UNL     1      -6.385   4.674  20.909  1.00  0.00    -0.037 C 
HETATM    5  C1  UNL     1      -7.043   3.774  21.589  1.00  0.00     0.007 C 
ENDBRANCH   3   4
ENDBRANCH   2   3
ENDBRANCH   1   2
BRANCH   1   6
HETATM    6  C6  UNL     1      -1.788   4.252  20.281  1.00  0.00     0.231 C 
HETATM    7  O1  UNL     1      -1.516   5.424  19.807  1.00  0.00    -0.273 OA
HETATM    8  N1  UNL     1      -0.852   3.258  20.081  1.00  0.00    -0.295 N 
HETATM    9  C7  UNL     1      -0.963   1.920  20.432  1.00  0.00     0.253 C 
ATOM     10  H1  UNL     1       0.017   3.538  19.627  1.00  0.00     0.171 HD
HETATM   11  O2  UNL     1      -1.930   1.397  20.995  1.00  0.00    -0.270 OA
BRANCH   9  12
HETATM   12  C8  UNL     1       0.182   1.011  20.104  1.00  0.00     0.219 C 
HETATM   13  C9  UNL     1       0.712   1.299  18.714  1.00  0.00     0.078 C 
HETATM   14  C10 UNL     1       0.506  -0.012  18.009  1.00  0.00     0.183 C 
HETATM   15  O3  UNL     1       1.527  -0.924  18.284  1.00  0.00    -0.345 OA
HETATM   16  C14 UNL     1      -0.631  -0.629  18.832  1.00  0.00     0.293 C 
HETATM   17  C11 UNL     1       0.881  -2.157  18.244  1.00  0.00     0.160 C 
HETATM   18  C12 UNL     1       1.052  -2.690  16.835  1.00  0.00     0.078 C 
HETATM   19  C13 UNL     1       1.494  -3.124  19.261  1.00  0.00     0.078 C 
HETATM   20  O4  UNL     1      -0.433  -1.969  18.598  1.00  0.00    -0.324 OA
HETATM   21  O5  UNL     1      -0.232  -0.290  20.121  1.00  0.00    -0.344 OA
ENDBRANCH   9  12
ENDBRANCH   1   6
BRANCH   1  22
HETATM   22  C15 UNL     1      -2.945   4.603  22.405  1.00  0.00     0.180 C 
BRANCH  22  23
HETATM   23  O6  UNL     1      -3.349   5.975  22.409  1.00  0.00    -0.390 OA
ATOM     24  H6  UNL     1      -3.940   6.051  23.150  1.00  0.00     0.210 HD
ENDBRANCH  22  23
BRANCH  22  25
HETATM   25  C16 UNL     1      -3.776   3.902  23.428  1.00  0.00     0.253 C 
BRANCH  25  26
HETATM   26  O7  UNL     1      -3.875   2.545  23.139  1.00  0.00    -0.374 OA
ATOM     27  H7  UNL     1      -4.277   2.408  22.290  1.00  0.00     0.212 HD
ENDBRANCH  25  26
BRANCH  25  28
HETATM   28  N2  UNL     1      -3.186   4.027  24.719  1.00  0.00    -0.341 N 
HETATM   29  C17 UNL     1      -1.882   3.568  24.933  1.00  0.00     0.093 C 
HETATM   30  C18 UNL     1      -1.255   4.301  26.113  1.00  0.00     0.028 C 
HETATM   31  C19 UNL     1      -2.017   4.444  27.208  1.00  0.00    -0.006 C 
HETATM   32  C27 UNL     1      -3.384   3.896  27.161  1.00  0.00     0.087 C 
HETATM   33  C28 UNL     1      -4.043   4.123  25.822  1.00  0.00     0.071 C 
BRANCH  31  34
HETATM   34  C20 UNL     1      -1.461   5.145  28.380  1.00  0.00     0.160 C 
HETATM   35  O8  UNL     1      -0.717   4.507  29.191  1.00  0.00    -0.292 OA
BRANCH  34  36
HETATM   36  C21 UNL     1      -1.742   6.550  28.639  1.00  0.00     0.060 C 
HETATM   37  C22 UNL     1      -3.122   6.848  29.159  1.00  0.00     0.012 C 
HETATM   38  C23 UNL     1      -3.208   6.287  30.567  1.00  0.00     0.001 C 
HETATM   39  C24 UNL     1      -2.236   6.919  31.500  1.00  0.00     0.000 C 
HETATM   40  C25 UNL     1      -0.823   6.941  30.967  1.00  0.00     0.001 C 
HETATM   41  C26 UNL     1      -0.734   7.226  29.516  1.00  0.00     0.012 C 
ENDBRANCH  34  36
ENDBRANCH  31  34
ENDBRANCH  25  28
ENDBRANCH  22  25
ENDBRANCH   1  22
TORSDOF 12
ENDMDL
MODEL 3
REMARK VINA RESULT: -7.244327197      3.637     10.676
REMARK  12 active torsions:
REMARK  status: ('A' for Active; 'I' for Inactive)
REMARK    1  A    between atoms: C2_2  and  C3_3 
REMARK    2  A    between atoms: C3_3  and  C4_4 
REMARK    3  A    between atoms: C4_4  and  C5_5 
REMARK    4  A    between atoms: C5_5  and  C6_6 
REMARK    5  A    between atoms: C5_5  and  C15_22 
REMARK       I    between atoms: C6_6  and  N1_8 
REMARK       I    between atoms: N1_8  and  C7_10 
REMARK    6  A    between atoms: C7_10  and  C8_12 
REMARK    7  A    between atoms: C15_22  and  O6_23 
REMARK    8  A    between atoms: C15_22  and  C16_25 
REMARK    9  A    between atoms: C16_25  and  O7_26 
REMARK   10  A    between atoms: C16_25  and  N2_28 
REMARK   11  A    between atoms: C19_31  and  C20_32 
REMARK   12  A    between atoms: C20_32  and  C21_34 
ROOT
HETATM    1  C5  UNL     1      -2.977   4.277  21.117  1.00  0.00     0.111 C 
ENDROOT
BRANCH   1   2
HETATM    2  C4  UNL     1      -4.021   4.991  20.236  1.00  0.00     0.020 C 
BRANCH   2   3
HETATM    3  C3  UNL     1      -5.205   4.118  20.052  1.00  0.00     0.027 C 
BRANCH   3   4
HETATM    4  C2  UNL     1      -6.359   4.674  20.824  1.00  0.00    -0.037 C 
HETATM    5  C1  UNL     1      -7.143   3.910  21.536  1.00  0.00     0.007 C 
ENDBRANCH   3   4
ENDBRANCH   2   3
ENDBRANCH   1   2
BRANCH   1   6
HETATM    6  C6  UNL     1      -1.660   4.446  20.492  1.00  0.00     0.231 C 
HETATM    7  O1  UNL     1      -1.262   5.674  20.419  1.00  0.00    -0.273 OA
HETATM    8  N1  UNL     1      -0.814   3.478  19.990  1.00  0.00    -0.295 N 
HETATM    9  C7  UNL     1      -1.063   2.116  19.893  1.00  0.00     0.253 C 
ATOM     10  H1  UNL     1       0.094   3.799  19.653  1.00  0.00     0.171 HD
HETATM   11  O2  UNL     1      -2.094   1.541  20.254  1.00  0.00    -0.270 OA
BRANCH   9  12
HETATM   12  C8  UNL     1       0.004   1.248  19.298  1.00  0.00     0.219 C 
HETATM   13  C9  UNL     1      -0.577  -0.071  18.835  1.00  0.00     0.078 C 
HETATM   14  C10 UNL     1       0.185  -1.070  19.660  1.00  0.00     0.183 C 
HETATM   15  O3  UNL     1       1.440  -1.354  19.119  1.00  0.00    -0.345 OA
HETATM   16  C14 UNL     1       0.601  -0.219  20.866  1.00  0.00     0.293 C 
HETATM   17  C11 UNL     1       2.227  -1.607  20.240  1.00  0.00     0.160 C 
HETATM   18  C12 UNL     1       2.201  -3.107  20.457  1.00  0.00     0.078 C 
HETATM   19  C13 UNL     1       3.664  -1.124  20.014  1.00  0.00     0.078 C 
HETATM   20  O4  UNL     1       1.717  -0.896  21.298  1.00  0.00    -0.324 OA
HETATM   21  O5  UNL     1       0.957   0.968  20.235  1.00  0.00    -0.344 OA
ENDBRANCH   9  12
ENDBRANCH   1   6
BRANCH   1  22
HETATM   22  C15 UNL     1      -2.985   4.839  22.507  1.00  0.00     0.180 C 
BRANCH  22  23
HETATM   23  O6  UNL     1      -3.451   6.183  22.354  1.00  0.00    -0.390 OA
ATOM     24  H6  UNL     1      -4.131   6.280  23.011  1.00  0.00     0.210 HD
ENDBRANCH  22  23
BRANCH  22  25
HETATM   25  C16 UNL     1      -3.868   4.186  23.519  1.00  0.00     0.253 C 
BRANCH  25  26
HETATM   26  O7  UNL     1      -4.033   2.835  23.233  1.00  0.00    -0.374 OA
ATOM     27  H7  UNL     1      -3.256   2.481  22.816  1.00  0.00     0.212 HD
ENDBRANCH  25  26
BRANCH  25  28
HETATM   28  N2  UNL     1      -3.292   4.285  24.819  1.00  0.00    -0.341 N 
HETATM   29  C17 UNL     1      -2.033   3.727  25.064  1.00  0.00     0.093 C 
HETATM   30  C18 UNL     1      -1.370   4.427  26.244  1.00  0.00     0.028 C 
HETATM   31  C19 UNL     1      -2.137   4.649  27.323  1.00  0.00    -0.006 C 
HETATM   32  C27 UNL     1      -3.543   4.211  27.258  1.00  0.00     0.087 C 
HETATM   33  C28 UNL     1      -4.157   4.468  25.904  1.00  0.00     0.071 C 
BRANCH  31  34
HETATM   34  C20 UNL     1      -1.546   5.323  28.494  1.00  0.00     0.160 C 
HETATM   35  O8  UNL     1      -0.764   4.672  29.258  1.00  0.00    -0.292 OA
BRANCH  34  36
HETATM   36  C21 UNL     1      -1.836   6.715  28.805  1.00  0.00     0.060 C 
HETATM   37  C22 UNL     1      -3.190   6.974  29.408  1.00  0.00     0.012 C 
HETATM   38  C23 UNL     1      -3.188   6.376  30.803  1.00  0.00     0.001 C 
HETATM   39  C24 UNL     1      -2.176   7.002  31.697  1.00  0.00     0.000 C 
HETATM   40  C25 UNL     1      -0.795   7.062  31.088  1.00  0.00     0.001 C 
HETATM   41  C26 UNL     1      -0.792   7.386  29.642  1.00  0.00     0.012 C 
ENDBRANCH  34  36
ENDBRANCH  31  34
ENDBRANCH  25  28
ENDBRANCH  22  25
ENDBRANCH   1  22
TORSDOF 12
ENDMDL
MODEL 4
REMARK VINA RESULT: -7.165211703      2.651      8.523
REMARK  12 active torsions:
REMARK  status: ('A' for Active; 'I' for Inactive)
REMARK    1  A    between atoms: C2_2  and  C3_3 
REMARK    2  A    between atoms: C3_3  and  C4_4 
REMARK    3  A    between atoms: C4_4  and  C5_5 
REMARK    4  A    between atoms: C5_5  and  C6_6 
REMARK    5  A    between atoms: C5_5  and  C15_22 
REMARK       I    between atoms: C6_6  and  N1_8 
REMARK       I    between atoms: N1_8  and  C7_10 
REMARK    6  A    between atoms: C7_10  and  C8_12 
REMARK    7  A    between atoms: C15_22  and  O6_23 
REMARK    8  A    between atoms: C15_22  and  C16_25 
REMARK    9  A    between atoms: C16_25  and  O7_26 
REMARK   10  A    between atoms: C16_25  and  N2_28 
REMARK   11  A    between atoms: C19_31  and  C20_32 
REMARK   12  A    between atoms: C20_32  and  C21_34 
ROOT
HETATM    1  C5  UNL     1      -2.868   4.308  21.072  1.00  0.00     0.111 C 
ENDROOT
BRANCH   1   2
HETATM    2  C4  UNL     1      -3.968   5.009  20.251  1.00  0.00     0.020 C 
BRANCH   2   3
HETATM    3  C3  UNL     1      -5.142   4.114  20.116  1.00  0.00     0.027 C 
BRANCH   3   4
HETATM    4  C2  UNL     1      -6.289   4.675  20.894  1.00  0.00    -0.037 C 
HETATM    5  C1  UNL     1      -6.954   3.953  21.755  1.00  0.00     0.007 C 
ENDBRANCH   3   4
ENDBRANCH   2   3
ENDBRANCH   1   2
BRANCH   1   6
HETATM    6  C6  UNL     1      -1.683   4.164  20.220  1.00  0.00     0.231 C 
HETATM    7  O1  UNL     1      -1.280   5.268  19.681  1.00  0.00    -0.273 OA
HETATM    8  N1  UNL     1      -0.962   3.022  19.932  1.00  0.00    -0.295 N 
HETATM    9  C7  UNL     1      -1.253   1.725  20.333  1.00  0.00     0.253 C 
ATOM     10  H1  UNL     1      -0.124   3.145  19.364  1.00  0.00     0.171 HD
HETATM   11  O2  UNL     1      -2.213   1.380  21.027  1.00  0.00    -0.270 OA
BRANCH   9  12
HETATM   12  C8  UNL     1      -0.330   0.632  19.890  1.00  0.00     0.219 C 
HETATM   13  C9  UNL     1       0.561   1.108  18.762  1.00  0.00     0.078 C 
HETATM   14  C10 UNL     1       0.201   0.171  17.643  1.00  0.00     0.183 C 
HETATM   15  O3  UNL     1       0.866  -1.052  17.745  1.00  0.00    -0.345 OA
HETATM   16  C14 UNL     1      -1.214  -0.261  18.049  1.00  0.00     0.293 C 
HETATM   17  C11 UNL     1      -0.043  -1.962  17.211  1.00  0.00     0.160 C 
HETATM   18  C12 UNL     1       0.309  -2.116  15.744  1.00  0.00     0.078 C 
HETATM   19  C13 UNL     1       0.055  -3.312  17.930  1.00  0.00     0.078 C 
HETATM   20  O4  UNL     1      -1.312  -1.479  17.417  1.00  0.00    -0.324 OA
HETATM   21  O5  UNL     1      -1.051  -0.429  19.420  1.00  0.00    -0.344 OA
ENDBRANCH   9  12
ENDBRANCH   1   6
BRANCH   1  22
HETATM   22  C15 UNL     1      -2.546   5.099  22.306  1.00  0.00     0.180 C 
BRANCH  22  23
HETATM   23  O6  UNL     1      -3.417   6.232  22.250  1.00  0.00    -0.390 OA
ATOM     24  H6  UNL     1      -3.107   6.739  21.508  1.00  0.00     0.210 HD
ENDBRANCH  22  23
BRANCH  22  25
HETATM   25  C16 UNL     1      -2.767   4.447  23.630  1.00  0.00     0.253 C 
BRANCH  25  26
HETATM   26  O7  UNL     1      -3.920   3.670  23.613  1.00  0.00    -0.374 OA
ATOM     27  H7  UNL     1      -4.493   3.899  24.335  1.00  0.00     0.212 HD
ENDBRANCH  25  26
BRANCH  25  28
HETATM   28  N2  UNL     1      -1.674   3.590  23.951  1.00  0.00    -0.341 N 
HETATM   29  C17 UNL     1      -0.381   3.932  23.541  1.00  0.00     0.093 C 
HETATM   30  C18 UNL     1       0.649   3.267  24.447  1.00  0.00     0.028 C 
HETATM   31  C19 UNL     1       0.447   1.974  24.743  1.00  0.00    -0.006 C 
HETATM   32  C27 UNL     1      -0.752   1.328  24.180  1.00  0.00     0.087 C 
HETATM   33  C28 UNL     1      -1.953   2.241  24.200  1.00  0.00     0.071 C 
BRANCH  31  34
HETATM   34  C20 UNL     1       1.413   1.280  25.614  1.00  0.00     0.160 C 
HETATM   35  O8  UNL     1       2.071   0.294  25.153  1.00  0.00    -0.292 OA
BRANCH  34  36
HETATM   36  C21 UNL     1       1.635   1.691  26.993  1.00  0.00     0.060 C 
HETATM   37  C22 UNL     1       0.392   1.975  27.791  1.00  0.00     0.012 C 
HETATM   38  C23 UNL     1      -0.319   0.652  28.010  1.00  0.00     0.001 C 
HETATM   39  C24 UNL     1       0.496  -0.319  28.789  1.00  0.00     0.000 C 
HETATM   40  C25 UNL     1       1.896  -0.493  28.249  1.00  0.00     0.001 C 
HETATM   41  C26 UNL     1       2.516   0.767  27.775  1.00  0.00     0.012 C 
ENDBRANCH  34  36
ENDBRANCH  31  34
ENDBRANCH  25  28
ENDBRANCH  22  25
ENDBRANCH   1  22
TORSDOF 12
ENDMDL
MODEL 5
REMARK VINA RESULT: -7.131580869      2.680      8.141
REMARK  12 active torsions:
REMARK  status: ('A' for Active; 'I' for Inactive)
REMARK    1  A    between atoms: C2_2  and  C3_3 
REMARK    2  A    between atoms: C3_3  and  C4_4 
REMARK    3  A    between atoms: C4_4  and  C5_5 
REMARK    4  A    between atoms: C5_5  and  C6_6 
REMARK    5  A    between atoms: C5_5  and  C15_22 
REMARK       I    between atoms: C6_6  and  N1_8 
REMARK       I    between atoms: N1_8  and  C7_10 
REMARK    6  A    between atoms: C7_10  and  C8_12 
REMARK    7  A    between atoms: C15_22  and  O6_23 
REMARK    8  A    between atoms: C15_22  and  C16_25 
REMARK    9  A    between atoms: C16_25  and  O7_26 
REMARK   10  A    between atoms: C16_25  and  N2_28 
REMARK   11  A    between atoms: C19_31  and  C20_32 
REMARK   12  A    between atoms: C20_32  and  C21_34 
ROOT
HETATM    1  C5  UNL     1      -2.879   4.396  21.045  1.00  0.00     0.111 C 
ENDROOT
BRANCH   1   2
HETATM    2  C4  UNL     1      -4.122   4.753  20.207  1.00  0.00     0.020 C 
BRANCH   2   3
HETATM    3  C3  UNL     1      -5.155   3.701  20.365  1.00  0.00     0.027 C 
BRANCH   3   4
HETATM    4  C2  UNL     1      -6.454   4.332  20.749  1.00  0.00    -0.037 C 
HETATM    5  C1  UNL     1      -7.585   3.959  20.213  1.00  0.00     0.007 C 
ENDBRANCH   3   4
ENDBRANCH   2   3
ENDBRANCH   1   2
BRANCH   1   6
HETATM    6  C6  UNL     1      -1.735   4.269  20.136  1.00  0.00     0.231 C 
HETATM    7  O1  UNL     1      -1.522   5.313  19.402  1.00  0.00    -0.273 OA
HETATM    8  N1  UNL     1      -0.878   3.199  19.974  1.00  0.00    -0.295 N 
HETATM    9  C7  UNL     1      -0.960   1.959  20.592  1.00  0.00     0.253 C 
ATOM     10  H1  UNL     1      -0.099   3.335  19.330  1.00  0.00     0.171 HD
HETATM   11  O2  UNL     1      -1.822   1.611  21.405  1.00  0.00    -0.270 OA
BRANCH   9  12
HETATM   12  C8  UNL     1       0.081   0.937  20.254  1.00  0.00     0.219 C 
HETATM   13  C9  UNL     1       0.780   1.294  18.959  1.00  0.00     0.078 C 
HETATM   14  C10 UNL     1       0.473   0.108  18.086  1.00  0.00     0.183 C 
HETATM   15  O3  UNL     1       1.332  -0.965  18.334  1.00  0.00    -0.345 OA
HETATM   16  C14 UNL     1      -0.811  -0.424  18.732  1.00  0.00     0.293 C 
HETATM   17  C11 UNL     1       0.535  -2.081  18.092  1.00  0.00     0.160 C 
HETATM   18  C12 UNL     1       0.773  -2.479  16.649  1.00  0.00     0.078 C 
HETATM   19  C13 UNL     1       0.910  -3.230  19.033  1.00  0.00     0.078 C 
HETATM   20  O4  UNL     1      -0.771  -1.746  18.355  1.00  0.00    -0.324 OA
HETATM   21  O5  UNL     1      -0.501  -0.287  20.080  1.00  0.00    -0.344 OA
ENDBRANCH   9  12
ENDBRANCH   1   6
BRANCH   1  22
HETATM   22  C15 UNL     1      -2.622   5.449  22.082  1.00  0.00     0.180 C 
BRANCH  22  23
HETATM   23  O6  UNL     1      -3.547   6.497  21.775  1.00  0.00    -0.390 OA
ATOM     24  H6  UNL     1      -4.000   6.667  22.593  1.00  0.00     0.210 HD
ENDBRANCH  22  23
BRANCH  22  25
HETATM   25  C16 UNL     1      -2.838   5.086  23.514  1.00  0.00     0.253 C 
BRANCH  25  26
HETATM   26  O7  UNL     1      -4.123   4.592  23.711  1.00  0.00    -0.374 OA
ATOM     27  H7  UNL     1      -4.217   4.234  24.586  1.00  0.00     0.212 HD
ENDBRANCH  25  26
BRANCH  25  28
HETATM   28  N2  UNL     1      -1.920   4.071  23.913  1.00  0.00    -0.341 N 
HETATM   29  C17 UNL     1      -2.243   3.224  24.978  1.00  0.00     0.093 C 
HETATM   30  C18 UNL     1      -1.475   1.912  24.855  1.00  0.00     0.028 C 
HETATM   31  C19 UNL     1      -0.173   2.002  24.547  1.00  0.00    -0.006 C 
HETATM   32  C27 UNL     1       0.386   3.351  24.343  1.00  0.00     0.087 C 
HETATM   33  C28 UNL     1      -0.568   4.256  23.601  1.00  0.00     0.071 C 
BRANCH  31  34
HETATM   34  C20 UNL     1       0.619   0.765  24.417  1.00  0.00     0.160 C 
HETATM   35  O8  UNL     1       0.251  -0.124  23.584  1.00  0.00    -0.292 OA
BRANCH  34  36
HETATM   36  C21 UNL     1       1.811   0.528  25.218  1.00  0.00     0.060 C 
HETATM   37  C22 UNL     1       1.702   0.914  26.668  1.00  0.00     0.012 C 
HETATM   38  C23 UNL     1       0.734  -0.055  27.324  1.00  0.00     0.001 C 
HETATM   39  C24 UNL     1       1.206  -1.465  27.273  1.00  0.00     0.000 C 
HETATM   40  C25 UNL     1       1.624  -1.906  25.891  1.00  0.00     0.001 C 
HETATM   41  C26 UNL     1       2.347  -0.866  25.122  1.00  0.00     0.012 C 
ENDBRANCH  34  36
ENDBRANCH  31  34
ENDBRANCH  25  28
ENDBRANCH  22  25
ENDBRANCH   1  22
TORSDOF 12
ENDMDL
