MODEL 1
REMARK VINA RESULT: -7.491455173      0.000      0.000
REMARK  13 active torsions:
REMARK  status: ('A' for Active; 'I' for Inactive)
REMARK    1  A    between atoms: C4_4  and  C5_5 
REMARK    2  A    between atoms: C5_5  and  C7_7 
REMARK    3  A    between atoms: C13_16  and  C14_17 
REMARK    4  A    between atoms: C14_17  and  O2_18 
REMARK    5  A    between atoms: C14_17  and  C15_20 
REMARK    6  A    between atoms: C15_20  and  C16_21 
REMARK    7  A    between atoms: C19_25  and  C20_26 
REMARK    8  A    between atoms: C20_26  and  C21_27 
REMARK    9  A    between atoms: C21_27  and  C22_28 
REMARK   10  A    between atoms: C22_28  and  C23_29 
REMARK   11  A    between atoms: C23_29  and  C24_30 
REMARK   12  A    between atoms: C24_30  and  C25_31 
REMARK   13  A    between atoms: C25_31  and  C26_32 
ROOT
HETATM    1  C14 UNL     1      -0.916   2.172  26.473  1.00  0.00     0.133 C 
ENDROOT
BRANCH   1   2
HETATM    2  C13 UNL     1      -0.874   2.360  24.976  1.00  0.00     0.112 C 
HETATM    3  C10 UNL     1      -2.154   2.911  24.423  1.00  0.00     0.025 C 
HETATM    4  C9  UNL     1      -2.686   2.009  23.320  1.00  0.00     0.008 C 
HETATM    5  C11 UNL     1      -1.851   4.244  23.788  1.00  0.00     0.097 C 
HETATM    6  C8  UNL     1      -1.952   2.544  22.103  1.00  0.00     0.011 C 
HETATM    7  C7  UNL     1      -1.953   4.039  22.278  1.00  0.00     0.039 C 
HETATM    8  N1  UNL     1      -0.466   4.497  24.130  1.00  0.00    -0.355 N 
HETATM    9  C12 UNL     1       0.186   3.310  24.557  1.00  0.00     0.225 C 
ATOM     10  H1  UNL     1      -0.016   5.411  24.072  1.00  0.00     0.162 HD
HETATM   11  O1  UNL     1       1.428   3.075  24.587  1.00  0.00    -0.273 OA
BRANCH   7  12
HETATM   12  C5  UNL     1      -3.133   4.717  21.722  1.00  0.00    -0.054 C 
HETATM   13  C6  UNL     1      -4.132   5.166  22.442  1.00  0.00     0.017 C 
BRANCH  12  14
HETATM   14  C4  UNL     1      -3.215   4.904  20.226  1.00  0.00     0.165 C 
HETATM   15  C3  UNL     1      -3.848   6.224  19.888  1.00  0.00     0.081 C 
HETATM   16  C2  UNL     1      -2.720   7.185  19.722  1.00  0.00     0.011 C 
HETATM   17  C1  UNL     1      -2.828   8.487  19.623  1.00  0.00     0.025 C 
HETATM   18  C28 UNL     1      -1.526   6.350  19.703  1.00  0.00     0.289 C 
HETATM   19  O8  UNL     1      -1.918   5.021  19.667  1.00  0.00    -0.307 OA
HETATM   20  O9  UNL     1      -0.350   6.843  19.718  1.00  0.00    -0.260 OA
ENDBRANCH  12  14
ENDBRANCH   7  12
ENDBRANCH   1   2
BRANCH   1  21
HETATM   21  O2  UNL     1       0.381   2.346  27.006  1.00  0.00    -0.395 OA
ATOM     22  H2  UNL     1       0.347   2.962  27.728  1.00  0.00     0.210 HD
ENDBRANCH   1  21
BRANCH   1  23
HETATM   23  C15 UNL     1      -1.869   3.086  27.156  1.00  0.00     0.054 C 
BRANCH  23  24
HETATM   24  C16 UNL     1      -1.206   4.059  28.080  1.00  0.00     0.157 C 
HETATM   25  C17 UNL     1      -1.597   5.477  27.690  1.00  0.00     0.143 C 
HETATM   26  O3  UNL     1      -2.196   5.692  26.650  1.00  0.00    -0.297 OA
HETATM   27  C18 UNL     1      -1.200   6.541  28.656  1.00  0.00     0.111 C 
HETATM   28  C19 UNL     1      -2.057   6.331  29.908  1.00  0.00     0.139 C 
HETATM   29  O6  UNL     1      -2.470   4.975  29.978  1.00  0.00    -0.315 OA
HETATM   30  C27 UNL     1      -1.651   3.949  29.503  1.00  0.00     0.270 C 
HETATM   31  O7  UNL     1      -1.274   2.965  30.176  1.00  0.00    -0.264 OA
BRANCH  28  32
HETATM   32  C20 UNL     1      -3.166   7.322  29.853  1.00  0.00     0.033 C 
BRANCH  32  33
HETATM   33  C21 UNL     1      -4.540   6.744  29.703  1.00  0.00     0.006 C 
BRANCH  33  34
HETATM   34  C22 UNL     1      -4.982   6.994  28.250  1.00  0.00     0.027 C 
BRANCH  34  35
HETATM   35  C23 UNL     1      -6.218   7.768  28.117  1.00  0.00    -0.026 C 
BRANCH  35  36
HETATM   36  C24 UNL     1      -6.476   9.036  28.787  1.00  0.00     0.003 C 
BRANCH  36  37
HETATM   37  C25 UNL     1      -7.616   9.261  29.666  1.00  0.00     0.084 C 
BRANCH  37  38
HETATM   38  C26 UNL     1      -8.585  10.320  29.481  1.00  0.00     0.198 C 
HETATM   39  O4  UNL     1      -9.579  10.328  28.757  1.00  0.00    -0.645 OA
HETATM   40  O5  UNL     1      -8.392  11.537  30.225  1.00  0.00    -0.645 OA
ENDBRANCH  37  38
ENDBRANCH  36  37
ENDBRANCH  35  36
ENDBRANCH  34  35
ENDBRANCH  33  34
ENDBRANCH  32  33
ENDBRANCH  28  32
ENDBRANCH  23  24
ENDBRANCH   1  23
TORSDOF 13
ENDMDL
MODEL 2
REMARK VINA RESULT: -7.152090621      3.914      6.268
REMARK  13 active torsions:
REMARK  status: ('A' for Active; 'I' for Inactive)
REMARK    1  A    between atoms: C4_4  and  C5_5 
REMARK    2  A    between atoms: C5_5  and  C7_7 
REMARK    3  A    between atoms: C13_16  and  C14_17 
REMARK    4  A    between atoms: C14_17  and  O2_18 
REMARK    5  A    between atoms: C14_17  and  C15_20 
REMARK    6  A    between atoms: C15_20  and  C16_21 
REMARK    7  A    between atoms: C19_25  and  C20_26 
REMARK    8  A    between atoms: C20_26  and  C21_27 
REMARK    9  A    between atoms: C21_27  and  C22_28 
REMARK   10  A    between atoms: C22_28  and  C23_29 
REMARK   11  A    between atoms: C23_29  and  C24_30 
REMARK   12  A    between atoms: C24_30  and  C25_31 
REMARK   13  A    between atoms: C25_31  and  C26_32 
ROOT
HETATM    1  C14 UNL     1      -2.704   4.651  22.887  1.00  0.00     0.133 C 
ENDROOT
BRANCH   1   2
HETATM    2  C13 UNL     1      -3.661   4.638  21.720  1.00  0.00     0.112 C 
HETATM    3  C10 UNL     1      -4.846   3.747  21.948  1.00  0.00     0.025 C 
HETATM    4  C9  UNL     1      -4.977   2.740  20.816  1.00  0.00     0.008 C 
HETATM    5  C11 UNL     1      -6.085   4.604  21.915  1.00  0.00     0.097 C 
HETATM    6  C8  UNL     1      -5.786   3.523  19.798  1.00  0.00     0.011 C 
HETATM    7  C7  UNL     1      -6.807   4.273  20.610  1.00  0.00     0.039 C 
HETATM    8  N1  UNL     1      -5.581   5.960  21.835  1.00  0.00    -0.355 N 
HETATM    9  C12 UNL     1      -4.219   5.982  21.433  1.00  0.00     0.225 C 
ATOM     10  H1  UNL     1      -6.133   6.793  22.040  1.00  0.00     0.162 HD
HETATM   11  O1  UNL     1      -3.576   6.946  20.927  1.00  0.00    -0.273 OA
BRANCH   7  12
HETATM   12  C5  UNL     1      -8.052   3.531  20.859  1.00  0.00    -0.054 C 
HETATM   13  C6  UNL     1      -8.578   3.351  22.047  1.00  0.00     0.017 C 
BRANCH  12  14
HETATM   14  C4  UNL     1      -8.774   2.924  19.680  1.00  0.00     0.165 C 
HETATM   15  C3  UNL     1     -10.216   2.668  20.012  1.00  0.00     0.081 C 
HETATM   16  C2  UNL     1     -10.958   3.879  19.558  1.00  0.00     0.011 C 
HETATM   17  C1  UNL     1     -12.208   4.163  19.835  1.00  0.00     0.025 C 
HETATM   18  C28 UNL     1      -9.990   4.629  18.770  1.00  0.00     0.289 C 
HETATM   19  O8  UNL     1      -8.853   3.853  18.613  1.00  0.00    -0.307 OA
HETATM   20  O9  UNL     1     -10.230   5.804  18.334  1.00  0.00    -0.260 OA
ENDBRANCH  12  14
ENDBRANCH   7  12
ENDBRANCH   1   2
BRANCH   1  21
HETATM   21  O2  UNL     1      -2.962   5.782  23.694  1.00  0.00    -0.395 OA
ATOM     22  H2  UNL     1      -2.519   5.684  24.528  1.00  0.00     0.210 HD
ENDBRANCH   1  21
BRANCH   1  23
HETATM   23  C15 UNL     1      -2.765   3.418  23.714  1.00  0.00     0.054 C 
BRANCH  23  24
HETATM   24  C16 UNL     1      -1.421   2.826  24.005  1.00  0.00     0.157 C 
HETATM   25  C17 UNL     1      -0.884   3.403  25.306  1.00  0.00     0.143 C 
HETATM   26  O3  UNL     1      -1.442   4.343  25.846  1.00  0.00    -0.297 OA
HETATM   27  C18 UNL     1       0.339   2.742  25.845  1.00  0.00     0.111 C 
HETATM   28  C19 UNL     1      -0.089   1.342  26.297  1.00  0.00     0.139 C 
HETATM   29  O6  UNL     1      -1.245   0.945  25.576  1.00  0.00    -0.315 OA
HETATM   30  C27 UNL     1      -1.445   1.353  24.255  1.00  0.00     0.270 C 
HETATM   31  O7  UNL     1      -1.638   0.582  23.290  1.00  0.00    -0.264 OA
BRANCH  28  32
HETATM   32  C20 UNL     1      -0.256   1.388  27.774  1.00  0.00     0.033 C 
BRANCH  32  33
HETATM   33  C21 UNL     1       0.236   2.637  28.440  1.00  0.00     0.006 C 
BRANCH  33  34
HETATM   34  C22 UNL     1      -0.973   3.287  29.137  1.00  0.00     0.027 C 
BRANCH  34  35
HETATM   35  C23 UNL     1      -0.732   4.646  29.625  1.00  0.00    -0.026 C 
BRANCH  35  36
HETATM   36  C24 UNL     1      -1.197   5.857  28.963  1.00  0.00     0.003 C 
BRANCH  36  37
HETATM   37  C25 UNL     1      -0.970   7.197  29.490  1.00  0.00     0.084 C 
BRANCH  37  38
HETATM   38  C26 UNL     1      -1.938   7.936  30.271  1.00  0.00     0.198 C 
HETATM   39  O4  UNL     1      -1.735   8.810  31.112  1.00  0.00    -0.645 OA
HETATM   40  O5  UNL     1      -3.331   7.635  30.064  1.00  0.00    -0.645 OA
ENDBRANCH  37  38
ENDBRANCH  36  37
ENDBRANCH  35  36
ENDBRANCH  34  35
ENDBRANCH  33  34
ENDBRANCH  32  33
ENDBRANCH  28  32
ENDBRANCH  23  24
ENDBRANCH   1  23
TORSDOF 13
ENDMDL
MODEL 3
REMARK VINA RESULT: -7.109524884      2.190      2.830
REMARK  13 active torsions:
REMARK  status: ('A' for Active; 'I' for Inactive)
REMARK    1  A    between atoms: C4_4  and  C5_5 
REMARK    2  A    between atoms: C5_5  and  C7_7 
REMARK    3  A    between atoms: C13_16  and  C14_17 
REMARK    4  A    between atoms: C14_17  and  O2_18 
REMARK    5  A    between atoms: C14_17  and  C15_20 
REMARK    6  A    between atoms: C15_20  and  C16_21 
REMARK    7  A    between atoms: C19_25  and  C20_26 
REMARK    8  A    between atoms: C20_26  and  C21_27 
REMARK    9  A    between atoms: C21_27  and  C22_28 
REMARK   10  A    between atoms: C22_28  and  C23_29 
REMARK   11  A    between atoms: C23_29  and  C24_30 
REMARK   12  A    between atoms: C24_30  and  C25_31 
REMARK   13  A    between atoms: C25_31  and  C26_32 
ROOT
HETATM    1  C14 UNL     1      -1.016   2.107  26.419  1.00  0.00     0.133 C 
ENDROOT
BRANCH   1   2
HETATM    2  C13 UNL     1      -0.925   2.316  24.926  1.00  0.00     0.112 C 
HETATM    3  C10 UNL     1      -2.148   2.968  24.355  1.00  0.00     0.025 C 
HETATM    4  C9  UNL     1      -2.718   2.126  23.224  1.00  0.00     0.008 C 
HETATM    5  C11 UNL     1      -1.734   4.286  23.752  1.00  0.00     0.097 C 
HETATM    6  C8  UNL     1      -1.919   2.626  22.034  1.00  0.00     0.011 C 
HETATM    7  C7  UNL     1      -1.815   4.114  22.236  1.00  0.00     0.039 C 
HETATM    8  N1  UNL     1      -0.342   4.430  24.129  1.00  0.00    -0.355 N 
HETATM    9  C12 UNL     1       0.211   3.192  24.548  1.00  0.00     0.225 C 
ATOM     10  H1  UNL     1       0.174   5.309  24.097  1.00  0.00     0.162 HD
HETATM   11  O1  UNL     1       1.432   2.867  24.601  1.00  0.00    -0.273 OA
BRANCH   7  12
HETATM   12  C5  UNL     1      -2.929   4.885  21.666  1.00  0.00    -0.054 C 
HETATM   13  C6  UNL     1      -3.876   5.447  22.379  1.00  0.00     0.017 C 
BRANCH  12  14
HETATM   14  C4  UNL     1      -3.004   5.039  20.166  1.00  0.00     0.165 C 
HETATM   15  C3  UNL     1      -3.656   6.339  19.795  1.00  0.00     0.081 C 
HETATM   16  C2  UNL     1      -2.543   7.315  19.616  1.00  0.00     0.011 C 
HETATM   17  C1  UNL     1      -2.672   8.613  19.486  1.00  0.00     0.025 C 
HETATM   18  C28 UNL     1      -1.335   6.500  19.622  1.00  0.00     0.289 C 
HETATM   19  O8  UNL     1      -1.705   5.165  19.613  1.00  0.00    -0.307 OA
HETATM   20  O9  UNL     1      -0.167   7.013  19.634  1.00  0.00    -0.260 OA
ENDBRANCH  12  14
ENDBRANCH   7  12
ENDBRANCH   1   2
BRANCH   1  21
HETATM   21  O2  UNL     1       0.271   2.234  26.991  1.00  0.00    -0.395 OA
ATOM     22  H2  UNL     1       0.561   1.388  27.310  1.00  0.00     0.210 HD
ENDBRANCH   1  21
BRANCH   1  23
HETATM   23  C15 UNL     1      -1.961   3.037  27.088  1.00  0.00     0.054 C 
BRANCH  23  24
HETATM   24  C16 UNL     1      -1.301   3.959  28.066  1.00  0.00     0.157 C 
HETATM   25  C17 UNL     1      -1.605   5.401  27.690  1.00  0.00     0.143 C 
HETATM   26  O3  UNL     1      -2.140   5.666  26.626  1.00  0.00    -0.297 OA
HETATM   27  C18 UNL     1      -1.208   6.425  28.698  1.00  0.00     0.111 C 
HETATM   28  C19 UNL     1      -2.136   6.231  29.901  1.00  0.00     0.139 C 
HETATM   29  O6  UNL     1      -2.615   4.895  29.919  1.00  0.00    -0.315 OA
HETATM   30  C27 UNL     1      -1.822   3.840  29.462  1.00  0.00     0.270 C 
HETATM   31  O7  UNL     1      -1.526   2.827  30.131  1.00  0.00    -0.264 OA
BRANCH  28  32
HETATM   32  C20 UNL     1      -3.194   7.275  29.814  1.00  0.00     0.033 C 
BRANCH  32  33
HETATM   33  C21 UNL     1      -4.596   6.763  29.681  1.00  0.00     0.006 C 
BRANCH  33  34
HETATM   34  C22 UNL     1      -4.986   6.889  28.198  1.00  0.00     0.027 C 
BRANCH  34  35
HETATM   35  C23 UNL     1      -5.879   5.834  27.715  1.00  0.00    -0.026 C 
BRANCH  35  36
HETATM   36  C24 UNL     1      -5.434   4.580  27.122  1.00  0.00     0.003 C 
BRANCH  36  37
HETATM   37  C25 UNL     1      -5.229   4.397  25.691  1.00  0.00     0.084 C 
BRANCH  37  38
HETATM   38  C26 UNL     1      -6.273   4.014  24.765  1.00  0.00     0.198 C 
HETATM   39  O4  UNL     1      -6.482   2.911  24.263  1.00  0.00    -0.645 OA
HETATM   40  O5  UNL     1      -7.206   5.031  24.356  1.00  0.00    -0.645 OA
ENDBRANCH  37  38
ENDBRANCH  36  37
ENDBRANCH  35  36
ENDBRANCH  34  35
ENDBRANCH  33  34
ENDBRANCH  32  33
ENDBRANCH  28  32
ENDBRANCH  23  24
ENDBRANCH   1  23
TORSDOF 13
ENDMDL
MODEL 4
REMARK VINA RESULT: -7.001095786      4.825     11.426
REMARK  13 active torsions:
REMARK  status: ('A' for Active; 'I' for Inactive)
REMARK    1  A    between atoms: C4_4  and  C5_5 
REMARK    2  A    between atoms: C5_5  and  C7_7 
REMARK    3  A    between atoms: C13_16  and  C14_17 
REMARK    4  A    between atoms: C14_17  and  O2_18 
REMARK    5  A    between atoms: C14_17  and  C15_20 
REMARK    6  A    between atoms: C15_20  and  C16_21 
REMARK    7  A    between atoms: C19_25  and  C20_26 
REMARK    8  A    between atoms: C20_26  and  C21_27 
REMARK    9  A    between atoms: C21_27  and  C22_28 
REMARK   10  A    between atoms: C22_28  and  C23_29 
REMARK   11  A    between atoms: C23_29  and  C24_30 
REMARK   12  A    between atoms: C24_30  and  C25_31 
REMARK   13  A    between atoms: C25_31  and  C26_32 
ROOT
HETATM    1  C14 UNL     1      -1.317   2.758  20.736  1.00  0.00     0.133 C 
ENDROOT
BRANCH   1   2
HETATM    2  C13 UNL     1      -2.071   2.785  22.043  1.00  0.00     0.112 C 
HETATM    3  C10 UNL     1      -1.210   2.430  23.219  1.00  0.00     0.025 C 
HETATM    4  C9  UNL     1      -1.830   1.283  24.001  1.00  0.00     0.008 C 
HETATM    5  C11 UNL     1      -1.174   3.620  24.144  1.00  0.00     0.097 C 
HETATM    6  C8  UNL     1      -2.771   2.020  24.937  1.00  0.00     0.011 C 
HETATM    7  C7  UNL     1      -2.008   3.244  25.367  1.00  0.00     0.039 C 
HETATM    8  N1  UNL     1      -1.865   4.663  23.413  1.00  0.00    -0.355 N 
HETATM    9  C12 UNL     1      -2.630   4.126  22.345  1.00  0.00     0.225 C 
ATOM     10  H1  UNL     1      -1.809   5.657  23.638  1.00  0.00     0.162 HD
HETATM   11  O1  UNL     1      -3.604   4.661  21.743  1.00  0.00    -0.273 OA
BRANCH   7  12
HETATM   12  C5  UNL     1      -1.164   3.050  26.554  1.00  0.00    -0.054 C 
HETATM   13  C6  UNL     1       0.100   2.701  26.511  1.00  0.00     0.017 C 
BRANCH  12  14
HETATM   14  C4  UNL     1      -1.782   3.252  27.917  1.00  0.00     0.165 C 
HETATM   15  C3  UNL     1      -0.958   4.199  28.741  1.00  0.00     0.081 C 
HETATM   16  C2  UNL     1      -1.548   5.550  28.519  1.00  0.00     0.011 C 
HETATM   17  C1  UNL     1      -1.017   6.691  28.887  1.00  0.00     0.025 C 
HETATM   18  C28 UNL     1      -2.802   5.294  27.822  1.00  0.00     0.289 C 
HETATM   19  O8  UNL     1      -3.024   3.927  27.805  1.00  0.00    -0.307 OA
HETATM   20  O9  UNL     1      -3.517   6.233  27.339  1.00  0.00    -0.260 OA
ENDBRANCH  12  14
ENDBRANCH   7  12
ENDBRANCH   1   2
BRANCH   1  21
HETATM   21  O2  UNL     1      -0.097   3.456  20.882  1.00  0.00    -0.395 OA
ATOM     22  H2  UNL     1      -0.198   4.137  21.536  1.00  0.00     0.210 HD
ENDBRANCH   1  21
BRANCH   1  23
HETATM   23  C15 UNL     1      -1.056   1.385  20.233  1.00  0.00     0.054 C 
BRANCH  23  24
HETATM   24  C16 UNL     1       0.399   1.076  20.064  1.00  0.00     0.157 C 
HETATM   25  C17 UNL     1       0.738  -0.204  20.813  1.00  0.00     0.143 C 
HETATM   26  O3  UNL     1      -0.072  -0.714  21.569  1.00  0.00    -0.297 OA
HETATM   27  C18 UNL     1       2.095  -0.762  20.550  1.00  0.00     0.111 C 
HETATM   28  C19 UNL     1       2.086  -1.260  19.101  1.00  0.00     0.139 C 
HETATM   29  O6  UNL     1       1.098  -0.555  18.365  1.00  0.00    -0.315 OA
HETATM   30  C27 UNL     1       0.799   0.777  18.655  1.00  0.00     0.270 C 
HETATM   31  O7  UNL     1       0.843   1.716  17.831  1.00  0.00    -0.264 OA
BRANCH  28  32
HETATM   32  C20 UNL     1       1.901  -2.736  19.145  1.00  0.00     0.033 C 
BRANCH  32  33
HETATM   33  C21 UNL     1       2.875  -3.533  18.332  1.00  0.00     0.006 C 
BRANCH  33  34
HETATM   34  C22 UNL     1       2.060  -4.550  17.515  1.00  0.00     0.027 C 
BRANCH  34  35
HETATM   35  C23 UNL     1       0.763  -4.053  17.050  1.00  0.00    -0.026 C 
BRANCH  35  36
HETATM   36  C24 UNL     1       0.510  -3.520  15.718  1.00  0.00     0.003 C 
BRANCH  36  37
HETATM   37  C25 UNL     1       0.224  -2.116  15.457  1.00  0.00     0.084 C 
BRANCH  37  38
HETATM   38  C26 UNL     1      -1.109  -1.554  15.413  1.00  0.00     0.198 C 
HETATM   39  O4  UNL     1      -1.457  -0.395  15.632  1.00  0.00    -0.645 OA
HETATM   40  O5  UNL     1      -2.194  -2.438  15.072  1.00  0.00    -0.645 OA
ENDBRANCH  37  38
ENDBRANCH  36  37
ENDBRANCH  35  36
ENDBRANCH  34  35
ENDBRANCH  33  34
ENDBRANCH  32  33
ENDBRANCH  28  32
ENDBRANCH  23  24
ENDBRANCH   1  23
TORSDOF 13
ENDMDL
MODEL 5
REMARK VINA RESULT: -6.981284598      3.430      5.766
REMARK  13 active torsions:
REMARK  status: ('A' for Active; 'I' for Inactive)
REMARK    1  A    between atoms: C4_4  and  C5_5 
REMARK    2  A    between atoms: C5_5  and  C7_7 
REMARK    3  A    between atoms: C13_16  and  C14_17 
REMARK    4  A    between atoms: C14_17  and  O2_18 
REMARK    5  A    between atoms: C14_17  and  C15_20 
REMARK    6  A    between atoms: C15_20  and  C16_21 
REMARK    7  A    between atoms: C19_25  and  C20_26 
REMARK    8  A    between atoms: C20_26  and  C21_27 
REMARK    9  A    between atoms: C21_27  and  C22_28 
REMARK   10  A    between atoms: C22_28  and  C23_29 
REMARK   11  A    between atoms: C23_29  and  C24_30 
REMARK   12  A    between atoms: C24_30  and  C25_31 
REMARK   13  A    between atoms: C25_31  and  C26_32 
ROOT
HETATM    1  C14 UNL     1      -5.021   4.673  23.445  1.00  0.00     0.133 C 
ENDROOT
BRANCH   1   2
HETATM    2  C13 UNL     1      -3.643   4.514  22.849  1.00  0.00     0.112 C 
HETATM    3  C10 UNL     1      -3.290   3.083  22.574  1.00  0.00     0.025 C 
HETATM    4  C9  UNL     1      -1.978   2.721  23.253  1.00  0.00     0.008 C 
HETATM    5  C11 UNL     1      -3.068   2.935  21.090  1.00  0.00     0.097 C 
HETATM    6  C8  UNL     1      -0.962   3.152  22.211  1.00  0.00     0.011 C 
HETATM    7  C7  UNL     1      -1.565   2.748  20.892  1.00  0.00     0.039 C 
HETATM    8  N1  UNL     1      -3.452   4.221  20.541  1.00  0.00    -0.355 N 
HETATM    9  C12 UNL     1      -3.505   5.218  21.550  1.00  0.00     0.225 C 
ATOM     10  H1  UNL     1      -3.657   4.387  19.556  1.00  0.00     0.162 HD
HETATM   11  O1  UNL     1      -3.451   6.472  21.403  1.00  0.00    -0.273 OA
BRANCH   7  12
HETATM   12  C5  UNL     1      -1.245   1.377  20.471  1.00  0.00    -0.054 C 
HETATM   13  C6  UNL     1      -2.121   0.535  19.976  1.00  0.00     0.017 C 
BRANCH  12  14
HETATM   14  C4  UNL     1       0.177   0.892  20.622  1.00  0.00     0.165 C 
HETATM   15  C3  UNL     1       0.328  -0.498  20.073  1.00  0.00     0.081 C 
HETATM   16  C2  UNL     1       0.770  -0.331  18.659  1.00  0.00     0.011 C 
HETATM   17  C1  UNL     1       0.826  -1.278  17.755  1.00  0.00     0.025 C 
HETATM   18  C28 UNL     1       1.105   1.082  18.543  1.00  0.00     0.289 C 
HETATM   19  O8  UNL     1       1.051   1.652  19.805  1.00  0.00    -0.307 OA
HETATM   20  O9  UNL     1       1.390   1.625  17.425  1.00  0.00    -0.260 OA
ENDBRANCH  12  14
ENDBRANCH   7  12
ENDBRANCH   1   2
BRANCH   1  21
HETATM   21  O2  UNL     1      -5.881   5.261  22.490  1.00  0.00    -0.395 OA
ATOM     22  H2  UNL     1      -5.381   5.838  21.926  1.00  0.00     0.210 HD
ENDBRANCH   1  21
BRANCH   1  23
HETATM   23  C15 UNL     1      -5.604   3.396  23.932  1.00  0.00     0.054 C 
BRANCH  23  24
HETATM   24  C16 UNL     1      -6.170   3.486  25.315  1.00  0.00     0.157 C 
HETATM   25  C17 UNL     1      -5.122   3.039  26.323  1.00  0.00     0.143 C 
HETATM   26  O3  UNL     1      -4.086   2.515  25.950  1.00  0.00    -0.297 OA
HETATM   27  C18 UNL     1      -5.459   3.288  27.753  1.00  0.00     0.111 C 
HETATM   28  C19 UNL     1      -5.426   4.808  27.947  1.00  0.00     0.139 C 
HETATM   29  O6  UNL     1      -5.663   5.449  26.702  1.00  0.00    -0.315 OA
HETATM   30  C27 UNL     1      -6.505   4.877  25.747  1.00  0.00     0.270 C 
HETATM   31  O7  UNL     1      -7.500   5.441  25.242  1.00  0.00    -0.264 OA
BRANCH  28  32
HETATM   32  C20 UNL     1      -4.125   5.142  28.587  1.00  0.00     0.033 C 
BRANCH  32  33
HETATM   33  C21 UNL     1      -3.144   5.865  27.715  1.00  0.00     0.006 C 
BRANCH  33  34
HETATM   34  C22 UNL     1      -1.745   5.627  28.312  1.00  0.00     0.027 C 
BRANCH  34  35
HETATM   35  C23 UNL     1      -1.113   6.825  28.869  1.00  0.00    -0.026 C 
BRANCH  35  36
HETATM   36  C24 UNL     1      -1.698   7.663  29.906  1.00  0.00     0.003 C 
BRANCH  36  37
HETATM   37  C25 UNL     1      -0.907   8.482  30.816  1.00  0.00     0.084 C 
BRANCH  37  38
HETATM   38  C26 UNL     1      -1.139   8.563  32.242  1.00  0.00     0.198 C 
HETATM   39  O4  UNL     1      -2.085   8.115  32.889  1.00  0.00    -0.645 OA
HETATM   40  O5  UNL     1      -0.158   9.251  33.039  1.00  0.00    -0.645 OA
ENDBRANCH  37  38
ENDBRANCH  36  37
ENDBRANCH  35  36
ENDBRANCH  34  35
ENDBRANCH  33  34
ENDBRANCH  32  33
ENDBRANCH  28  32
ENDBRANCH  23  24
ENDBRANCH   1  23
TORSDOF 13
ENDMDL
