MODEL 1
REMARK VINA RESULT: -6.296883432      0.000      0.000
REMARK  14 active torsions:
REMARK  status: ('A' for Active; 'I' for Inactive)
REMARK    1  A    between atoms: C3_3  and  C4_4 
REMARK    2  A    between atoms: C4_4  and  O1_5 
REMARK    3  A    between atoms: C5_7  and  C6_8 
REMARK    4  A    between atoms: C6_8  and  C8_10 
REMARK    5  A    between atoms: C8_10  and  N1_11 
REMARK    6  A    between atoms: N3_18  and  C14_19 
REMARK    7  A    between atoms: C14_19  and  C15_20 
REMARK    8  A    between atoms: C15_20  and  O2_21 
REMARK    9  A    between atoms: C15_20  and  C16_23 
REMARK   10  A    between atoms: C16_23  and  N4_24 
REMARK   11  A    between atoms: C19_27  and  C20_28 
REMARK   12  A    between atoms: C20_28  and  O3_31 
REMARK   13  A    between atoms: C25_35  and  C26_36 
REMARK   14  A    between atoms: C26_36  and  N5_37 
ROOT
HETATM    1  C1  UNL     1       0.072  -0.074  21.698  1.00  0.00     0.051 C 
HETATM    2  C2  UNL     1      -0.537   1.286  21.865  1.00  0.00    -0.027 A 
HETATM    3  C3  UNL     1      -0.995   2.046  20.803  1.00  0.00    -0.004 A 
HETATM    4  C5  UNL     1      -1.492   3.228  21.359  1.00  0.00     0.026 A 
HETATM    5  N3  UNL     1      -1.299   3.180  22.708  1.00  0.00    -0.348 N 
HETATM    6  C25 UNL     1      -0.750   2.005  23.017  1.00  0.00     0.046 A 
ENDROOT
BRANCH   5   7
HETATM    7  C14 UNL     1      -1.387   4.300  23.670  1.00  0.00     0.166 C 
BRANCH   7   8
HETATM    8  C15 UNL     1      -2.793   4.386  24.320  1.00  0.00     0.175 C 
BRANCH   8   9
HETATM    9  O2  UNL     1      -2.983   5.764  24.471  1.00  0.00    -0.389 OA
ATOM     10  H2  UNL     1      -3.875   5.889  24.170  1.00  0.00     0.210 HD
ENDBRANCH   8   9
BRANCH   8  11
HETATM   11  C16 UNL     1      -2.765   3.686  25.643  1.00  0.00     0.096 C 
BRANCH  11  12
HETATM   12  N4  UNL     1      -2.482   4.458  26.778  1.00  0.00    -0.371 N 
HETATM   13  C17 UNL     1      -1.208   4.408  27.358  1.00  0.00     0.063 C 
HETATM   14  C18 UNL     1      -1.235   5.157  28.686  1.00  0.00     0.052 C 
HETATM   15  C19 UNL     1      -2.093   6.387  28.598  1.00  0.00     0.025 C 
HETATM   16  C23 UNL     1      -3.493   6.126  28.077  1.00  0.00     0.028 C 
HETATM   17  C24 UNL     1      -3.591   4.667  27.680  1.00  0.00     0.127 C 
BRANCH  15  18
HETATM   18  C20 UNL     1      -2.235   7.029  29.928  1.00  0.00     0.054 C 
HETATM   19  C21 UNL     1      -2.324   6.011  31.062  1.00  0.00     0.045 C 
HETATM   20  C22 UNL     1      -1.200   8.050  30.284  1.00  0.00     0.045 C 
BRANCH  18  21
HETATM   21  O3  UNL     1      -3.478   7.733  29.919  1.00  0.00    -0.390 OA
ATOM     22  H3  UNL     1      -3.924   7.517  30.729  1.00  0.00     0.210 HD
ENDBRANCH  18  21
ENDBRANCH  15  18
ENDBRANCH  11  12
ENDBRANCH   8  11
ENDBRANCH   7   8
ENDBRANCH   5   7
BRANCH   4  23
HETATM   23  C6  UNL     1      -2.302   4.190  20.606  1.00  0.00     0.060 C 
HETATM   24  C7  UNL     1      -1.865   5.600  20.460  1.00  0.00     0.018 C 
BRANCH  23  25
HETATM   25  C8  UNL     1      -3.729   4.348  21.195  1.00  0.00     0.282 C 
BRANCH  25  26
HETATM   26  N1  UNL     1      -4.592   3.325  20.593  1.00  0.00     0.092 N 
HETATM   27  C9  UNL     1      -5.074   2.318  21.473  1.00  0.00     0.302 C 
HETATM   28  C10 UNL     1      -6.553   2.032  21.268  1.00  0.00     0.302 C 
HETATM   29  N2  UNL     1      -7.340   3.223  21.402  1.00  0.00     0.087 N 
HETATM   30  C11 UNL     1      -7.515   3.605  22.798  1.00  0.00     0.310 C 
HETATM   31  C12 UNL     1      -6.836   4.299  20.581  1.00  0.00     0.302 C 
HETATM   32  C13 UNL     1      -5.614   3.925  19.784  1.00  0.00     0.302 C 
ENDBRANCH  25  26
ENDBRANCH  23  25
ENDBRANCH   4  23
BRANCH   6  33
HETATM   33  C26 UNL     1      -0.354   1.430  24.345  1.00  0.00     0.330 C 
BRANCH  33  34
HETATM   34  N5  UNL     1       1.052   1.416  24.540  1.00  0.00     0.094 N 
HETATM   35  C27 UNL     1       1.541   0.182  25.092  1.00  0.00     0.273 C 
HETATM   36  C28 UNL     1       0.659   0.000  26.301  1.00  0.00     0.032 C 
HETATM   37  C29 UNL     1       0.694   1.431  26.875  1.00  0.00     0.032 C 
HETATM   38  C30 UNL     1       1.282   2.276  25.797  1.00  0.00     0.273 C 
ENDBRANCH  33  34
ENDBRANCH   6  33
BRANCH   3  39
HETATM   39  C4  UNL     1      -0.971   1.566  19.409  1.00  0.00     0.205 C 
BRANCH  39  40
HETATM   40  O1  UNL     1      -0.073   2.424  18.659  1.00  0.00    -0.396 OA
ATOM     41  H1  UNL     1      -0.571   2.822  17.955  1.00  0.00     0.209 HD
ENDBRANCH  39  40
ENDBRANCH   3  39
TORSDOF 14
ENDMDL
MODEL 2
REMARK VINA RESULT: -6.242141309      4.900      9.184
REMARK  14 active torsions:
REMARK  status: ('A' for Active; 'I' for Inactive)
REMARK    1  A    between atoms: C3_3  and  C4_4 
REMARK    2  A    between atoms: C4_4  and  O1_5 
REMARK    3  A    between atoms: C5_7  and  C6_8 
REMARK    4  A    between atoms: C6_8  and  C8_10 
REMARK    5  A    between atoms: C8_10  and  N1_11 
REMARK    6  A    between atoms: N3_18  and  C14_19 
REMARK    7  A    between atoms: C14_19  and  C15_20 
REMARK    8  A    between atoms: C15_20  and  O2_21 
REMARK    9  A    between atoms: C15_20  and  C16_23 
REMARK   10  A    between atoms: C16_23  and  N4_24 
REMARK   11  A    between atoms: C19_27  and  C20_28 
REMARK   12  A    between atoms: C20_28  and  O3_31 
REMARK   13  A    between atoms: C25_35  and  C26_36 
REMARK   14  A    between atoms: C26_36  and  N5_37 
ROOT
HETATM    1  C1  UNL     1      -4.220  -2.465  17.750  1.00  0.00     0.051 C 
HETATM    2  C2  UNL     1      -3.372  -1.420  18.410  1.00  0.00    -0.027 A 
HETATM    3  C3  UNL     1      -3.784  -0.697  19.516  1.00  0.00    -0.004 A 
HETATM    4  C5  UNL     1      -2.727   0.159  19.835  1.00  0.00     0.026 A 
HETATM    5  N3  UNL     1      -1.734  -0.029  18.921  1.00  0.00    -0.348 N 
HETATM    6  C25 UNL     1      -2.107  -0.994  18.080  1.00  0.00     0.046 A 
ENDROOT
BRANCH   5   7
HETATM    7  C14 UNL     1      -0.563   0.840  18.672  1.00  0.00     0.166 C 
BRANCH   7   8
HETATM    8  C15 UNL     1       0.558   0.603  19.716  1.00  0.00     0.175 C 
BRANCH   8   9
HETATM    9  O2  UNL     1       0.855   1.897  20.156  1.00  0.00    -0.389 OA
ATOM     10  H2  UNL     1       1.119   2.337  19.357  1.00  0.00     0.210 HD
ENDBRANCH   8   9
BRANCH   8  11
HETATM   11  C16 UNL     1       1.733  -0.031  19.038  1.00  0.00     0.096 C 
BRANCH  11  12
HETATM   12  N4  UNL     1       2.374  -1.085  19.705  1.00  0.00    -0.371 N 
HETATM   13  C17 UNL     1       1.634  -1.944  20.528  1.00  0.00     0.063 C 
HETATM   14  C18 UNL     1       2.593  -2.848  21.295  1.00  0.00     0.052 C 
HETATM   15  C19 UNL     1       3.751  -3.266  20.434  1.00  0.00     0.025 C 
HETATM   16  C23 UNL     1       4.480  -2.109  19.777  1.00  0.00     0.028 C 
HETATM   17  C24 UNL     1       3.739  -0.829  20.104  1.00  0.00     0.127 C 
BRANCH  15  18
HETATM   18  C20 UNL     1       4.754  -4.020  21.224  1.00  0.00     0.054 C 
HETATM   19  C21 UNL     1       4.713  -3.668  22.709  1.00  0.00     0.045 C 
HETATM   20  C22 UNL     1       4.719  -5.510  21.088  1.00  0.00     0.045 C 
BRANCH  18  21
HETATM   21  O3  UNL     1       6.042  -3.624  20.751  1.00  0.00    -0.390 OA
ATOM     22  H3  UNL     1       6.665  -4.261  21.077  1.00  0.00     0.210 HD
ENDBRANCH  18  21
ENDBRANCH  15  18
ENDBRANCH  11  12
ENDBRANCH   8  11
ENDBRANCH   7   8
ENDBRANCH   5   7
BRANCH   4  23
HETATM   23  C6  UNL     1      -2.653   0.909  21.093  1.00  0.00     0.060 C 
HETATM   24  C7  UNL     1      -3.325   0.407  22.316  1.00  0.00     0.018 C 
BRANCH  23  25
HETATM   25  C8  UNL     1      -3.236   2.341  20.962  1.00  0.00     0.282 C 
BRANCH  25  26
HETATM   26  N1  UNL     1      -2.173   3.302  21.282  1.00  0.00     0.092 N 
HETATM   27  C9  UNL     1      -1.779   4.172  20.228  1.00  0.00     0.302 C 
HETATM   28  C10 UNL     1      -1.629   5.611  20.695  1.00  0.00     0.302 C 
HETATM   29  N2  UNL     1      -2.832   6.092  21.308  1.00  0.00     0.087 N 
HETATM   30  C11 UNL     1      -3.852   6.423  20.320  1.00  0.00     0.310 C 
HETATM   31  C12 UNL     1      -3.311   5.194  22.334  1.00  0.00     0.302 C 
HETATM   32  C13 UNL     1      -2.445   3.976  22.519  1.00  0.00     0.302 C 
ENDBRANCH  25  26
ENDBRANCH  23  25
ENDBRANCH   4  23
BRANCH   6  33
HETATM   33  C26 UNL     1      -1.390  -1.604  16.912  1.00  0.00     0.330 C 
BRANCH  33  34
HETATM   34  N5  UNL     1      -0.430  -2.574  17.303  1.00  0.00     0.094 N 
HETATM   35  C27 UNL     1       0.770  -2.542  16.511  1.00  0.00     0.273 C 
HETATM   36  C28 UNL     1       0.229  -2.612  15.106  1.00  0.00     0.032 C 
HETATM   37  C29 UNL     1      -0.821  -3.728  15.279  1.00  0.00     0.032 C 
HETATM   38  C30 UNL     1      -0.971  -3.907  16.751  1.00  0.00     0.273 C 
ENDBRANCH  33  34
ENDBRANCH   6  33
BRANCH   3  39
HETATM   39  C4  UNL     1      -5.081  -0.924  20.179  1.00  0.00     0.205 C 
BRANCH  39  40
HETATM   40  O1  UNL     1      -6.052  -0.029  19.576  1.00  0.00    -0.396 OA
ATOM     41  H1  UNL     1      -6.693   0.195  20.241  1.00  0.00     0.209 HD
ENDBRANCH  39  40
ENDBRANCH   3  39
TORSDOF 14
ENDMDL
MODEL 3
REMARK VINA RESULT: -6.238814138      2.577      7.979
REMARK  14 active torsions:
REMARK  status: ('A' for Active; 'I' for Inactive)
REMARK    1  A    between atoms: C3_3  and  C4_4 
REMARK    2  A    between atoms: C4_4  and  O1_5 
REMARK    3  A    between atoms: C5_7  and  C6_8 
REMARK    4  A    between atoms: C6_8  and  C8_10 
REMARK    5  A    between atoms: C8_10  and  N1_11 
REMARK    6  A    between atoms: N3_18  and  C14_19 
REMARK    7  A    between atoms: C14_19  and  C15_20 
REMARK    8  A    between atoms: C15_20  and  O2_21 
REMARK    9  A    between atoms: C15_20  and  C16_23 
REMARK   10  A    between atoms: C16_23  and  N4_24 
REMARK   11  A    between atoms: C19_27  and  C20_28 
REMARK   12  A    between atoms: C20_28  and  O3_31 
REMARK   13  A    between atoms: C25_35  and  C26_36 
REMARK   14  A    between atoms: C26_36  and  N5_37 
ROOT
HETATM    1  C1  UNL     1      -1.891   3.460  27.543  1.00  0.00     0.051 C 
HETATM    2  C2  UNL     1      -1.860   3.626  26.053  1.00  0.00    -0.027 A 
HETATM    3  C3  UNL     1      -2.893   4.203  25.334  1.00  0.00    -0.004 A 
HETATM    4  C5  UNL     1      -2.490   4.184  23.996  1.00  0.00     0.026 A 
HETATM    5  N3  UNL     1      -1.270   3.581  23.925  1.00  0.00    -0.348 N 
HETATM    6  C25 UNL     1      -0.878   3.269  25.161  1.00  0.00     0.046 A 
ENDROOT
BRANCH   5   7
HETATM    7  C14 UNL     1      -0.586   3.073  22.716  1.00  0.00     0.166 C 
BRANCH   7   8
HETATM    8  C15 UNL     1      -1.260   1.785  22.176  1.00  0.00     0.175 C 
BRANCH   8   9
HETATM    9  O2  UNL     1      -0.310   0.796  22.450  1.00  0.00    -0.389 OA
ATOM     10  H2  UNL     1      -0.758  -0.003  22.200  1.00  0.00     0.210 HD
ENDBRANCH   8   9
BRANCH   8  11
HETATM   11  C16 UNL     1      -1.492   1.933  20.704  1.00  0.00     0.096 C 
BRANCH  11  12
HETATM   12  N4  UNL     1      -0.839   1.031  19.852  1.00  0.00    -0.371 N 
HETATM   13  C17 UNL     1       0.154   1.491  18.977  1.00  0.00     0.063 C 
HETATM   14  C18 UNL     1       0.537   0.365  18.023  1.00  0.00     0.052 C 
HETATM   15  C19 UNL     1       0.558  -0.961  18.729  1.00  0.00     0.025 C 
HETATM   16  C23 UNL     1      -0.719  -1.278  19.483  1.00  0.00     0.028 C 
HETATM   17  C24 UNL     1      -1.640  -0.079  19.391  1.00  0.00     0.127 C 
BRANCH  15  18
HETATM   18  C20 UNL     1       0.785  -2.069  17.770  1.00  0.00     0.054 C 
HETATM   19  C21 UNL     1       2.153  -2.722  17.943  1.00  0.00     0.045 C 
HETATM   20  C22 UNL     1      -0.256  -3.145  17.744  1.00  0.00     0.045 C 
BRANCH  18  21
HETATM   21  O3  UNL     1       0.773  -1.496  16.462  1.00  0.00    -0.390 OA
ATOM     22  H3  UNL     1       1.321  -2.046  15.914  1.00  0.00     0.210 HD
ENDBRANCH  18  21
ENDBRANCH  15  18
ENDBRANCH  11  12
ENDBRANCH   8  11
ENDBRANCH   7   8
ENDBRANCH   5   7
BRANCH   4  23
HETATM   23  C6  UNL     1      -3.180   4.931  22.940  1.00  0.00     0.060 C 
HETATM   24  C7  UNL     1      -4.056   4.236  21.966  1.00  0.00     0.018 C 
BRANCH  23  25
HETATM   25  C8  UNL     1      -2.193   5.689  22.012  1.00  0.00     0.282 C 
BRANCH  25  26
HETATM   26  N1  UNL     1      -2.856   5.916  20.722  1.00  0.00     0.092 N 
HETATM   27  C9  UNL     1      -3.552   7.149  20.585  1.00  0.00     0.302 C 
HETATM   28  C10 UNL     1      -3.275   7.821  19.250  1.00  0.00     0.302 C 
HETATM   29  N2  UNL     1      -1.871   8.022  19.046  1.00  0.00     0.087 N 
HETATM   30  C11 UNL     1      -1.364   9.148  19.821  1.00  0.00     0.310 C 
HETATM   31  C12 UNL     1      -1.116   6.808  19.253  1.00  0.00     0.302 C 
HETATM   32  C13 UNL     1      -1.969   5.627  19.631  1.00  0.00     0.302 C 
ENDBRANCH  25  26
ENDBRANCH  23  25
ENDBRANCH   4  23
BRANCH   6  33
HETATM   33  C26 UNL     1       0.381   2.617  25.651  1.00  0.00     0.330 C 
BRANCH  33  34
HETATM   34  N5  UNL     1       0.307   1.199  25.638  1.00  0.00     0.094 N 
HETATM   35  C27 UNL     1       0.107   0.625  26.940  1.00  0.00     0.273 C 
HETATM   36  C28 UNL     1       1.208   1.265  27.746  1.00  0.00     0.032 C 
HETATM   37  C29 UNL     1       2.383   1.113  26.759  1.00  0.00     0.032 C 
HETATM   38  C30 UNL     1       1.764   0.732  25.459  1.00  0.00     0.273 C 
ENDBRANCH  33  34
ENDBRANCH   6  33
BRANCH   3  39
HETATM   39  C4  UNL     1      -4.102   4.752  25.975  1.00  0.00     0.205 C 
BRANCH  39  40
HETATM   40  O1  UNL     1      -3.853   6.152  26.267  1.00  0.00    -0.396 OA
ATOM     41  H1  UNL     1      -4.655   6.632  26.098  1.00  0.00     0.209 HD
ENDBRANCH  39  40
ENDBRANCH   3  39
TORSDOF 14
ENDMDL
MODEL 4
REMARK VINA RESULT: -6.178658781      2.270      4.812
REMARK  14 active torsions:
REMARK  status: ('A' for Active; 'I' for Inactive)
REMARK    1  A    between atoms: C3_3  and  C4_4 
REMARK    2  A    between atoms: C4_4  and  O1_5 
REMARK    3  A    between atoms: C5_7  and  C6_8 
REMARK    4  A    between atoms: C6_8  and  C8_10 
REMARK    5  A    between atoms: C8_10  and  N1_11 
REMARK    6  A    between atoms: N3_18  and  C14_19 
REMARK    7  A    between atoms: C14_19  and  C15_20 
REMARK    8  A    between atoms: C15_20  and  O2_21 
REMARK    9  A    between atoms: C15_20  and  C16_23 
REMARK   10  A    between atoms: C16_23  and  N4_24 
REMARK   11  A    between atoms: C19_27  and  C20_28 
REMARK   12  A    between atoms: C20_28  and  O3_31 
REMARK   13  A    between atoms: C25_35  and  C26_36 
REMARK   14  A    between atoms: C26_36  and  N5_37 
ROOT
HETATM    1  C1  UNL     1      -3.050   0.039  20.004  1.00  0.00     0.051 C 
HETATM    2  C2  UNL     1      -2.985   1.290  20.827  1.00  0.00    -0.027 A 
HETATM    3  C3  UNL     1      -1.812   1.989  21.052  1.00  0.00    -0.004 A 
HETATM    4  C5  UNL     1      -2.161   3.084  21.847  1.00  0.00     0.026 A 
HETATM    5  N3  UNL     1      -3.496   3.013  22.111  1.00  0.00    -0.348 N 
HETATM    6  C25 UNL     1      -3.998   1.952  21.480  1.00  0.00     0.046 A 
ENDROOT
BRANCH   5   7
HETATM    7  C14 UNL     1      -4.253   3.766  23.135  1.00  0.00     0.166 C 
BRANCH   7   8
HETATM    8  C15 UNL     1      -3.782   3.412  24.570  1.00  0.00     0.175 C 
BRANCH   8   9
HETATM    9  O2  UNL     1      -4.205   2.087  24.719  1.00  0.00    -0.389 OA
ATOM     10  H2  UNL     1      -5.112   2.182  24.981  1.00  0.00     0.210 HD
ENDBRANCH   8   9
BRANCH   8  11
HETATM   11  C16 UNL     1      -4.463   4.320  25.547  1.00  0.00     0.096 C 
BRANCH  11  12
HETATM   12  N4  UNL     1      -3.677   4.884  26.562  1.00  0.00    -0.371 N 
HETATM   13  C17 UNL     1      -2.282   4.765  26.512  1.00  0.00     0.063 C 
HETATM   14  C18 UNL     1      -1.693   5.263  27.828  1.00  0.00     0.052 C 
HETATM   15  C19 UNL     1      -2.438   6.464  28.337  1.00  0.00     0.025 C 
HETATM   16  C23 UNL     1      -3.937   6.262  28.438  1.00  0.00     0.028 C 
HETATM   17  C24 UNL     1      -4.275   4.896  27.877  1.00  0.00     0.127 C 
BRANCH  15  18
HETATM   18  C20 UNL     1      -1.958   6.853  29.685  1.00  0.00     0.054 C 
HETATM   19  C21 UNL     1      -1.972   5.686  30.669  1.00  0.00     0.045 C 
HETATM   20  C22 UNL     1      -0.615   7.510  29.746  1.00  0.00     0.045 C 
BRANCH  18  21
HETATM   21  O3  UNL     1      -2.879   7.820  30.193  1.00  0.00    -0.390 OA
ATOM     22  H3  UNL     1      -2.493   8.184  30.980  1.00  0.00     0.210 HD
ENDBRANCH  18  21
ENDBRANCH  15  18
ENDBRANCH  11  12
ENDBRANCH   8  11
ENDBRANCH   7   8
ENDBRANCH   5   7
BRANCH   4  23
HETATM   23  C6  UNL     1      -1.260   4.214  22.096  1.00  0.00     0.060 C 
HETATM   24  C7  UNL     1      -0.502   4.315  23.366  1.00  0.00     0.018 C 
BRANCH  23  25
HETATM   25  C8  UNL     1      -1.997   5.579  22.043  1.00  0.00     0.282 C 
BRANCH  25  26
HETATM   26  N1  UNL     1      -2.665   5.692  20.741  1.00  0.00     0.092 N 
HETATM   27  C9  UNL     1      -3.568   6.781  20.595  1.00  0.00     0.302 C 
HETATM   28  C10 UNL     1      -3.392   7.502  19.268  1.00  0.00     0.302 C 
HETATM   29  N2  UNL     1      -2.043   7.954  19.092  1.00  0.00     0.087 N 
HETATM   30  C11 UNL     1      -1.762   9.147  19.882  1.00  0.00     0.310 C 
HETATM   31  C12 UNL     1      -1.086   6.894  19.310  1.00  0.00     0.302 C 
HETATM   32  C13 UNL     1      -1.721   5.576  19.667  1.00  0.00     0.302 C 
ENDBRANCH  25  26
ENDBRANCH  23  25
ENDBRANCH   4  23
BRANCH   6  33
HETATM   33  C26 UNL     1      -5.402   1.427  21.415  1.00  0.00     0.330 C 
BRANCH  33  34
HETATM   34  N5  UNL     1      -6.090   1.843  20.245  1.00  0.00     0.094 N 
HETATM   35  C27 UNL     1      -6.799   3.083  20.408  1.00  0.00     0.273 C 
HETATM   36  C28 UNL     1      -7.613   2.825  21.650  1.00  0.00     0.032 C 
HETATM   37  C29 UNL     1      -8.139   1.410  21.336  1.00  0.00     0.032 C 
HETATM   38  C30 UNL     1      -7.333   0.935  20.176  1.00  0.00     0.273 C 
ENDBRANCH  33  34
ENDBRANCH   6  33
BRANCH   3  39
HETATM   39  C4  UNL     1      -0.521   1.593  20.460  1.00  0.00     0.205 C 
BRANCH  39  40
HETATM   40  O1  UNL     1      -0.362   2.321  19.215  1.00  0.00    -0.396 OA
ATOM     41  H1  UNL     1       0.527   2.655  19.185  1.00  0.00     0.209 HD
ENDBRANCH  39  40
ENDBRANCH   3  39
TORSDOF 14
ENDMDL
MODEL 5
REMARK VINA RESULT: -6.154058091      2.484      5.692
REMARK  14 active torsions:
REMARK  status: ('A' for Active; 'I' for Inactive)
REMARK    1  A    between atoms: C3_3  and  C4_4 
REMARK    2  A    between atoms: C4_4  and  O1_5 
REMARK    3  A    between atoms: C5_7  and  C6_8 
REMARK    4  A    between atoms: C6_8  and  C8_10 
REMARK    5  A    between atoms: C8_10  and  N1_11 
REMARK    6  A    between atoms: N3_18  and  C14_19 
REMARK    7  A    between atoms: C14_19  and  C15_20 
REMARK    8  A    between atoms: C15_20  and  O2_21 
REMARK    9  A    between atoms: C15_20  and  C16_23 
REMARK   10  A    between atoms: C16_23  and  N4_24 
REMARK   11  A    between atoms: C19_27  and  C20_28 
REMARK   12  A    between atoms: C20_28  and  O3_31 
REMARK   13  A    between atoms: C25_35  and  C26_36 
REMARK   14  A    between atoms: C26_36  and  N5_37 
ROOT
HETATM    1  C1  UNL     1      -5.588   4.820  20.693  1.00  0.00     0.051 C 
HETATM    2  C2  UNL     1      -4.376   4.015  21.058  1.00  0.00    -0.027 A 
HETATM    3  C3  UNL     1      -4.427   2.665  21.359  1.00  0.00    -0.004 A 
HETATM    4  C5  UNL     1      -3.111   2.281  21.634  1.00  0.00     0.026 A 
HETATM    5  N3  UNL     1      -2.314   3.382  21.532  1.00  0.00    -0.348 N 
HETATM    6  C25 UNL     1      -3.066   4.418  21.161  1.00  0.00     0.046 A 
ENDROOT
BRANCH   5   7
HETATM    7  C14 UNL     1      -0.923   3.534  22.014  1.00  0.00     0.166 C 
BRANCH   7   8
HETATM    8  C15 UNL     1      -0.868   4.264  23.381  1.00  0.00     0.175 C 
BRANCH   8   9
HETATM    9  O2  UNL     1       0.505   4.381  23.617  1.00  0.00    -0.389 OA
ATOM     10  H2  UNL     1       0.544   4.588  24.543  1.00  0.00     0.210 HD
ENDBRANCH   8   9
BRANCH   8  11
HETATM   11  C16 UNL     1      -1.535   3.413  24.418  1.00  0.00     0.096 C 
BRANCH  11  12
HETATM   12  N4  UNL     1      -1.516   3.874  25.742  1.00  0.00    -0.371 N 
HETATM   13  C17 UNL     1      -0.677   3.261  26.682  1.00  0.00     0.063 C 
HETATM   14  C18 UNL     1      -1.010   3.798  28.070  1.00  0.00     0.052 C 
HETATM   15  C19 UNL     1      -1.324   5.267  28.024  1.00  0.00     0.025 C 
HETATM   16  C23 UNL     1      -2.391   5.636  27.012  1.00  0.00     0.028 C 
HETATM   17  C24 UNL     1      -2.770   4.390  26.238  1.00  0.00     0.127 C 
BRANCH  15  18
HETATM   18  C20 UNL     1      -1.790   5.751  29.346  1.00  0.00     0.054 C 
HETATM   19  C21 UNL     1      -1.486   7.230  29.567  1.00  0.00     0.045 C 
HETATM   20  C22 UNL     1      -3.232   5.509  29.668  1.00  0.00     0.045 C 
BRANCH  18  21
HETATM   21  O3  UNL     1      -1.052   5.034  30.336  1.00  0.00    -0.390 OA
ATOM     22  H3  UNL     1      -0.132   5.194  30.165  1.00  0.00     0.210 HD
ENDBRANCH  18  21
ENDBRANCH  15  18
ENDBRANCH  11  12
ENDBRANCH   8  11
ENDBRANCH   7   8
ENDBRANCH   5   7
BRANCH   4  23
HETATM   23  C6  UNL     1      -2.691   0.880  21.745  1.00  0.00     0.060 C 
HETATM   24  C7  UNL     1      -2.565   0.228  23.071  1.00  0.00     0.018 C 
BRANCH  23  25
HETATM   25  C8  UNL     1      -1.290   0.634  21.124  1.00  0.00     0.282 C 
BRANCH  25  26
HETATM   26  N1  UNL     1      -1.441   0.551  19.666  1.00  0.00     0.092 N 
HETATM   27  C9  UNL     1      -0.373   1.089  18.896  1.00  0.00     0.302 C 
HETATM   28  C10 UNL     1       0.025   0.178  17.746  1.00  0.00     0.302 C 
HETATM   29  N2  UNL     1       0.365  -1.134  18.212  1.00  0.00     0.087 N 
HETATM   30  C11 UNL     1       1.691  -1.169  18.818  1.00  0.00     0.310 C 
HETATM   31  C12 UNL     1      -0.661  -1.688  19.065  1.00  0.00     0.302 C 
HETATM   32  C13 UNL     1      -1.837  -0.769  19.265  1.00  0.00     0.302 C 
ENDBRANCH  25  26
ENDBRANCH  23  25
ENDBRANCH   4  23
BRANCH   6  33
HETATM   33  C26 UNL     1      -2.696   5.845  20.886  1.00  0.00     0.330 C 
BRANCH  33  34
HETATM   34  N5  UNL     1      -2.635   6.140  19.499  1.00  0.00     0.094 N 
HETATM   35  C27 UNL     1      -1.356   6.643  19.077  1.00  0.00     0.273 C 
HETATM   36  C28 UNL     1      -1.120   7.772  20.047  1.00  0.00     0.032 C 
HETATM   37  C29 UNL     1      -2.511   8.438  20.025  1.00  0.00     0.032 C 
HETATM   38  C30 UNL     1      -3.407   7.463  19.343  1.00  0.00     0.273 C 
ENDBRANCH  33  34
ENDBRANCH   6  33
BRANCH   3  39
HETATM   39  C4  UNL     1      -5.673   1.880  21.301  1.00  0.00     0.205 C 
BRANCH  39  40
HETATM   40  O1  UNL     1      -5.849   1.425  19.934  1.00  0.00    -0.396 OA
ATOM     41  H1  UNL     1      -6.622   1.852  19.583  1.00  0.00     0.209 HD
ENDBRANCH  39  40
ENDBRANCH   3  39
TORSDOF 14
ENDMDL
