MODEL 1
REMARK VINA RESULT: -6.552627476      0.000      0.000
REMARK  10 active torsions:
REMARK  status: ('A' for Active; 'I' for Inactive)
REMARK    1  A    between atoms: C2_2  and  C4_4 
REMARK    2  A    between atoms: C4_4  and  N1_5 
REMARK    3  A    between atoms: N2_11  and  C8_12 
REMARK    4  A    between atoms: C8_12  and  C9_13 
REMARK    5  A    between atoms: C18_29  and  C19_30 
REMARK    6  A    between atoms: C19_30  and  C20_31 
REMARK    7  A    between atoms: C20_31  and  C21_32 
REMARK    8  A    between atoms: C21_32  and  C22_33 
REMARK    9  A    between atoms: C22_33  and  C23_34 
REMARK   10  A    between atoms: C23_34  and  C24_35 
ROOT
HETATM    1  N1  UNL     1      -1.169   1.862  26.486  1.00  0.00    -0.262 N 
HETATM    2  C5  UNL     1      -1.785   1.911  25.226  1.00  0.00     0.369 C 
HETATM    3  O1  UNL     1      -2.504   0.940  24.865  1.00  0.00    -0.238 OA
HETATM    4  O2  UNL     1      -1.662   2.982  24.313  1.00  0.00    -0.302 OA
HETATM    5  C6  UNL     1      -0.436   3.520  23.885  1.00  0.00     0.211 C 
HETATM    6  C7  UNL     1      -0.562   4.432  22.714  1.00  0.00     0.300 C 
HETATM    7  N2  UNL     1      -0.695   3.816  21.451  1.00  0.00     0.103 N 
HETATM    8  C10 UNL     1      -1.802   4.253  20.676  1.00  0.00     0.300 C 
HETATM    9  C11 UNL     1      -2.635   5.321  21.256  1.00  0.00     0.001 C 
HETATM   10  C12 UNL     1      -3.774   5.164  21.868  1.00  0.00    -0.003 C 
HETATM   11  C13 UNL     1      -4.491   3.897  22.122  1.00  0.00     0.194 C 
HETATM   12  O5  UNL     1      -4.981   3.898  23.438  1.00  0.00    -0.385 OA
HETATM   13  C14 UNL     1      -6.324   4.177  23.523  1.00  0.00     0.194 C 
HETATM   14  C15 UNL     1      -6.637   4.535  24.966  1.00  0.00     0.193 C 
HETATM   15  O6  UNL     1      -6.258   3.492  25.782  1.00  0.00    -0.387 OA
HETATM   16  C16 UNL     1      -5.935   3.899  27.067  1.00  0.00     0.195 C 
HETATM   17  C17 UNL     1      -4.523   4.482  27.124  1.00  0.00     0.259 C 
HETATM   18  N3  UNL     1      -3.549   3.417  27.010  1.00  0.00    -0.060 N 
ATOM     19  H31 UNL     1      -3.415   3.103  26.048  1.00  0.00     0.278 HD
ATOM     20  H32 UNL     1      -3.881   2.533  27.394  1.00  0.00     0.278 HD
HETATM   21  C18 UNL     1      -2.318   3.878  27.631  1.00  0.00     0.277 C 
HETATM   22  C25 UNL     1      -1.201   2.957  27.440  1.00  0.00     0.259 C 
HETATM   23  O7  UNL     1      -0.173   3.121  28.166  1.00  0.00    -0.271 OA
ENDROOT
BRANCH  21  24
HETATM   24  C19 UNL     1      -2.019   5.237  27.109  1.00  0.00     0.043 C 
BRANCH  24  25
HETATM   25  C20 UNL     1      -1.417   6.155  28.150  1.00  0.00     0.002 C 
BRANCH  25  26
HETATM   26  C21 UNL     1      -2.322   6.191  29.392  1.00  0.00     0.000 C 
BRANCH  26  27
HETATM   27  C22 UNL     1      -2.306   7.547  30.021  1.00  0.00     0.001 C 
BRANCH  27  28
HETATM   28  C23 UNL     1      -0.920   8.036  30.337  1.00  0.00     0.011 C 
BRANCH  28  29
HETATM   29  C24 UNL     1      -0.927   9.024  31.471  1.00  0.00     0.086 C 
HETATM   30  S1  UNL     1      -1.237   8.115  33.011  1.00  0.00    -0.098 SA
ENDBRANCH  28  29
ENDBRANCH  27  28
ENDBRANCH  26  27
ENDBRANCH  25  26
ENDBRANCH  24  25
ENDBRANCH  21  24
BRANCH   1  31
HETATM   31  C4  UNL     1      -0.464   0.680  26.922  1.00  0.00     0.141 C 
BRANCH  31  32
HETATM   32  C2  UNL     1       0.678   0.214  26.119  1.00  0.00    -0.004 C 
HETATM   33  C1  UNL     1       1.286  -1.101  26.390  1.00  0.00     0.011 C 
HETATM   34  C3  UNL     1       1.798   1.267  26.042  1.00  0.00     0.011 C 
ENDBRANCH  31  32
ENDBRANCH   1  31
BRANCH   7  35
HETATM   35  C8  UNL     1      -0.658   2.406  21.526  1.00  0.00     0.385 C 
BRANCH  35  36
HETATM   36  C9  UNL     1      -0.266   1.726  20.265  1.00  0.00     0.202 C 
HETATM   37  O3  UNL     1       0.911   1.804  19.849  1.00  0.00    -0.647 OA
HETATM   38  O4  UNL     1      -1.165   0.992  19.510  1.00  0.00    -0.647 OA
ENDBRANCH  35  36
ENDBRANCH   7  35
TORSDOF 10
ENDMDL
MODEL 2
REMARK VINA RESULT: -6.376884161      4.482      6.721
REMARK  10 active torsions:
REMARK  status: ('A' for Active; 'I' for Inactive)
REMARK    1  A    between atoms: C2_2  and  C4_4 
REMARK    2  A    between atoms: C4_4  and  N1_5 
REMARK    3  A    between atoms: N2_11  and  C8_12 
REMARK    4  A    between atoms: C8_12  and  C9_13 
REMARK    5  A    between atoms: C18_29  and  C19_30 
REMARK    6  A    between atoms: C19_30  and  C20_31 
REMARK    7  A    between atoms: C20_31  and  C21_32 
REMARK    8  A    between atoms: C21_32  and  C22_33 
REMARK    9  A    between atoms: C22_33  and  C23_34 
REMARK   10  A    between atoms: C23_34  and  C24_35 
ROOT
HETATM    1  N1  UNL     1      -0.147   1.592  22.824  1.00  0.00    -0.262 N 
HETATM    2  C5  UNL     1      -0.346   0.471  22.004  1.00  0.00     0.369 C 
HETATM    3  O1  UNL     1      -0.652  -0.627  22.543  1.00  0.00    -0.238 OA
HETATM    4  O2  UNL     1      -0.232   0.475  20.596  1.00  0.00    -0.302 OA
HETATM    5  C6  UNL     1       0.887   0.959  19.895  1.00  0.00     0.211 C 
HETATM    6  C7  UNL     1       0.891   0.588  18.452  1.00  0.00     0.300 C 
HETATM    7  N2  UNL     1       1.306  -0.725  18.143  1.00  0.00     0.103 N 
HETATM    8  C10 UNL     1       0.411  -1.470  17.329  1.00  0.00     0.300 C 
HETATM    9  C11 UNL     1      -0.801  -0.769  16.869  1.00  0.00     0.001 C 
HETATM   10  C12 UNL     1      -1.992  -0.868  17.387  1.00  0.00    -0.003 C 
HETATM   11  C13 UNL     1      -2.405  -1.692  18.542  1.00  0.00     0.194 C 
HETATM   12  O5  UNL     1      -3.251  -0.938  19.371  1.00  0.00    -0.385 OA
HETATM   13  C14 UNL     1      -4.582  -1.247  19.221  1.00  0.00     0.194 C 
HETATM   14  C15 UNL     1      -5.395  -0.127  19.848  1.00  0.00     0.193 C 
HETATM   15  O6  UNL     1      -5.027   0.012  21.168  1.00  0.00    -0.387 OA
HETATM   16  C16 UNL     1      -5.221   1.297  21.652  1.00  0.00     0.195 C 
HETATM   17  C17 UNL     1      -4.089   2.229  21.218  1.00  0.00     0.259 C 
HETATM   18  N3  UNL     1      -2.888   1.920  21.966  1.00  0.00    -0.060 N 
ATOM     19  H31 UNL     1      -2.396   1.102  21.607  1.00  0.00     0.278 HD
ATOM     20  H32 UNL     1      -3.084   1.561  22.899  1.00  0.00     0.278 HD
HETATM   21  C18 UNL     1      -2.061   3.116  21.982  1.00  0.00     0.277 C 
HETATM   22  C25 UNL     1      -0.743   2.892  22.567  1.00  0.00     0.259 C 
HETATM   23  O7  UNL     1      -0.058   3.914  22.883  1.00  0.00    -0.271 OA
ENDROOT
BRANCH  21  24
HETATM   24  C19 UNL     1      -1.976   3.635  20.592  1.00  0.00     0.043 C 
BRANCH  24  25
HETATM   25  C20 UNL     1      -1.955   5.147  20.522  1.00  0.00     0.002 C 
BRANCH  25  26
HETATM   26  C21 UNL     1      -3.363   5.668  20.189  1.00  0.00     0.000 C 
BRANCH  26  27
HETATM   27  C22 UNL     1      -3.335   7.139  19.923  1.00  0.00     0.001 C 
BRANCH  27  28
HETATM   28  C23 UNL     1      -1.979   7.638  19.508  1.00  0.00     0.011 C 
BRANCH  28  29
HETATM   29  C24 UNL     1      -1.949   9.139  19.409  1.00  0.00     0.086 C 
HETATM   30  S1  UNL     1      -3.614   9.764  19.774  1.00  0.00    -0.098 SA
ENDBRANCH  28  29
ENDBRANCH  27  28
ENDBRANCH  26  27
ENDBRANCH  25  26
ENDBRANCH  24  25
ENDBRANCH  21  24
BRANCH   1  31
HETATM   31  C4  UNL     1       0.670   1.508  24.010  1.00  0.00     0.141 C 
BRANCH  31  32
HETATM   32  C2  UNL     1       0.001   1.545  25.321  1.00  0.00    -0.004 C 
HETATM   33  C1  UNL     1       0.513   2.422  26.390  1.00  0.00     0.011 C 
HETATM   34  C3  UNL     1      -0.210   0.135  25.903  1.00  0.00     0.011 C 
ENDBRANCH  31  32
ENDBRANCH   1  31
BRANCH   7  35
HETATM   35  C8  UNL     1       1.677  -1.463  19.289  1.00  0.00     0.385 C 
BRANCH  35  36
HETATM   36  C9  UNL     1       3.057  -2.014  19.255  1.00  0.00     0.202 C 
HETATM   37  O3  UNL     1       4.004  -1.363  19.745  1.00  0.00    -0.647 OA
HETATM   38  O4  UNL     1       3.347  -3.246  18.693  1.00  0.00    -0.647 OA
ENDBRANCH  35  36
ENDBRANCH   7  35
TORSDOF 10
ENDMDL
MODEL 3
REMARK VINA RESULT: -6.247658012      4.034      7.620
REMARK  10 active torsions:
REMARK  status: ('A' for Active; 'I' for Inactive)
REMARK    1  A    between atoms: C2_2  and  C4_4 
REMARK    2  A    between atoms: C4_4  and  N1_5 
REMARK    3  A    between atoms: N2_11  and  C8_12 
REMARK    4  A    between atoms: C8_12  and  C9_13 
REMARK    5  A    between atoms: C18_29  and  C19_30 
REMARK    6  A    between atoms: C19_30  and  C20_31 
REMARK    7  A    between atoms: C20_31  and  C21_32 
REMARK    8  A    between atoms: C21_32  and  C22_33 
REMARK    9  A    between atoms: C22_33  and  C23_34 
REMARK   10  A    between atoms: C23_34  and  C24_35 
ROOT
HETATM    1  N1  UNL     1      -2.751   5.070  20.847  1.00  0.00    -0.262 N 
HETATM    2  C5  UNL     1      -1.654   4.337  21.324  1.00  0.00     0.369 C 
HETATM    3  O1  UNL     1      -0.583   4.950  21.583  1.00  0.00    -0.238 OA
HETATM    4  O2  UNL     1      -1.653   2.942  21.543  1.00  0.00    -0.302 OA
HETATM    5  C6  UNL     1      -2.045   1.990  20.584  1.00  0.00     0.211 C 
HETATM    6  C7  UNL     1      -1.680   0.592  20.949  1.00  0.00     0.300 C 
HETATM    7  N2  UNL     1      -0.338   0.216  20.727  1.00  0.00     0.103 N 
HETATM    8  C10 UNL     1       0.326  -0.353  21.846  1.00  0.00     0.300 C 
HETATM    9  C11 UNL     1      -0.475  -0.528  23.070  1.00  0.00     0.001 C 
HETATM   10  C12 UNL     1      -0.473   0.255  24.111  1.00  0.00    -0.003 C 
HETATM   11  C13 UNL     1       0.318   1.488  24.307  1.00  0.00     0.194 C 
HETATM   12  O5  UNL     1      -0.500   2.480  24.870  1.00  0.00    -0.385 OA
HETATM   13  C14 UNL     1      -0.304   2.650  26.221  1.00  0.00     0.194 C 
HETATM   14  C15 UNL     1      -1.485   3.433  26.769  1.00  0.00     0.193 C 
HETATM   15  O6  UNL     1      -1.589   4.627  26.092  1.00  0.00    -0.387 OA
HETATM   16  C16 UNL     1      -2.884   5.122  26.061  1.00  0.00     0.195 C 
HETATM   17  C17 UNL     1      -3.719   4.420  24.990  1.00  0.00     0.259 C 
HETATM   18  N3  UNL     1      -3.310   4.872  23.676  1.00  0.00    -0.060 N 
ATOM     19  H31 UNL     1      -2.454   4.421  23.351  1.00  0.00     0.278 HD
ATOM     20  H32 UNL     1      -2.964   5.831  23.676  1.00  0.00     0.278 HD
HETATM   21  C18 UNL     1      -4.433   4.675  22.774  1.00  0.00     0.277 C 
HETATM   22  C25 UNL     1      -4.097   4.939  21.378  1.00  0.00     0.259 C 
HETATM   23  O7  UNL     1      -5.057   5.069  20.557  1.00  0.00    -0.271 OA
ENDROOT
BRANCH  21  24
HETATM   24  C19 UNL     1      -4.947   3.295  22.975  1.00  0.00     0.043 C 
BRANCH  24  25
HETATM   25  C20 UNL     1      -6.458   3.211  22.926  1.00  0.00     0.002 C 
BRANCH  25  26
HETATM   26  C21 UNL     1      -6.881   1.927  22.193  1.00  0.00     0.000 C 
BRANCH  26  27
HETATM   27  C22 UNL     1      -6.877   2.137  20.713  1.00  0.00     0.001 C 
BRANCH  27  28
HETATM   28  C23 UNL     1      -8.234   2.472  20.161  1.00  0.00     0.011 C 
BRANCH  28  29
HETATM   29  C24 UNL     1      -8.335   3.925  19.784  1.00  0.00     0.086 C 
HETATM   30  S1  UNL     1      -9.779   4.130  18.703  1.00  0.00    -0.098 SA
ENDBRANCH  28  29
ENDBRANCH  27  28
ENDBRANCH  26  27
ENDBRANCH  25  26
ENDBRANCH  24  25
ENDBRANCH  21  24
BRANCH   1  31
HETATM   31  C4  UNL     1      -2.594   6.033  19.784  1.00  0.00     0.141 C 
BRANCH  31  32
HETATM   32  C2  UNL     1      -2.524   7.459  20.142  1.00  0.00    -0.004 C 
HETATM   33  C1  UNL     1      -3.630   8.368  19.784  1.00  0.00     0.011 C 
HETATM   34  C3  UNL     1      -1.198   8.102  19.698  1.00  0.00     0.011 C 
ENDBRANCH  31  32
ENDBRANCH   1  31
BRANCH   7  35
HETATM   35  C8  UNL     1       0.432   1.256  20.159  1.00  0.00     0.385 C 
BRANCH  35  36
HETATM   36  C9  UNL     1       1.058   0.924  18.852  1.00  0.00     0.202 C 
HETATM   37  O3  UNL     1       0.921   1.695  17.878  1.00  0.00    -0.647 OA
HETATM   38  O4  UNL     1       1.802  -0.227  18.660  1.00  0.00    -0.647 OA
ENDBRANCH  35  36
ENDBRANCH   7  35
TORSDOF 10
ENDMDL
MODEL 4
REMARK VINA RESULT: -6.225380263      3.829      7.504
REMARK  10 active torsions:
REMARK  status: ('A' for Active; 'I' for Inactive)
REMARK    1  A    between atoms: C2_2  and  C4_4 
REMARK    2  A    between atoms: C4_4  and  N1_5 
REMARK    3  A    between atoms: N2_11  and  C8_12 
REMARK    4  A    between atoms: C8_12  and  C9_13 
REMARK    5  A    between atoms: C18_29  and  C19_30 
REMARK    6  A    between atoms: C19_30  and  C20_31 
REMARK    7  A    between atoms: C20_31  and  C21_32 
REMARK    8  A    between atoms: C21_32  and  C22_33 
REMARK    9  A    between atoms: C22_33  and  C23_34 
REMARK   10  A    between atoms: C23_34  and  C24_35 
ROOT
HETATM    1  N1  UNL     1      -2.928   5.033  20.908  1.00  0.00    -0.262 N 
HETATM    2  C5  UNL     1      -1.798   4.347  21.379  1.00  0.00     0.369 C 
HETATM    3  O1  UNL     1      -0.743   5.000  21.605  1.00  0.00    -0.238 OA
HETATM    4  O2  UNL     1      -1.747   2.957  21.626  1.00  0.00    -0.302 OA
HETATM    5  C6  UNL     1      -2.125   1.974  20.695  1.00  0.00     0.211 C 
HETATM    6  C7  UNL     1      -1.707   0.597  21.082  1.00  0.00     0.300 C 
HETATM    7  N2  UNL     1      -0.358   0.260  20.841  1.00  0.00     0.103 N 
HETATM    8  C10 UNL     1       0.346  -0.264  21.958  1.00  0.00     0.300 C 
HETATM    9  C11 UNL     1      -0.425  -0.439  23.201  1.00  0.00     0.001 C 
HETATM   10  C12 UNL     1      -0.430   0.366  24.226  1.00  0.00    -0.003 C 
HETATM   11  C13 UNL     1       0.323   1.628  24.381  1.00  0.00     0.194 C 
HETATM   12  O5  UNL     1      -0.517   2.604  24.940  1.00  0.00    -0.385 OA
HETATM   13  C14 UNL     1      -0.301   2.810  26.282  1.00  0.00     0.194 C 
HETATM   14  C15 UNL     1      -1.497   3.564  26.837  1.00  0.00     0.193 C 
HETATM   15  O6  UNL     1      -1.653   4.740  26.137  1.00  0.00    -0.387 OA
HETATM   16  C16 UNL     1      -2.963   5.192  26.122  1.00  0.00     0.195 C 
HETATM   17  C17 UNL     1      -3.795   4.440  25.082  1.00  0.00     0.259 C 
HETATM   18  N3  UNL     1      -3.426   4.877  23.752  1.00  0.00    -0.060 N 
ATOM     19  H31 UNL     1      -2.562   4.447  23.419  1.00  0.00     0.278 HD
ATOM     20  H32 UNL     1      -3.112   5.847  23.725  1.00  0.00     0.278 HD
HETATM   21  C18 UNL     1      -4.558   4.624  22.876  1.00  0.00     0.277 C 
HETATM   22  C25 UNL     1      -4.258   4.869  21.468  1.00  0.00     0.259 C 
HETATM   23  O7  UNL     1      -5.237   4.951  20.664  1.00  0.00    -0.271 OA
ENDROOT
BRANCH  21  24
HETATM   24  C19 UNL     1      -5.023   3.233  23.115  1.00  0.00     0.043 C 
BRANCH  24  25
HETATM   25  C20 UNL     1      -6.531   3.101  23.107  1.00  0.00     0.002 C 
BRANCH  25  26
HETATM   26  C21 UNL     1      -6.951   2.046  22.069  1.00  0.00     0.000 C 
BRANCH  26  27
HETATM   27  C22 UNL     1      -5.772   1.242  21.624  1.00  0.00     0.001 C 
BRANCH  27  28
HETATM   28  C23 UNL     1      -5.731   1.026  20.137  1.00  0.00     0.011 C 
BRANCH  28  29
HETATM   29  C24 UNL     1      -5.128  -0.306  19.787  1.00  0.00     0.086 C 
HETATM   30  S1  UNL     1      -5.086  -1.321  21.292  1.00  0.00    -0.098 SA
ENDBRANCH  28  29
ENDBRANCH  27  28
ENDBRANCH  26  27
ENDBRANCH  25  26
ENDBRANCH  24  25
ENDBRANCH  21  24
BRANCH   1  31
HETATM   31  C4  UNL     1      -2.823   5.979  19.823  1.00  0.00     0.141 C 
BRANCH  31  32
HETATM   32  C2  UNL     1      -2.681   7.406  20.154  1.00  0.00    -0.004 C 
HETATM   33  C1  UNL     1      -3.755   8.356  19.812  1.00  0.00     0.011 C 
HETATM   34  C3  UNL     1      -1.341   7.983  19.663  1.00  0.00     0.011 C 
ENDBRANCH  31  32
ENDBRANCH   1  31
BRANCH   7  35
HETATM   35  C8  UNL     1       0.367   1.312  20.237  1.00  0.00     0.385 C 
BRANCH  35  36
HETATM   36  C9  UNL     1       0.929   0.992  18.899  1.00  0.00     0.202 C 
HETATM   37  O3  UNL     1       0.711   1.750  17.930  1.00  0.00    -0.647 OA
HETATM   38  O4  UNL     1       1.702  -0.134  18.672  1.00  0.00    -0.647 OA
ENDBRANCH  35  36
ENDBRANCH   7  35
TORSDOF 10
ENDMDL
MODEL 5
REMARK VINA RESULT: -6.201753958      0.651      1.170
REMARK  10 active torsions:
REMARK  status: ('A' for Active; 'I' for Inactive)
REMARK    1  A    between atoms: C2_2  and  C4_4 
REMARK    2  A    between atoms: C4_4  and  N1_5 
REMARK    3  A    between atoms: N2_11  and  C8_12 
REMARK    4  A    between atoms: C8_12  and  C9_13 
REMARK    5  A    between atoms: C18_29  and  C19_30 
REMARK    6  A    between atoms: C19_30  and  C20_31 
REMARK    7  A    between atoms: C20_31  and  C21_32 
REMARK    8  A    between atoms: C21_32  and  C22_33 
REMARK    9  A    between atoms: C22_33  and  C23_34 
REMARK   10  A    between atoms: C23_34  and  C24_35 
ROOT
HETATM    1  N1  UNL     1      -1.192   1.840  26.439  1.00  0.00    -0.262 N 
HETATM    2  C5  UNL     1      -1.836   1.913  25.195  1.00  0.00     0.369 C 
HETATM    3  O1  UNL     1      -2.585   0.962  24.842  1.00  0.00    -0.238 OA
HETATM    4  O2  UNL     1      -1.712   2.990  24.288  1.00  0.00    -0.302 OA
HETATM    5  C6  UNL     1      -0.484   3.506  23.837  1.00  0.00     0.211 C 
HETATM    6  C7  UNL     1      -0.618   4.431  22.677  1.00  0.00     0.300 C 
HETATM    7  N2  UNL     1      -0.793   3.830  21.412  1.00  0.00     0.103 N 
HETATM    8  C10 UNL     1      -1.908   4.298  20.667  1.00  0.00     0.300 C 
HETATM    9  C11 UNL     1      -2.703   5.378  21.276  1.00  0.00     0.001 C 
HETATM   10  C12 UNL     1      -3.831   5.240  21.913  1.00  0.00    -0.003 C 
HETATM   11  C13 UNL     1      -4.570   3.986  22.172  1.00  0.00     0.194 C 
HETATM   12  O5  UNL     1      -5.028   3.985  23.499  1.00  0.00    -0.385 OA
HETATM   13  C14 UNL     1      -6.363   4.292  23.618  1.00  0.00     0.194 C 
HETATM   14  C15 UNL     1      -6.635   4.644  25.071  1.00  0.00     0.193 C 
HETATM   15  O6  UNL     1      -6.260   3.585  25.868  1.00  0.00    -0.387 OA
HETATM   16  C16 UNL     1      -5.899   3.973  27.149  1.00  0.00     0.195 C 
HETATM   17  C17 UNL     1      -4.473   4.525  27.179  1.00  0.00     0.259 C 
HETATM   18  N3  UNL     1      -3.525   3.440  27.032  1.00  0.00    -0.060 N 
ATOM     19  H31 UNL     1      -3.421   3.133  26.065  1.00  0.00     0.278 HD
ATOM     20  H32 UNL     1      -3.867   2.560  27.417  1.00  0.00     0.278 HD
HETATM   21  C18 UNL     1      -2.271   3.869  27.629  1.00  0.00     0.277 C 
HETATM   22  C25 UNL     1      -1.179   2.927  27.403  1.00  0.00     0.259 C 
HETATM   23  O7  UNL     1      -0.130   3.061  28.107  1.00  0.00    -0.271 OA
ENDROOT
BRANCH  21  24
HETATM   24  C19 UNL     1      -1.955   5.226  27.111  1.00  0.00     0.043 C 
BRANCH  24  25
HETATM   25  C20 UNL     1      -1.367   6.141  28.163  1.00  0.00     0.002 C 
BRANCH  25  26
HETATM   26  C21 UNL     1      -2.225   6.083  29.437  1.00  0.00     0.000 C 
BRANCH  26  27
HETATM   27  C22 UNL     1      -2.303   7.427  30.087  1.00  0.00     0.001 C 
BRANCH  27  28
HETATM   28  C23 UNL     1      -0.962   8.089  30.236  1.00  0.00     0.011 C 
BRANCH  28  29
HETATM   29  C24 UNL     1      -0.943   9.043  31.399  1.00  0.00     0.086 C 
HETATM   30  S1  UNL     1      -1.298   8.101  32.910  1.00  0.00    -0.098 SA
ENDBRANCH  28  29
ENDBRANCH  27  28
ENDBRANCH  26  27
ENDBRANCH  25  26
ENDBRANCH  24  25
ENDBRANCH  21  24
BRANCH   1  31
HETATM   31  C4  UNL     1      -0.504   0.639  26.848  1.00  0.00     0.141 C 
BRANCH  31  32
HETATM   32  C2  UNL     1      -1.139  -0.216  27.864  1.00  0.00    -0.004 C 
HETATM   33  C1  UNL     1      -0.488  -0.421  29.172  1.00  0.00     0.011 C 
HETATM   34  C3  UNL     1      -1.540  -1.589  27.295  1.00  0.00     0.011 C 
ENDBRANCH  31  32
ENDBRANCH   1  31
BRANCH   7  35
HETATM   35  C8  UNL     1      -0.784   2.418  21.474  1.00  0.00     0.385 C 
BRANCH  35  36
HETATM   36  C9  UNL     1      -0.315   1.744  20.236  1.00  0.00     0.202 C 
HETATM   37  O3  UNL     1      -1.120   1.099  19.530  1.00  0.00    -0.647 OA
HETATM   38  O4  UNL     1       1.004   1.799  19.819  1.00  0.00    -0.647 OA
ENDBRANCH  35  36
ENDBRANCH   7  35
TORSDOF 10
ENDMDL
