MODEL 1
REMARK VINA RESULT: -6.983972229      0.000      0.000
REMARK  5 active torsions:
REMARK  status: ('A' for Active; 'I' for Inactive)
REMARK    1  A    between atoms: C2_2  and  N1_3 
REMARK    2  A    between atoms: N1_3  and  C3_4 
REMARK    3  A    between atoms: C3_4  and  C4_5 
REMARK    4  A    between atoms: C11_16  and  C12_17 
REMARK    5  A    between atoms: C12_17  and  N3_18 
ROOT
HETATM    1  C4  UNL     1      18.830 -14.058  23.829  1.00  0.00    -0.066 C 
HETATM    2  C5  UNL     1      19.663 -13.619  24.570  1.00  0.00    -0.022 C 
HETATM    3 BR1  UNL     1      20.988 -12.955  25.724  1.00  0.00     0.010 Br
ENDROOT
BRANCH   1   4
HETATM    4  C3  UNL     1      17.805 -14.596  22.950  1.00  0.00     0.335 C 
BRANCH   4   5
HETATM    5  N1  UNL     1      18.161 -14.662  21.574  1.00  0.00    -0.014 N 
HETATM    6  C6  UNL     1      19.551 -14.497  21.295  1.00  0.00     0.242 C 
HETATM    7  C7  UNL     1      20.383 -15.731  21.370  1.00  0.00     0.028 C 
HETATM    8  C8  UNL     1      19.824 -16.820  22.223  1.00  0.00     0.003 C 
HETATM    9  C9  UNL     1      18.430 -17.111  21.784  1.00  0.00     0.028 C 
HETATM   10  C10 UNL     1      17.742 -15.985  21.085  1.00  0.00     0.242 C 
BRANCH   5  11
HETATM   11  C2  UNL     1      17.355 -13.716  20.780  1.00  0.00     0.368 C 
HETATM   12  C1  UNL     1      16.774 -14.505  19.609  1.00  0.00     0.091 C 
HETATM   13  N2  UNL     1      16.259 -13.174  21.514  1.00  0.00    -0.009 N 
HETATM   14  C11 UNL     1      16.340 -11.755  21.564  1.00  0.00     0.316 C 
ATOM     15  H22 UNL     1      15.362 -13.489  21.143  1.00  0.00     0.283 HD
ATOM     16  H21 UNL     1      16.189 -13.581  22.447  1.00  0.00     0.283 HD
HETATM   17  N5  UNL     1      17.718 -11.472  21.199  1.00  0.00    -0.328 N 
HETATM   18  C18 UNL     1      18.113 -12.542  20.339  1.00  0.00     0.284 C 
ATOM     19  H5  UNL     1      18.283 -10.677  21.495  1.00  0.00     0.164 HD
HETATM   20  O1  UNL     1      18.964 -12.398  19.403  1.00  0.00    -0.269 OA
BRANCH  14  21
HETATM   21  C12 UNL     1      15.462 -11.125  20.533  1.00  0.00     0.296 C 
BRANCH  21  22
HETATM   22  N3  UNL     1      14.236 -10.650  20.954  1.00  0.00    -0.013 N 
HETATM   23  C13 UNL     1      13.236 -10.228  19.999  1.00  0.00     0.269 C 
HETATM   24  C14 UNL     1      12.140  -9.833  21.013  1.00  0.00     0.269 C 
HETATM   25  N4  UNL     1      12.887 -10.022  22.220  1.00  0.00    -0.021 N 
HETATM   26  C15 UNL     1      12.358  -9.735  23.461  1.00  0.00     0.276 C 
HETATM   27  C16 UNL     1      13.495 -11.343  21.994  1.00  0.00     0.476 C 
HETATM   28  C17 UNL     1      14.220  -9.500  21.875  1.00  0.00     0.476 C 
ENDBRANCH  21  22
ENDBRANCH  14  21
ENDBRANCH   5  11
ENDBRANCH   4   5
ENDBRANCH   1   4
TORSDOF 5
ENDMDL
MODEL 2
REMARK VINA RESULT: -6.908217198      1.822      2.848
REMARK  5 active torsions:
REMARK  status: ('A' for Active; 'I' for Inactive)
REMARK    1  A    between atoms: C2_2  and  N1_3 
REMARK    2  A    between atoms: N1_3  and  C3_4 
REMARK    3  A    between atoms: C3_4  and  C4_5 
REMARK    4  A    between atoms: C11_16  and  C12_17 
REMARK    5  A    between atoms: C12_17  and  N3_18 
ROOT
HETATM    1  C4  UNL     1      18.453 -14.243  21.889  1.00  0.00    -0.066 C 
HETATM    2  C5  UNL     1      18.496 -14.451  23.067  1.00  0.00    -0.022 C 
HETATM    3 BR1  UNL     1      18.566 -14.807  24.911  1.00  0.00     0.010 Br
ENDROOT
BRANCH   1   4
HETATM    4  C3  UNL     1      18.377 -13.985  20.460  1.00  0.00     0.335 C 
BRANCH   4   5
HETATM    5  N1  UNL     1      18.143 -12.628  20.101  1.00  0.00    -0.014 N 
HETATM    6  C6  UNL     1      18.683 -11.658  20.999  1.00  0.00     0.242 C 
HETATM    7  C7  UNL     1      20.104 -11.273  20.765  1.00  0.00     0.028 C 
HETATM    8  C8  UNL     1      20.922 -12.284  20.034  1.00  0.00     0.003 C 
HETATM    9  C9  UNL     1      20.224 -12.645  18.766  1.00  0.00     0.028 C 
HETATM   10  C10 UNL     1      18.747 -12.424  18.776  1.00  0.00     0.242 C 
BRANCH   5  11
HETATM   11  C2  UNL     1      16.705 -12.388  19.880  1.00  0.00     0.368 C 
HETATM   12  C1  UNL     1      16.159 -13.615  19.154  1.00  0.00     0.091 C 
HETATM   13  N2  UNL     1      15.974 -12.252  21.097  1.00  0.00    -0.009 N 
HETATM   14  C11 UNL     1      15.316 -10.993  21.150  1.00  0.00     0.316 C 
ATOM     15  H22 UNL     1      15.323 -13.026  21.236  1.00  0.00     0.283 HD
ATOM     16  H21 UNL     1      16.566 -12.404  21.913  1.00  0.00     0.283 HD
HETATM   17  N5  UNL     1      15.989 -10.205  20.132  1.00  0.00    -0.328 N 
HETATM   18  C18 UNL     1      16.434 -11.145  19.153  1.00  0.00     0.284 C 
ATOM     19  H5  UNL     1      16.118  -9.193  20.119  1.00  0.00     0.164 HD
HETATM   20  O1  UNL     1      16.538 -10.859  17.916  1.00  0.00    -0.269 OA
BRANCH  14  21
HETATM   21  C12 UNL     1      13.881 -11.113  20.752  1.00  0.00     0.296 C 
BRANCH  21  22
HETATM   22  N3  UNL     1      12.939 -11.033  21.758  1.00  0.00    -0.013 N 
HETATM   23  C13 UNL     1      12.158 -12.189  22.137  1.00  0.00     0.269 C 
HETATM   24  C14 UNL     1      11.333 -11.519  23.257  1.00  0.00     0.269 C 
HETATM   25  N4  UNL     1      11.794 -10.174  23.087  1.00  0.00    -0.021 N 
HETATM   26  C15 UNL     1      11.296  -9.130  23.837  1.00  0.00     0.276 C 
HETATM   27  C16 UNL     1      13.251 -10.363  23.008  1.00  0.00     0.476 C 
HETATM   28  C17 UNL     1      11.870 -10.028  21.623  1.00  0.00     0.476 C 
ENDBRANCH  21  22
ENDBRANCH  14  21
ENDBRANCH   5  11
ENDBRANCH   4   5
ENDBRANCH   1   4
TORSDOF 5
ENDMDL
MODEL 3
REMARK VINA RESULT: -6.758488287      2.269      3.024
REMARK  5 active torsions:
REMARK  status: ('A' for Active; 'I' for Inactive)
REMARK    1  A    between atoms: C2_2  and  N1_3 
REMARK    2  A    between atoms: N1_3  and  C3_4 
REMARK    3  A    between atoms: C3_4  and  C4_5 
REMARK    4  A    between atoms: C11_16  and  C12_17 
REMARK    5  A    between atoms: C12_17  and  N3_18 
ROOT
HETATM    1  C4  UNL     1      19.268 -12.034  19.844  1.00  0.00    -0.066 C 
HETATM    2  C5  UNL     1      19.847 -11.950  18.799  1.00  0.00    -0.022 C 
HETATM    3 BR1  UNL     1      20.728 -11.815  17.145  1.00  0.00     0.010 Br
ENDROOT
BRANCH   1   4
HETATM    4  C3  UNL     1      18.574 -12.161  21.115  1.00  0.00     0.335 C 
BRANCH   4   5
HETATM    5  N1  UNL     1      17.743 -13.309  21.239  1.00  0.00    -0.014 N 
HETATM    6  C6  UNL     1      18.245 -14.495  20.623  1.00  0.00     0.242 C 
HETATM    7  C7  UNL     1      19.174 -15.317  21.450  1.00  0.00     0.028 C 
HETATM    8  C8  UNL     1      19.878 -14.575  22.537  1.00  0.00     0.003 C 
HETATM    9  C9  UNL     1      18.867 -13.864  23.371  1.00  0.00     0.028 C 
HETATM   10  C10 UNL     1      17.577 -13.566  22.678  1.00  0.00     0.242 C 
BRANCH   5  11
HETATM   11  C2  UNL     1      16.376 -13.017  20.768  1.00  0.00     0.368 C 
HETATM   12  C1  UNL     1      15.484 -14.150  21.273  1.00  0.00     0.091 C 
HETATM   13  N2  UNL     1      15.858 -11.799  21.299  1.00  0.00    -0.009 N 
HETATM   14  C11 UNL     1      15.504 -10.906  20.251  1.00  0.00     0.316 C 
ATOM     15  H22 UNL     1      15.077 -11.965  21.935  1.00  0.00     0.283 HD
ATOM     16  H21 UNL     1      16.504 -11.369  21.960  1.00  0.00     0.283 HD
HETATM   17  N5  UNL     1      16.195 -11.440  19.089  1.00  0.00    -0.328 N 
HETATM   18  C18 UNL     1      16.291 -12.847  19.316  1.00  0.00     0.284 C 
ATOM     19  H5  UNL     1      16.539 -10.920  18.282  1.00  0.00     0.164 HD
HETATM   20  O1  UNL     1      16.293 -13.701  18.371  1.00  0.00    -0.269 OA
BRANCH  14  21
HETATM   21  C12 UNL     1      14.039 -10.956  19.966  1.00  0.00     0.296 C 
BRANCH  21  22
HETATM   22  N3  UNL     1      13.186 -10.987  21.052  1.00  0.00    -0.013 N 
HETATM   23  C13 UNL     1      12.360 -12.144  21.314  1.00  0.00     0.269 C 
HETATM   24  C14 UNL     1      11.674 -11.619  22.595  1.00  0.00     0.269 C 
HETATM   25  N4  UNL     1      12.212 -10.291  22.596  1.00  0.00    -0.021 N 
HETATM   26  C15 UNL     1      11.849  -9.355  23.541  1.00  0.00     0.276 C 
HETATM   27  C16 UNL     1      13.642 -10.546  22.359  1.00  0.00     0.476 C 
HETATM   28  C17 UNL     1      12.183  -9.915  21.173  1.00  0.00     0.476 C 
ENDBRANCH  21  22
ENDBRANCH  14  21
ENDBRANCH   5  11
ENDBRANCH   4   5
ENDBRANCH   1   4
TORSDOF 5
ENDMDL
MODEL 4
REMARK VINA RESULT: -6.634656594      1.866      2.640
REMARK  5 active torsions:
REMARK  status: ('A' for Active; 'I' for Inactive)
REMARK    1  A    between atoms: C2_2  and  N1_3 
REMARK    2  A    between atoms: N1_3  and  C3_4 
REMARK    3  A    between atoms: C3_4  and  C4_5 
REMARK    4  A    between atoms: C11_16  and  C12_17 
REMARK    5  A    between atoms: C12_17  and  N3_18 
ROOT
HETATM    1  C4  UNL     1      21.221 -13.781  24.117  1.00  0.00    -0.066 C 
HETATM    2  C5  UNL     1      22.412 -13.708  24.028  1.00  0.00    -0.022 C 
HETATM    3 BR1  UNL     1      24.286 -13.611  23.913  1.00  0.00     0.010 Br
ENDROOT
BRANCH   1   4
HETATM    4  C3  UNL     1      19.773 -13.844  24.232  1.00  0.00     0.335 C 
BRANCH   4   5
HETATM    5  N1  UNL     1      19.178 -15.039  23.740  1.00  0.00    -0.014 N 
HETATM    6  C6  UNL     1      20.074 -16.136  23.557  1.00  0.00     0.242 C 
HETATM    7  C7  UNL     1      20.322 -16.983  24.758  1.00  0.00     0.028 C 
HETATM    8  C8  UNL     1      20.077 -16.312  26.067  1.00  0.00     0.003 C 
HETATM    9  C9  UNL     1      18.703 -15.733  26.065  1.00  0.00     0.028 C 
HETATM   10  C10 UNL     1      18.147 -15.437  24.711  1.00  0.00     0.242 C 
BRANCH   5  11
HETATM   11  C2  UNL     1      18.421 -14.774  22.502  1.00  0.00     0.368 C 
HETATM   12  C1  UNL     1      18.042 -16.133  21.917  1.00  0.00     0.091 C 
HETATM   13  N2  UNL     1      17.209 -14.060  22.739  1.00  0.00    -0.009 N 
HETATM   14  C11 UNL     1      17.195 -12.840  22.009  1.00  0.00     0.316 C 
ATOM     15  H22 UNL     1      16.388 -14.631  22.538  1.00  0.00     0.283 HD
ATOM     16  H21 UNL     1      17.048 -13.907  23.734  1.00  0.00     0.283 HD
HETATM   17  N5  UNL     1      18.587 -12.634  21.648  1.00  0.00    -0.328 N 
HETATM   18  C18 UNL     1      19.153 -13.941  21.545  1.00  0.00     0.284 C 
ATOM     19  H5  UNL     1      19.060 -11.743  21.499  1.00  0.00     0.164 HD
HETATM   20  O1  UNL     1      20.104 -14.222  20.747  1.00  0.00    -0.269 OA
BRANCH  14  21
HETATM   21  C12 UNL     1      16.416 -12.975  20.741  1.00  0.00     0.296 C 
BRANCH  21  22
HETATM   22  N3  UNL     1      15.293 -12.184  20.605  1.00  0.00    -0.013 N 
HETATM   23  C13 UNL     1      14.580 -12.119  19.348  1.00  0.00     0.269 C 
HETATM   24  C14 UNL     1      13.473 -11.137  19.793  1.00  0.00     0.269 C 
HETATM   25  N4  UNL     1      13.963 -10.844  21.107  1.00  0.00    -0.021 N 
HETATM   26  C15 UNL     1      13.340  -9.933  21.933  1.00  0.00     0.276 C 
HETATM   27  C16 UNL     1      14.258 -12.189  21.624  1.00  0.00     0.476 C 
HETATM   28  C17 UNL     1      15.419 -10.748  20.909  1.00  0.00     0.476 C 
ENDBRANCH  21  22
ENDBRANCH  14  21
ENDBRANCH   5  11
ENDBRANCH   4   5
ENDBRANCH   1   4
TORSDOF 5
ENDMDL
MODEL 5
REMARK VINA RESULT: -6.597318429      3.160      6.910
REMARK  5 active torsions:
REMARK  status: ('A' for Active; 'I' for Inactive)
REMARK    1  A    between atoms: C2_2  and  N1_3 
REMARK    2  A    between atoms: N1_3  and  C3_4 
REMARK    3  A    between atoms: C3_4  and  C4_5 
REMARK    4  A    between atoms: C11_16  and  C12_17 
REMARK    5  A    between atoms: C12_17  and  N3_18 
ROOT
HETATM    1  C4  UNL     1      13.669 -14.261  21.093  1.00  0.00    -0.066 C 
HETATM    2  C5  UNL     1      12.983 -15.140  20.658  1.00  0.00    -0.022 C 
HETATM    3 BR1  UNL     1      11.889 -16.519  20.000  1.00  0.00     0.010 Br
ENDROOT
BRANCH   1   4
HETATM    4  C3  UNL     1      14.523 -13.210  21.623  1.00  0.00     0.335 C 
BRANCH   4   5
HETATM    5  N1  UNL     1      15.462 -12.670  20.701  1.00  0.00    -0.014 N 
HETATM    6  C6  UNL     1      15.068 -12.720  19.330  1.00  0.00     0.242 C 
HETATM    7  C7  UNL     1      14.233 -11.583  18.848  1.00  0.00     0.028 C 
HETATM    8  C8  UNL     1      13.475 -10.860  19.911  1.00  0.00     0.003 C 
HETATM    9  C9  UNL     1      14.424 -10.443  20.983  1.00  0.00     0.028 C 
HETATM   10  C10 UNL     1      15.670 -11.262  21.074  1.00  0.00     0.242 C 
BRANCH   5  11
HETATM   11  C2  UNL     1      16.788 -13.288  20.884  1.00  0.00     0.368 C 
HETATM   12  C1  UNL     1      17.639 -12.872  19.685  1.00  0.00     0.091 C 
HETATM   13  N2  UNL     1      17.454 -12.829  22.059  1.00  0.00    -0.009 N 
HETATM   14  C11 UNL     1      17.760 -13.918  22.919  1.00  0.00     0.316 C 
ATOM     15  H22 UNL     1      18.284 -12.279  21.833  1.00  0.00     0.283 HD
ATOM     16  H21 UNL     1      16.918 -12.106  22.539  1.00  0.00     0.283 HD
HETATM   17  N5  UNL     1      16.909 -14.993  22.440  1.00  0.00    -0.328 N 
HETATM   18  C18 UNL     1      16.729 -14.743  21.045  1.00  0.00     0.284 C 
ATOM     19  H5  UNL     1      16.521 -15.763  22.984  1.00  0.00     0.164 HD
HETATM   20  O1  UNL     1      16.558 -15.673  20.192  1.00  0.00    -0.269 OA
BRANCH  14  21
HETATM   21  C12 UNL     1      19.178 -14.358  22.755  1.00  0.00     0.296 C 
BRANCH  21  22
HETATM   22  N3  UNL     1      19.922 -14.531  23.905  1.00  0.00    -0.013 N 
HETATM   23  C13 UNL     1      20.432 -15.835  24.268  1.00  0.00     0.269 C 
HETATM   24  C14 UNL     1      21.152 -15.416  25.569  1.00  0.00     0.269 C 
HETATM   25  N4  UNL     1      20.727 -14.049  25.618  1.00  0.00    -0.021 N 
HETATM   26  C15 UNL     1      21.063 -13.215  26.663  1.00  0.00     0.276 C 
HETATM   27  C16 UNL     1      20.988 -13.604  24.240  1.00  0.00     0.476 C 
HETATM   28  C17 UNL     1      19.321 -14.119  25.185  1.00  0.00     0.476 C 
ENDBRANCH  21  22
ENDBRANCH  14  21
ENDBRANCH   5  11
ENDBRANCH   4   5
ENDBRANCH   1   4
TORSDOF 5
ENDMDL
