MODEL 1
REMARK VINA RESULT: -6.347714477      0.000      0.000
REMARK  6 active torsions:
REMARK  status: ('A' for Active; 'I' for Inactive)
REMARK    1  A    between atoms: C3_3  and  C4_4 
REMARK    2  A    between atoms: C4_4  and  C5_5 
REMARK    3  A    between atoms: C5_5  and  C6_6 
REMARK    4  A    between atoms: N1_11  and  N2_12 
REMARK       I    between atoms: N2_12  and  C10_14 
REMARK    5  A    between atoms: C12_19  and  N5_20 
REMARK    6  A    between atoms: N5_20  and  C15_23 
ROOT
HETATM    1  C1  UNL     1      11.152 -16.141  18.212  1.00  0.00     0.112 C 
HETATM    2  C2  UNL     1      12.228 -15.630  19.055  1.00  0.00    -0.111 C 
HETATM    3  C3  UNL     1      13.141 -15.216  19.747  1.00  0.00    -0.104 C 
ENDROOT
BRANCH   3   4
HETATM    4  C4  UNL     1      14.172 -14.745  20.614  1.00  0.00     0.136 C 
BRANCH   4   5
HETATM    5  C5  UNL     1      14.791 -13.391  20.417  1.00  0.00     0.172 C 
HETATM    6  C9  UNL     1      14.886 -13.008  18.931  1.00  0.00     0.160 C 
HETATM    7  N1  UNL     1      16.251 -12.565  18.700  1.00  0.00    -0.172 NA
HETATM    8  C12 UNL     1      16.934 -12.542  19.956  1.00  0.00     0.487 C 
HETATM    9  N6  UNL     1      16.209 -13.582  20.625  1.00  0.00    -0.018 N 
HETATM   10  C17 UNL     1      16.590 -14.780  19.851  1.00  0.00     0.277 C 
HETATM   11  C18 UNL     1      16.490 -13.826  21.969  1.00  0.00     0.277 C 
BRANCH   5  12
HETATM   12  C6  UNL     1      13.969 -12.391  21.016  1.00  0.00     0.047 C 
HETATM   13  C7  UNL     1      13.141 -12.729  22.240  1.00  0.00     0.030 C 
HETATM   14  C8  UNL     1      12.896 -11.884  20.074  1.00  0.00     0.030 C 
HETATM   15 BR1  UNL     1      14.764 -10.652  21.479  1.00  0.00    -0.084 Br
ENDBRANCH   5  12
BRANCH   7  16
HETATM   16  N2  UNL     1      16.276 -11.345  18.000  1.00  0.00    -0.289 N 
HETATM   17  C10 UNL     1      16.183 -11.430  16.582  1.00  0.00     0.198 C 
HETATM   18  N3  UNL     1      15.469 -10.443  15.865  1.00  0.00    -0.063 NA
HETATM   19  N4  UNL     1      16.746 -12.402  15.928  1.00  0.00    -0.368 N 
HETATM   20  C11 UNL     1      16.644 -12.477  14.486  1.00  0.00     0.148 C 
ATOM     21  H4  UNL     1      17.263 -13.119  16.435  1.00  0.00     0.161 HD
ATOM     22  H2  UNL     1      16.356 -10.449  18.482  1.00  0.00     0.183 HD
ENDBRANCH   7  16
BRANCH   8  23
HETATM   23  N5  UNL     1      18.330 -12.458  19.930  1.00  0.00    -0.031 N 
HETATM   24  C13 UNL     1      18.729 -11.250  20.712  1.00  0.00     0.276 C 
HETATM   25  C14 UNL     1      19.121 -13.471  20.600  1.00  0.00     0.276 C 
BRANCH  23  26
HETATM   26  C15 UNL     1      19.013 -12.259  18.676  1.00  0.00     0.236 C 
HETATM   27  C16 UNL     1      20.531 -12.252  18.780  1.00  0.00     0.035 C 
ENDBRANCH  23  26
ENDBRANCH   8  23
ENDBRANCH   4   5
ENDBRANCH   3   4
TORSDOF 6
ENDMDL
MODEL 2
REMARK VINA RESULT: -6.249666570      2.769      6.128
REMARK  6 active torsions:
REMARK  status: ('A' for Active; 'I' for Inactive)
REMARK    1  A    between atoms: C3_3  and  C4_4 
REMARK    2  A    between atoms: C4_4  and  C5_5 
REMARK    3  A    between atoms: C5_5  and  C6_6 
REMARK    4  A    between atoms: N1_11  and  N2_12 
REMARK       I    between atoms: N2_12  and  C10_14 
REMARK    5  A    between atoms: C12_19  and  N5_20 
REMARK    6  A    between atoms: N5_20  and  C15_23 
ROOT
HETATM    1  C1  UNL     1      20.484 -13.136  25.248  1.00  0.00     0.112 C 
HETATM    2  C2  UNL     1      19.690 -13.672  24.148  1.00  0.00    -0.111 C 
HETATM    3  C3  UNL     1      19.009 -14.122  23.243  1.00  0.00    -0.104 C 
ENDROOT
BRANCH   3   4
HETATM    4  C4  UNL     1      18.263 -14.693  22.170  1.00  0.00     0.136 C 
BRANCH   4   5
HETATM    5  C5  UNL     1      17.470 -13.831  21.231  1.00  0.00     0.172 C 
HETATM    6  C9  UNL     1      16.578 -12.828  21.981  1.00  0.00     0.160 C 
HETATM    7  N1  UNL     1      15.246 -12.945  21.411  1.00  0.00    -0.172 NA
HETATM    8  C12 UNL     1      15.310 -13.849  20.304  1.00  0.00     0.487 C 
HETATM    9  N6  UNL     1      16.397 -14.671  20.748  1.00  0.00    -0.018 N 
HETATM   10  C17 UNL     1      15.823 -15.341  21.932  1.00  0.00     0.277 C 
HETATM   11  C18 UNL     1      16.880 -15.654  19.885  1.00  0.00     0.277 C 
BRANCH   5  12
HETATM   12  C6  UNL     1      18.353 -13.037  20.439  1.00  0.00     0.047 C 
HETATM   13  C7  UNL     1      19.772 -13.507  20.192  1.00  0.00     0.030 C 
HETATM   14  C8  UNL     1      18.603 -11.672  21.046  1.00  0.00     0.030 C 
HETATM   15 BR1  UNL     1      17.763 -12.437  18.661  1.00  0.00    -0.084 Br
ENDBRANCH   5  12
BRANCH   7  16
HETATM   16  N2  UNL     1      14.715 -11.680  21.099  1.00  0.00    -0.289 N 
HETATM   17  C10 UNL     1      13.688 -11.200  21.960  1.00  0.00     0.198 C 
HETATM   18  N3  UNL     1      13.615  -9.821  22.263  1.00  0.00    -0.063 NA
HETATM   19  N4  UNL     1      12.809 -12.006  22.476  1.00  0.00    -0.368 N 
HETATM   20  C11 UNL     1      11.770 -11.504  23.349  1.00  0.00     0.148 C 
ATOM     21  H4  UNL     1      12.852 -13.003  22.263  1.00  0.00     0.161 HD
ATOM     22  H2  UNL     1      15.047 -11.138  20.301  1.00  0.00     0.183 HD
ENDBRANCH   7  16
BRANCH   8  23
HETATM   23  N5  UNL     1      14.101 -14.355  19.813  1.00  0.00    -0.031 N 
HETATM   24  C13 UNL     1      13.420 -13.260  19.061  1.00  0.00     0.276 C 
HETATM   25  C14 UNL     1      14.116 -15.391  18.801  1.00  0.00     0.276 C 
BRANCH  23  26
HETATM   26  C15 UNL     1      13.078 -14.786  20.734  1.00  0.00     0.236 C 
HETATM   27  C16 UNL     1      12.499 -16.161  20.433  1.00  0.00     0.035 C 
ENDBRANCH  23  26
ENDBRANCH   8  23
ENDBRANCH   4   5
ENDBRANCH   3   4
TORSDOF 6
ENDMDL
MODEL 3
REMARK VINA RESULT: -5.876156912      2.194      4.806
REMARK  6 active torsions:
REMARK  status: ('A' for Active; 'I' for Inactive)
REMARK    1  A    between atoms: C3_3  and  C4_4 
REMARK    2  A    between atoms: C4_4  and  C5_5 
REMARK    3  A    between atoms: C5_5  and  C6_6 
REMARK    4  A    between atoms: N1_11  and  N2_12 
REMARK       I    between atoms: N2_12  and  C10_14 
REMARK    5  A    between atoms: C12_19  and  N5_20 
REMARK    6  A    between atoms: N5_20  and  C15_23 
ROOT
HETATM    1  C1  UNL     1      20.849 -12.063  19.328  1.00  0.00     0.112 C 
HETATM    2  C2  UNL     1      19.591 -12.727  19.651  1.00  0.00    -0.111 C 
HETATM    3  C3  UNL     1      18.528 -13.266  19.909  1.00  0.00    -0.104 C 
ENDROOT
BRANCH   3   4
HETATM    4  C4  UNL     1      17.304 -13.898  20.278  1.00  0.00     0.136 C 
BRANCH   4   5
HETATM    5  C5  UNL     1      16.003 -13.497  19.644  1.00  0.00     0.172 C 
HETATM    6  C9  UNL     1      16.183 -12.362  18.622  1.00  0.00     0.160 C 
HETATM    7  N1  UNL     1      15.193 -11.348  18.945  1.00  0.00    -0.172 NA
HETATM    8  C12 UNL     1      14.365 -11.849  20.000  1.00  0.00     0.487 C 
HETATM    9  N6  UNL     1      15.316 -12.708  20.641  1.00  0.00    -0.018 N 
HETATM   10  C17 UNL     1      16.303 -11.746  21.172  1.00  0.00     0.277 C 
HETATM   11  C18 UNL     1      14.878 -13.507  21.699  1.00  0.00     0.277 C 
BRANCH   5  12
HETATM   12  C6  UNL     1      15.466 -14.593  18.905  1.00  0.00     0.047 C 
HETATM   13  C7  UNL     1      15.958 -15.999  19.178  1.00  0.00     0.030 C 
HETATM   14  C8  UNL     1      15.736 -14.476  17.420  1.00  0.00     0.030 C 
HETATM   15 BR1  UNL     1      13.513 -14.813  18.806  1.00  0.00    -0.084 Br
ENDBRANCH   5  12
BRANCH   7  16
HETATM   16  N2  UNL     1      14.490 -10.942  17.796  1.00  0.00    -0.289 N 
HETATM   17  C10 UNL     1      15.239 -10.889  16.587  1.00  0.00     0.198 C 
HETATM   18  N3  UNL     1      14.625 -11.249  15.365  1.00  0.00    -0.063 NA
HETATM   19  N4  UNL     1      16.483 -10.513  16.581  1.00  0.00    -0.368 N 
HETATM   20  C11 UNL     1      17.233 -10.463  15.343  1.00  0.00     0.148 C 
ATOM     21  H4  UNL     1      16.935 -10.250  17.456  1.00  0.00     0.161 HD
ATOM     22  H2  UNL     1      13.500 -10.699  17.828  1.00  0.00     0.183 HD
ENDBRANCH   7  16
BRANCH   8  23
HETATM   23  N5  UNL     1      13.561 -10.929  20.681  1.00  0.00    -0.031 N 
HETATM   24  C13 UNL     1      13.061  -9.935  19.686  1.00  0.00     0.276 C 
HETATM   25  C14 UNL     1      12.308 -11.365  21.262  1.00  0.00     0.276 C 
BRANCH  23  26
HETATM   26  C15 UNL     1      14.140 -10.087  21.700  1.00  0.00     0.236 C 
HETATM   27  C16 UNL     1      13.142  -9.551  22.716  1.00  0.00     0.035 C 
ENDBRANCH  23  26
ENDBRANCH   8  23
ENDBRANCH   4   5
ENDBRANCH   3   4
TORSDOF 6
ENDMDL
MODEL 4
REMARK VINA RESULT: -5.795834417      2.395      6.284
REMARK  6 active torsions:
REMARK  status: ('A' for Active; 'I' for Inactive)
REMARK    1  A    between atoms: C3_3  and  C4_4 
REMARK    2  A    between atoms: C4_4  and  C5_5 
REMARK    3  A    between atoms: C5_5  and  C6_6 
REMARK    4  A    between atoms: N1_11  and  N2_12 
REMARK       I    between atoms: N2_12  and  C10_14 
REMARK    5  A    between atoms: C12_19  and  N5_20 
REMARK    6  A    between atoms: N5_20  and  C15_23 
ROOT
HETATM    1  C1  UNL     1      20.869 -12.055  19.358  1.00  0.00     0.112 C 
HETATM    2  C2  UNL     1      19.459 -12.321  19.090  1.00  0.00    -0.111 C 
HETATM    3  C3  UNL     1      18.282 -12.527  18.849  1.00  0.00    -0.104 C 
ENDROOT
BRANCH   3   4
HETATM    4  C4  UNL     1      16.892 -12.762  18.636  1.00  0.00     0.136 C 
BRANCH   4   5
HETATM    5  C5  UNL     1      16.014 -13.275  19.741  1.00  0.00     0.172 C 
HETATM    6  C9  UNL     1      16.685 -14.409  20.534  1.00  0.00     0.160 C 
HETATM    7  N1  UNL     1      15.719 -15.492  20.613  1.00  0.00    -0.172 NA
HETATM    8  C12 UNL     1      14.491 -15.042  20.034  1.00  0.00     0.487 C 
HETATM    9  N6  UNL     1      15.020 -14.100  19.092  1.00  0.00    -0.018 N 
HETATM   10  C17 UNL     1      15.747 -14.972  18.148  1.00  0.00     0.277 C 
HETATM   11  C18 UNL     1      14.123 -13.321  18.360  1.00  0.00     0.277 C 
BRANCH   5  12
HETATM   12  C6  UNL     1      15.773 -12.237  20.689  1.00  0.00     0.047 C 
HETATM   13  C7  UNL     1      15.945 -10.788  20.281  1.00  0.00     0.030 C 
HETATM   14  C8  UNL     1      16.707 -12.314  21.879  1.00  0.00     0.030 C 
HETATM   15 BR1  UNL     1      14.074 -12.224  21.681  1.00  0.00    -0.084 Br
ENDBRANCH   5  12
BRANCH   7  16
HETATM   16  N2  UNL     1      15.601 -15.971  21.931  1.00  0.00    -0.289 N 
HETATM   17  C10 UNL     1      16.546 -16.958  22.328  1.00  0.00     0.198 C 
HETATM   18  N3  UNL     1      17.041 -16.963  23.653  1.00  0.00    -0.063 NA
HETATM   19  N4  UNL     1      16.966 -17.863  21.495  1.00  0.00    -0.368 N 
HETATM   20  C11 UNL     1      17.927 -18.862  21.913  1.00  0.00     0.148 C 
ATOM     21  H4  UNL     1      16.615 -17.869  20.537  1.00  0.00     0.161 HD
ATOM     22  H2  UNL     1      14.879 -15.630  22.565  1.00  0.00     0.183 HD
ENDBRANCH   7  16
BRANCH   8  23
HETATM   23  N5  UNL     1      13.535 -16.011  19.714  1.00  0.00    -0.031 N 
HETATM   24  C13 UNL     1      12.496 -15.999  20.787  1.00  0.00     0.276 C 
HETATM   25  C14 UNL     1      12.698 -15.833  18.545  1.00  0.00     0.276 C 
BRANCH  23  26
HETATM   26  C15 UNL     1      13.913 -17.402  19.660  1.00  0.00     0.236 C 
HETATM   27  C16 UNL     1      13.153 -18.299  20.626  1.00  0.00     0.035 C 
ENDBRANCH  23  26
ENDBRANCH   8  23
ENDBRANCH   4   5
ENDBRANCH   3   4
TORSDOF 6
ENDMDL
MODEL 5
REMARK VINA RESULT: -5.693112791      2.561      5.278
REMARK  6 active torsions:
REMARK  status: ('A' for Active; 'I' for Inactive)
REMARK    1  A    between atoms: C3_3  and  C4_4 
REMARK    2  A    between atoms: C4_4  and  C5_5 
REMARK    3  A    between atoms: C5_5  and  C6_6 
REMARK    4  A    between atoms: N1_11  and  N2_12 
REMARK       I    between atoms: N2_12  and  C10_14 
REMARK    5  A    between atoms: C12_19  and  N5_20 
REMARK    6  A    between atoms: N5_20  and  C15_23 
ROOT
HETATM    1  C1  UNL     1      12.244 -10.291  23.146  1.00  0.00     0.112 C 
HETATM    2  C2  UNL     1      13.269 -10.722  22.201  1.00  0.00    -0.111 C 
HETATM    3  C3  UNL     1      14.130 -11.101  21.426  1.00  0.00    -0.104 C 
ENDROOT
BRANCH   3   4
HETATM    4  C4  UNL     1      15.163 -11.478  20.517  1.00  0.00     0.136 C 
BRANCH   4   5
HETATM    5  C5  UNL     1      15.855 -12.805  20.638  1.00  0.00     0.172 C 
HETATM    6  C9  UNL     1      16.180 -13.158  22.099  1.00  0.00     0.160 C 
HETATM    7  N1  UNL     1      17.580 -13.548  22.133  1.00  0.00    -0.172 NA
HETATM    8  C12 UNL     1      18.073 -13.570  20.790  1.00  0.00     0.487 C 
HETATM    9  N6  UNL     1      17.219 -12.569  20.222  1.00  0.00    -0.018 N 
HETATM   10  C17 UNL     1      17.664 -11.343  20.917  1.00  0.00     0.277 C 
HETATM   11  C18 UNL     1      17.291 -12.338  18.848  1.00  0.00     0.277 C 
BRANCH   5  12
HETATM   12  C6  UNL     1      14.992 -13.845  20.179  1.00  0.00     0.047 C 
HETATM   13  C7  UNL     1      13.935 -13.541  19.137  1.00  0.00     0.030 C 
HETATM   14  C8  UNL     1      14.143 -14.424  21.291  1.00  0.00     0.030 C 
HETATM   15 BR1  UNL     1      15.782 -15.529  19.538  1.00  0.00    -0.084 Br
ENDBRANCH   5  12
BRANCH   7  16
HETATM   16  N2  UNL     1      17.752 -14.754  22.837  1.00  0.00    -0.289 N 
HETATM   17  C10 UNL     1      18.392 -14.656  24.105  1.00  0.00     0.198 C 
HETATM   18  N3  UNL     1      17.981 -15.498  25.164  1.00  0.00    -0.063 NA
HETATM   19  N4  UNL     1      19.353 -13.806  24.311  1.00  0.00    -0.368 N 
HETATM   20  C11 UNL     1      19.995 -13.718  25.606  1.00  0.00     0.148 C 
ATOM     21  H4  UNL     1      19.658 -13.195  23.554  1.00  0.00     0.161 HD
ATOM     22  H2  UNL     1      17.438 -15.648  22.460  1.00  0.00     0.183 HD
ENDBRANCH   7  16
BRANCH   8  23
HETATM   23  N5  UNL     1      19.460 -13.603  20.613  1.00  0.00    -0.031 N 
HETATM   24  C13 UNL     1      20.069 -12.663  21.600  1.00  0.00     0.276 C 
HETATM   25  C14 UNL     1      20.193 -14.813  20.925  1.00  0.00     0.276 C 
BRANCH  23  26
HETATM   26  C15 UNL     1      20.034 -13.163  19.365  1.00  0.00     0.236 C 
HETATM   27  C16 UNL     1      20.954 -11.957  19.487  1.00  0.00     0.035 C 
ENDBRANCH  23  26
ENDBRANCH   8  23
ENDBRANCH   4   5
ENDBRANCH   3   4
TORSDOF 6
ENDMDL
