MODEL 1
REMARK VINA RESULT: -7.449252217      0.000      0.000
REMARK  5 active torsions:
REMARK  status: ('A' for Active; 'I' for Inactive)
REMARK    1  A    between atoms: N2_4  and  N3_6 
REMARK    2  A    between atoms: N3_6  and  C1_8 
REMARK    3  A    between atoms: C1_8  and  C6_17 
REMARK       I    between atoms: N4_9  and  C2_11 
REMARK       I    between atoms: C2_11  and  N5_13 
REMARK    4  A    between atoms: C6_17  and  N6_18 
REMARK       I    between atoms: N6_18  and  C7_20 
REMARK    5  A    between atoms: C7_20  and  C8_22 
ROOT
HETATM    1  C1  UNL     1      15.266 -11.812  20.482  1.00  0.00     0.131 C 
HETATM    2  N4  UNL     1      14.636 -11.631  21.585  1.00  0.00    -0.295 N 
ATOM      3  H4  UNL     1      14.621 -12.399  22.256  1.00  0.00     0.172 HD
HETATM    4  C2  UNL     1      13.961 -10.435  21.933  1.00  0.00     0.323 C 
HETATM    5  O1  UNL     1      14.421  -9.346  21.522  1.00  0.00    -0.247 OA
HETATM    6  N5  UNL     1      12.791 -10.462  22.728  1.00  0.00    -0.334 N 
HETATM    7  C3  UNL     1      12.017 -11.503  23.348  1.00  0.00     0.129 C 
HETATM    8  C4  UNL     1      11.310 -10.477  24.199  1.00  0.00     0.040 C 
HETATM    9  C5  UNL     1      11.890  -9.475  23.248  1.00  0.00     0.129 C 
ENDROOT
BRANCH   1  10
HETATM   10  N3  UNL     1      15.308 -10.763  19.520  1.00  0.00    -0.273 N 
ATOM     11  H3  UNL     1      16.000 -10.018  19.608  1.00  0.00     0.190 HD
BRANCH  10  12
HETATM   12  N2  UNL     1      14.405 -10.753  18.459  1.00  0.00    -0.248 N 
HETATM   13  N1  UNL     1      13.312 -10.117  18.535  1.00  0.00    -0.331 N 
ATOM     14  H12 UNL     1      13.105  -9.610  19.394  1.00  0.00     0.178 HD
ATOM     15  H11 UNL     1      12.651 -10.111  17.758  1.00  0.00     0.178 HD
ATOM     16  H2  UNL     1      14.629 -11.267  17.606  1.00  0.00     0.207 HD
ENDBRANCH  10  12
ENDBRANCH   1  10
BRANCH   1  17
HETATM   17  C6  UNL     1      15.918 -13.120  20.264  1.00  0.00     0.118 C 
HETATM   18  C9  UNL     1      16.488 -13.272  18.894  1.00  0.00     0.069 C 
HETATM   19  C10 UNL     1      17.949 -13.447  19.031  1.00  0.00     0.240 C 
HETATM   20  N7  UNL     1      18.269 -13.129  20.381  1.00  0.00    -0.064 N 
HETATM   21  C11 UNL     1      18.858 -11.794  20.384  1.00  0.00     0.237 C 
HETATM   22  C14 UNL     1      19.265 -14.014  20.952  1.00  0.00     0.237 C 
HETATM   23  C15 UNL     1      17.096 -13.249  21.190  1.00  0.00     0.276 C 
HETATM   24  C12 UNL     1      20.342 -12.121  20.126  1.00  0.00     0.029 C 
HETATM   25  C13 UNL     1      20.496 -13.184  21.212  1.00  0.00     0.029 C 
BRANCH  17  26
HETATM   26  N6  UNL     1      14.910 -14.146  20.550  1.00  0.00    -0.342 N 
HETATM   27  C7  UNL     1      13.621 -14.140  19.987  1.00  0.00     0.228 C 
HETATM   28  O2  UNL     1      13.280 -13.238  19.202  1.00  0.00    -0.273 OA
ATOM     29  H6  UNL     1      15.155 -14.901  21.189  1.00  0.00     0.163 HD
BRANCH  27  30
HETATM   30  C8  UNL     1      12.653 -15.198  20.312  1.00  0.00     0.187 C 
HETATM   31 BR1  UNL     1      11.934 -16.042  18.733  1.00  0.00    -0.087 Br
ENDBRANCH  27  30
ENDBRANCH  17  26
ENDBRANCH   1  17
TORSDOF 5
ENDMDL
MODEL 2
REMARK VINA RESULT: -7.437797511      2.457      4.551
REMARK  5 active torsions:
REMARK  status: ('A' for Active; 'I' for Inactive)
REMARK    1  A    between atoms: N2_4  and  N3_6 
REMARK    2  A    between atoms: N3_6  and  C1_8 
REMARK    3  A    between atoms: C1_8  and  C6_17 
REMARK       I    between atoms: N4_9  and  C2_11 
REMARK       I    between atoms: C2_11  and  N5_13 
REMARK    4  A    between atoms: C6_17  and  N6_18 
REMARK       I    between atoms: N6_18  and  C7_20 
REMARK    5  A    between atoms: C7_20  and  C8_22 
ROOT
HETATM    1  C1  UNL     1      15.125 -12.033  20.045  1.00  0.00     0.131 C 
HETATM    2  N4  UNL     1      14.557 -11.894  21.187  1.00  0.00    -0.295 N 
ATOM      3  H4  UNL     1      14.503 -12.711  21.795  1.00  0.00     0.172 HD
HETATM    4  C2  UNL     1      14.000 -10.679  21.660  1.00  0.00     0.323 C 
HETATM    5  O1  UNL     1      14.535  -9.602  21.314  1.00  0.00    -0.247 OA
HETATM    6  N5  UNL     1      12.864 -10.676  22.503  1.00  0.00    -0.334 N 
HETATM    7  C3  UNL     1      12.030 -11.698  23.073  1.00  0.00     0.129 C 
HETATM    8  C4  UNL     1      11.447 -10.692  24.035  1.00  0.00     0.040 C 
HETATM    9  C5  UNL     1      12.072  -9.665  23.141  1.00  0.00     0.129 C 
ENDROOT
BRANCH   1  10
HETATM   10  N3  UNL     1      15.218 -10.915  19.168  1.00  0.00    -0.273 N 
ATOM     11  H3  UNL     1      15.955 -10.223  19.301  1.00  0.00     0.190 HD
BRANCH  10  12
HETATM   12  N2  UNL     1      14.303 -10.766  18.128  1.00  0.00    -0.248 N 
HETATM   13  N1  UNL     1      14.672 -10.819  16.918  1.00  0.00    -0.331 N 
ATOM     14  H12 UNL     1      15.660 -10.973  16.718  1.00  0.00     0.178 HD
ATOM     15  H11 UNL     1      14.002 -10.709  16.157  1.00  0.00     0.178 HD
ATOM     16  H2  UNL     1      13.317 -10.613  18.346  1.00  0.00     0.207 HD
ENDBRANCH  10  12
ENDBRANCH   1  10
BRANCH   1  17
HETATM   17  C6  UNL     1      15.654 -13.368  19.694  1.00  0.00     0.118 C 
HETATM   18  C9  UNL     1      15.839 -14.256  20.879  1.00  0.00     0.069 C 
HETATM   19  C10 UNL     1      14.953 -15.426  20.708  1.00  0.00     0.240 C 
HETATM   20  N7  UNL     1      14.078 -15.115  19.628  1.00  0.00    -0.064 N 
HETATM   21  C11 UNL     1      12.787 -14.758  20.206  1.00  0.00     0.237 C 
HETATM   22  C14 UNL     1      13.833 -16.244  18.753  1.00  0.00     0.237 C 
HETATM   23  C15 UNL     1      14.660 -14.085  18.825  1.00  0.00     0.276 C 
HETATM   24  C12 UNL     1      12.119 -16.142  20.327  1.00  0.00     0.029 C 
HETATM   25  C13 UNL     1      12.377 -16.604  18.894  1.00  0.00     0.029 C 
BRANCH  17  26
HETATM   26  N6  UNL     1      16.915 -13.146  18.980  1.00  0.00    -0.342 N 
HETATM   27  C7  UNL     1      17.963 -12.357  19.489  1.00  0.00     0.228 C 
HETATM   28  O2  UNL     1      17.855 -11.803  20.596  1.00  0.00    -0.273 OA
ATOM     29  H6  UNL     1      17.039 -13.586  18.068  1.00  0.00     0.163 HD
BRANCH  27  30
HETATM   30  C8  UNL     1      19.206 -12.172  18.724  1.00  0.00     0.187 C 
HETATM   31 BR1  UNL     1      20.764 -12.129  19.861  1.00  0.00    -0.087 Br
ENDBRANCH  27  30
ENDBRANCH  17  26
ENDBRANCH   1  17
TORSDOF 5
ENDMDL
MODEL 3
REMARK VINA RESULT: -7.356233737      2.273      5.562
REMARK  5 active torsions:
REMARK  status: ('A' for Active; 'I' for Inactive)
REMARK    1  A    between atoms: N2_4  and  N3_6 
REMARK    2  A    between atoms: N3_6  and  C1_8 
REMARK    3  A    between atoms: C1_8  and  C6_17 
REMARK       I    between atoms: N4_9  and  C2_11 
REMARK       I    between atoms: C2_11  and  N5_13 
REMARK    4  A    between atoms: C6_17  and  N6_18 
REMARK       I    between atoms: N6_18  and  C7_20 
REMARK    5  A    between atoms: C7_20  and  C8_22 
ROOT
HETATM    1  C1  UNL     1      15.338 -11.993  19.941  1.00  0.00     0.131 C 
HETATM    2  N4  UNL     1      16.482 -12.568  20.028  1.00  0.00    -0.295 N 
ATOM      3  H4  UNL     1      16.554 -13.399  20.616  1.00  0.00     0.172 HD
HETATM    4  C2  UNL     1      17.652 -12.126  19.361  1.00  0.00     0.323 C 
HETATM    5  O1  UNL     1      17.532 -11.582  18.240  1.00  0.00    -0.247 OA
HETATM    6  N5  UNL     1      18.931 -12.292  19.942  1.00  0.00    -0.334 N 
HETATM    7  C3  UNL     1      19.413 -12.856  21.173  1.00  0.00     0.129 C 
HETATM    8  C4  UNL     1      20.816 -12.878  20.619  1.00  0.00     0.040 C 
HETATM    9  C5  UNL     1      20.274 -11.972  19.556  1.00  0.00     0.129 C 
ENDROOT
BRANCH   1  10
HETATM   10  N3  UNL     1      15.199 -10.830  19.131  1.00  0.00    -0.273 N 
ATOM     11  H3  UNL     1      15.640  -9.955  19.416  1.00  0.00     0.190 HD
BRANCH  10  12
HETATM   12  N2  UNL     1      14.462 -10.887  17.951  1.00  0.00    -0.248 N 
HETATM   13  N1  UNL     1      15.034 -10.880  16.821  1.00  0.00    -0.331 N 
ATOM     14  H12 UNL     1      16.052 -10.831  16.792  1.00  0.00     0.178 HD
ATOM     15  H11 UNL     1      14.494 -10.921  15.956  1.00  0.00     0.178 HD
ATOM     16  H2  UNL     1      13.444 -10.935  17.998  1.00  0.00     0.207 HD
ENDBRANCH  10  12
ENDBRANCH   1  10
BRANCH   1  17
HETATM   17  C6  UNL     1      14.213 -12.575  20.702  1.00  0.00     0.118 C 
HETATM   18  C9  UNL     1      12.998 -12.807  19.869  1.00  0.00     0.069 C 
HETATM   19  C10 UNL     1      12.724 -14.259  19.867  1.00  0.00     0.240 C 
HETATM   20  N7  UNL     1      13.872 -14.888  20.427  1.00  0.00    -0.064 N 
HETATM   21  C11 UNL     1      14.633 -15.463  19.323  1.00  0.00     0.237 C 
HETATM   22  C14 UNL     1      13.542 -15.989  21.310  1.00  0.00     0.237 C 
HETATM   23  C15 UNL     1      14.603 -13.937  21.205  1.00  0.00     0.276 C 
HETATM   24  C12 UNL     1      13.964 -16.844  19.185  1.00  0.00     0.029 C 
HETATM   25  C13 UNL     1      14.052 -17.247  20.656  1.00  0.00     0.029 C 
BRANCH  17  26
HETATM   26  N6  UNL     1      13.941 -11.661  21.816  1.00  0.00    -0.342 N 
HETATM   27  C7  UNL     1      13.198 -10.474  21.677  1.00  0.00     0.228 C 
HETATM   28  O2  UNL     1      12.731 -10.148  20.573  1.00  0.00    -0.273 OA
ATOM     29  H6  UNL     1      14.308 -11.897  22.737  1.00  0.00     0.163 HD
BRANCH  27  30
HETATM   30  C8  UNL     1      12.958  -9.597  22.833  1.00  0.00     0.187 C 
HETATM   31 BR1  UNL     1      11.580 -10.282  23.996  1.00  0.00    -0.087 Br
ENDBRANCH  27  30
ENDBRANCH  17  26
ENDBRANCH   1  17
TORSDOF 5
ENDMDL
MODEL 4
REMARK VINA RESULT: -7.348748649      2.472      4.388
REMARK  5 active torsions:
REMARK  status: ('A' for Active; 'I' for Inactive)
REMARK    1  A    between atoms: N2_4  and  N3_6 
REMARK    2  A    between atoms: N3_6  and  C1_8 
REMARK    3  A    between atoms: C1_8  and  C6_17 
REMARK       I    between atoms: N4_9  and  C2_11 
REMARK       I    between atoms: C2_11  and  N5_13 
REMARK    4  A    between atoms: C6_17  and  N6_18 
REMARK       I    between atoms: N6_18  and  C7_20 
REMARK    5  A    between atoms: C7_20  and  C8_22 
ROOT
HETATM    1  C1  UNL     1      15.630 -12.101  20.094  1.00  0.00     0.131 C 
HETATM    2  N4  UNL     1      14.950 -11.969  21.175  1.00  0.00    -0.295 N 
ATOM      3  H4  UNL     1      14.890 -12.772  21.801  1.00  0.00     0.172 HD
HETATM    4  C2  UNL     1      14.279 -10.781  21.556  1.00  0.00     0.323 C 
HETATM    5  O1  UNL     1      14.776  -9.680  21.228  1.00  0.00    -0.247 OA
HETATM    6  N5  UNL     1      13.071 -10.828  22.292  1.00  0.00    -0.334 N 
HETATM    7  C3  UNL     1      12.251 -11.887  22.815  1.00  0.00     0.129 C 
HETATM    8  C4  UNL     1      11.520 -10.896  23.687  1.00  0.00     0.040 C 
HETATM    9  C5  UNL     1      12.162  -9.854  22.822  1.00  0.00     0.129 C 
ENDROOT
BRANCH   1  10
HETATM   10  N3  UNL     1      15.735 -11.002  19.195  1.00  0.00    -0.273 N 
ATOM     11  H3  UNL     1      16.465 -10.302  19.329  1.00  0.00     0.190 HD
BRANCH  10  12
HETATM   12  N2  UNL     1      14.843 -10.883  18.132  1.00  0.00    -0.248 N 
HETATM   13  N1  UNL     1      13.666 -10.451  18.310  1.00  0.00    -0.331 N 
ATOM     14  H12 UNL     1      13.382 -10.191  19.255  1.00  0.00     0.178 HD
ATOM     15  H11 UNL     1      13.012 -10.364  17.532  1.00  0.00     0.178 HD
ATOM     16  H2  UNL     1      15.144 -11.147  17.193  1.00  0.00     0.207 HD
ENDBRANCH  10  12
ENDBRANCH   1  10
BRANCH   1  17
HETATM   17  C6  UNL     1      16.270 -13.408  19.836  1.00  0.00     0.118 C 
HETATM   18  C9  UNL     1      15.982 -14.422  20.891  1.00  0.00     0.069 C 
HETATM   19  C10 UNL     1      15.249 -15.537  20.255  1.00  0.00     0.240 C 
HETATM   20  N7  UNL     1      14.869 -15.084  18.960  1.00  0.00    -0.064 N 
HETATM   21  C11 UNL     1      13.451 -14.748  19.017  1.00  0.00     0.237 C 
HETATM   22  C14 UNL     1      15.005 -16.105  17.940  1.00  0.00     0.237 C 
HETATM   23  C15 UNL     1      15.710 -13.995  18.571  1.00  0.00     0.276 C 
HETATM   24  C12 UNL     1      12.807 -16.115  18.710  1.00  0.00     0.029 C 
HETATM   25  C13 UNL     1      13.616 -16.430  17.454  1.00  0.00     0.029 C 
BRANCH  17  26
HETATM   26  N6  UNL     1      17.708 -13.153  19.706  1.00  0.00    -0.342 N 
HETATM   27  C7  UNL     1      18.512 -12.704  20.770  1.00  0.00     0.228 C 
HETATM   28  O2  UNL     1      18.018 -12.501  21.892  1.00  0.00    -0.273 OA
ATOM     29  H6  UNL     1      18.148 -13.309  18.800  1.00  0.00     0.163 HD
BRANCH  27  30
HETATM   30  C8  UNL     1      19.951 -12.467  20.578  1.00  0.00     0.187 C 
HETATM   31 BR1  UNL     1      20.422 -12.297  18.715  1.00  0.00    -0.087 Br
ENDBRANCH  27  30
ENDBRANCH  17  26
ENDBRANCH   1  17
TORSDOF 5
ENDMDL
MODEL 5
REMARK VINA RESULT: -7.325053938      3.199      5.378
REMARK  5 active torsions:
REMARK  status: ('A' for Active; 'I' for Inactive)
REMARK    1  A    between atoms: N2_4  and  N3_6 
REMARK    2  A    between atoms: N3_6  and  C1_8 
REMARK    3  A    between atoms: C1_8  and  C6_17 
REMARK       I    between atoms: N4_9  and  C2_11 
REMARK       I    between atoms: C2_11  and  N5_13 
REMARK    4  A    between atoms: C6_17  and  N6_18 
REMARK       I    between atoms: N6_18  and  C7_20 
REMARK    5  A    between atoms: C7_20  and  C8_22 
ROOT
HETATM    1  C1  UNL     1      17.329 -14.373  22.403  1.00  0.00     0.131 C 
HETATM    2  N4  UNL     1      17.905 -13.834  23.415  1.00  0.00    -0.295 N 
ATOM      3  H4  UNL     1      18.068 -12.827  23.391  1.00  0.00     0.172 HD
HETATM    4  C2  UNL     1      18.329 -14.545  24.565  1.00  0.00     0.323 C 
HETATM    5  O1  UNL     1      17.665 -15.541  24.931  1.00  0.00    -0.247 OA
HETATM    6  N5  UNL     1      19.477 -14.146  25.289  1.00  0.00    -0.334 N 
HETATM    7  C3  UNL     1      20.438 -13.086  25.149  1.00  0.00     0.129 C 
HETATM    8  C4  UNL     1      20.924 -13.335  26.555  1.00  0.00     0.040 C 
HETATM    9  C5  UNL     1      20.163 -14.621  26.455  1.00  0.00     0.129 C 
ENDROOT
BRANCH   1  10
HETATM   10  N3  UNL     1      17.086 -15.776  22.400  1.00  0.00    -0.273 N 
ATOM     11  H3  UNL     1      17.831 -16.421  22.134  1.00  0.00     0.190 HD
BRANCH  10  12
HETATM   12  N2  UNL     1      15.834 -16.267  22.759  1.00  0.00    -0.248 N 
HETATM   13  N1  UNL     1      15.717 -17.216  23.590  1.00  0.00    -0.331 N 
ATOM     14  H12 UNL     1      16.564 -17.615  23.994  1.00  0.00     0.178 HD
ATOM     15  H11 UNL     1      14.799 -17.576  23.854  1.00  0.00     0.178 HD
ATOM     16  H2  UNL     1      14.997 -15.856  22.346  1.00  0.00     0.207 HD
ENDBRANCH  10  12
ENDBRANCH   1  10
BRANCH   1  17
HETATM   17  C6  UNL     1      16.949 -13.495  21.276  1.00  0.00     0.118 C 
HETATM   18  C9  UNL     1      17.084 -12.043  21.590  1.00  0.00     0.069 C 
HETATM   19  C10 UNL     1      18.092 -11.475  20.671  1.00  0.00     0.240 C 
HETATM   20  N7  UNL     1      18.730 -12.580  20.039  1.00  0.00    -0.064 N 
HETATM   21  C11 UNL     1      20.032 -12.751  20.676  1.00  0.00     0.237 C 
HETATM   22  C14 UNL     1      18.993 -12.354  18.631  1.00  0.00     0.237 C 
HETATM   23  C15 UNL     1      17.886 -13.730  20.124  1.00  0.00     0.276 C 
HETATM   24  C12 UNL     1      20.902 -11.791  19.841  1.00  0.00     0.029 C 
HETATM   25  C13 UNL     1      20.490 -12.307  18.464  1.00  0.00     0.029 C 
BRANCH  17  26
HETATM   26  N6  UNL     1      15.572 -13.846  20.915  1.00  0.00    -0.342 N 
HETATM   27  C7  UNL     1      14.443 -13.233  21.488  1.00  0.00     0.228 C 
HETATM   28  O2  UNL     1      14.576 -12.344  22.347  1.00  0.00    -0.273 OA
ATOM     29  H6  UNL     1      15.425 -14.571  20.213  1.00  0.00     0.163 HD
BRANCH  27  30
HETATM   30  C8  UNL     1      13.085 -13.628  21.084  1.00  0.00     0.187 C 
HETATM   31 BR1  UNL     1      13.050 -14.437  19.333  1.00  0.00    -0.087 Br
ENDBRANCH  27  30
ENDBRANCH  17  26
ENDBRANCH   1  17
TORSDOF 5
ENDMDL
