MODEL 1
REMARK VINA RESULT: -7.842978977      0.000      0.000
REMARK  5 active torsions:
REMARK  status: ('A' for Active; 'I' for Inactive)
REMARK       I    between atoms: C3_5  and  N3_7 
REMARK       I    between atoms: N4_10  and  C6_11 
REMARK       I    between atoms: C6_11  and  N5_13 
REMARK    1  A    between atoms: N5_13  and  C7_15 
REMARK    2  A    between atoms: C7_15  and  C8_16 
REMARK    3  A    between atoms: C8_16  and  N6_17 
REMARK    4  A    between atoms: C12_21  and  C13_22 
REMARK    5  A    between atoms: C12_21  and  N7_25 
REMARK       I    between atoms: N7_25  and  C16_27 
ROOT
HETATM    1  C1  UNL     1      16.588 -11.527  10.728  1.00  0.00     0.037 C 
HETATM    2  C2  UNL     1      16.321 -11.235  11.867  1.00  0.00     0.001 C 
HETATM    3  N1  UNL     1      16.025 -10.901  13.196  1.00  0.00    -0.290 N 
ATOM      4  H1  UNL     1      15.425 -10.101  13.402  1.00  0.00     0.178 HD
HETATM    5  C3  UNL     1      16.514 -11.608  14.159  1.00  0.00     0.199 C 
HETATM    6  N2  UNL     1      17.360 -12.735  13.862  1.00  0.00    -0.063 NA
HETATM    7  N3  UNL     1      16.221 -11.280  15.504  1.00  0.00    -0.337 N 
HETATM    8  C4  UNL     1      14.913 -10.925  16.003  1.00  0.00     0.147 C 
HETATM    9  C5  UNL     1      14.930 -11.503  17.397  1.00  0.00     0.149 C 
HETATM   10  N4  UNL     1      16.312 -11.468  17.802  1.00  0.00    -0.316 N 
HETATM   11  C6  UNL     1      16.830 -11.636  19.111  1.00  0.00     0.319 C 
HETATM   12  O1  UNL     1      18.084 -11.583  19.341  1.00  0.00    -0.247 OA
HETATM   13  N5  UNL     1      15.999 -11.872  20.236  1.00  0.00    -0.341 N 
ATOM     14  H5  UNL     1      14.990 -11.920  20.092  1.00  0.00     0.164 HD
HETATM   15  C20 UNL     1      17.125 -11.227  16.629  1.00  0.00     0.256 C 
ENDROOT
BRANCH  13  16
HETATM   16  C7  UNL     1      16.507 -12.045  21.573  1.00  0.00     0.152 C 
BRANCH  16  17
HETATM   17  C8  UNL     1      16.442 -13.496  21.981  1.00  0.00     0.256 C 
BRANCH  17  18
HETATM   18  N6  UNL     1      17.692 -14.177  21.840  1.00  0.00    -0.069 N 
HETATM   19  C9  UNL     1      17.809 -14.872  20.566  1.00  0.00     0.272 C 
HETATM   20  C10 UNL     1      18.834 -13.291  21.936  1.00  0.00     0.240 C 
HETATM   21  C11 UNL     1      20.089 -14.010  22.380  1.00  0.00     0.072 C 
HETATM   22  C12 UNL     1      19.918 -14.410  23.829  1.00  0.00     0.099 C 
HETATM   23  C18 UNL     1      18.431 -14.423  24.111  1.00  0.00     0.072 C 
HETATM   24  C19 UNL     1      17.783 -15.148  22.928  1.00  0.00     0.240 C 
BRANCH  22  25
HETATM   25  C13 UNL     1      20.406 -15.801  23.996  1.00  0.00    -0.075 C 
HETATM   26  C14 UNL     1      20.800 -16.928  24.152  1.00  0.00    -0.108 C 
HETATM   27  C15 UNL     1      21.259 -18.304  24.354  1.00  0.00     0.112 C 
ENDBRANCH  22  25
BRANCH  22  28
HETATM   28  N7  UNL     1      20.632 -13.569  24.740  1.00  0.00    -0.341 N 
HETATM   29  C16 UNL     1      20.470 -13.738  26.128  1.00  0.00     0.214 C 
HETATM   30  C17 UNL     1      21.189 -12.892  27.132  1.00  0.00     0.117 C 
HETATM   31  O2  UNL     1      19.703 -14.620  26.610  1.00  0.00    -0.274 OA
ATOM     32  H7  UNL     1      21.258 -12.847  24.383  1.00  0.00     0.164 HD
ENDBRANCH  22  28
ENDBRANCH  17  18
ENDBRANCH  16  17
ENDBRANCH  13  16
TORSDOF 5
ENDMDL
MODEL 2
REMARK VINA RESULT: -7.457333656      1.478      1.578
REMARK  5 active torsions:
REMARK  status: ('A' for Active; 'I' for Inactive)
REMARK       I    between atoms: C3_5  and  N3_7 
REMARK       I    between atoms: N4_10  and  C6_11 
REMARK       I    between atoms: C6_11  and  N5_13 
REMARK    1  A    between atoms: N5_13  and  C7_15 
REMARK    2  A    between atoms: C7_15  and  C8_16 
REMARK    3  A    between atoms: C8_16  and  N6_17 
REMARK    4  A    between atoms: C12_21  and  C13_22 
REMARK    5  A    between atoms: C12_21  and  N7_25 
REMARK       I    between atoms: N7_25  and  C16_27 
ROOT
HETATM    1  C1  UNL     1      15.707 -11.558  10.728  1.00  0.00     0.037 C 
HETATM    2  C2  UNL     1      15.700 -11.311  11.908  1.00  0.00     0.001 C 
HETATM    3  N1  UNL     1      15.707 -11.029  13.282  1.00  0.00    -0.290 N 
ATOM      4  H1  UNL     1      15.175 -10.238  13.645  1.00  0.00     0.178 HD
HETATM    5  C3  UNL     1      16.390 -11.775  14.085  1.00  0.00     0.199 C 
HETATM    6  N2  UNL     1      17.139 -12.889  13.566  1.00  0.00    -0.063 NA
HETATM    7  N3  UNL     1      16.403 -11.499  15.474  1.00  0.00    -0.337 N 
HETATM    8  C4  UNL     1      15.241 -11.164  16.262  1.00  0.00     0.147 C 
HETATM    9  C5  UNL     1      15.559 -11.796  17.594  1.00  0.00     0.149 C 
HETATM   10  N4  UNL     1      16.996 -11.779  17.686  1.00  0.00    -0.316 N 
HETATM   11  C6  UNL     1      17.788 -11.999  18.841  1.00  0.00     0.319 C 
HETATM   12  O1  UNL     1      19.063 -11.956  18.791  1.00  0.00    -0.247 OA
HETATM   13  N5  UNL     1      17.223 -12.278  20.111  1.00  0.00    -0.341 N 
ATOM     14  H5  UNL     1      16.207 -12.320  20.191  1.00  0.00     0.164 HD
HETATM   15  C20 UNL     1      17.533 -11.492  16.372  1.00  0.00     0.256 C 
ENDROOT
BRANCH  13  16
HETATM   16  C7  UNL     1      18.012 -12.504  21.296  1.00  0.00     0.152 C 
BRANCH  16  17
HETATM   17  C8  UNL     1      17.267 -13.383  22.270  1.00  0.00     0.256 C 
BRANCH  17  18
HETATM   18  N6  UNL     1      17.884 -14.659  22.463  1.00  0.00    -0.069 N 
HETATM   19  C9  UNL     1      16.982 -15.765  22.177  1.00  0.00     0.272 C 
HETATM   20  C10 UNL     1      19.056 -14.852  21.633  1.00  0.00     0.240 C 
HETATM   21  C11 UNL     1      20.019 -15.862  22.218  1.00  0.00     0.072 C 
HETATM   22  C12 UNL     1      20.645 -15.256  23.455  1.00  0.00     0.099 C 
HETATM   23  C18 UNL     1      19.723 -14.151  23.922  1.00  0.00     0.072 C 
HETATM   24  C19 UNL     1      18.306 -14.730  23.860  1.00  0.00     0.240 C 
BRANCH  22  25
HETATM   25  C13 UNL     1      20.669 -16.285  24.524  1.00  0.00    -0.075 C 
HETATM   26  C14 UNL     1      20.688 -17.136  25.376  1.00  0.00    -0.108 C 
HETATM   27  C15 UNL     1      20.730 -18.179  26.403  1.00  0.00     0.112 C 
ENDBRANCH  22  25
BRANCH  22  28
HETATM   28  N7  UNL     1      21.981 -14.791  23.247  1.00  0.00    -0.341 N 
HETATM   29  C16 UNL     1      22.593 -13.956  24.202  1.00  0.00     0.214 C 
HETATM   30  C17 UNL     1      23.988 -13.437  24.044  1.00  0.00     0.117 C 
HETATM   31  O2  UNL     1      21.994 -13.594  25.256  1.00  0.00    -0.274 OA
ATOM     32  H7  UNL     1      22.492 -15.064  22.407  1.00  0.00     0.164 HD
ENDBRANCH  22  28
ENDBRANCH  17  18
ENDBRANCH  16  17
ENDBRANCH  13  16
TORSDOF 5
ENDMDL
MODEL 3
REMARK VINA RESULT: -7.319256957      1.665      2.694
REMARK  5 active torsions:
REMARK  status: ('A' for Active; 'I' for Inactive)
REMARK       I    between atoms: C3_5  and  N3_7 
REMARK       I    between atoms: N4_10  and  C6_11 
REMARK       I    between atoms: C6_11  and  N5_13 
REMARK    1  A    between atoms: N5_13  and  C7_15 
REMARK    2  A    between atoms: C7_15  and  C8_16 
REMARK    3  A    between atoms: C8_16  and  N6_17 
REMARK    4  A    between atoms: C12_21  and  C13_22 
REMARK    5  A    between atoms: C12_21  and  N7_25 
REMARK       I    between atoms: N7_25  and  C16_27 
ROOT
HETATM    1  C1  UNL     1      15.268 -11.383  10.728  1.00  0.00     0.037 C 
HETATM    2  C2  UNL     1      15.326 -11.241  11.924  1.00  0.00     0.001 C 
HETATM    3  N1  UNL     1      15.409 -11.080  13.314  1.00  0.00    -0.290 N 
ATOM      4  H1  UNL     1      14.812 -10.402  13.788  1.00  0.00     0.178 HD
HETATM    5  C3  UNL     1      16.245 -11.793  13.993  1.00  0.00     0.199 C 
HETATM    6  N2  UNL     1      17.085 -12.748  13.318  1.00  0.00    -0.063 NA
HETATM    7  N3  UNL     1      16.336 -11.639  15.397  1.00  0.00    -0.337 N 
HETATM    8  C4  UNL     1      15.209 -11.532  16.293  1.00  0.00     0.147 C 
HETATM    9  C5  UNL     1      15.714 -12.229  17.533  1.00  0.00     0.149 C 
HETATM   10  N4  UNL     1      17.139 -12.026  17.525  1.00  0.00    -0.316 N 
HETATM   11  C6  UNL     1      18.045 -12.236  18.596  1.00  0.00     0.319 C 
HETATM   12  O1  UNL     1      19.295 -12.017  18.461  1.00  0.00    -0.247 OA
HETATM   13  N5  UNL     1      17.626 -12.697  19.870  1.00  0.00    -0.341 N 
ATOM     14  H5  UNL     1      16.634 -12.881  20.016  1.00  0.00     0.164 HD
HETATM   15  C20 UNL     1      17.526 -11.557  16.211  1.00  0.00     0.256 C 
ENDROOT
BRANCH  13  16
HETATM   16  C7  UNL     1      18.532 -12.916  20.969  1.00  0.00     0.152 C 
BRANCH  16  17
HETATM   17  C8  UNL     1      18.791 -14.391  21.157  1.00  0.00     0.256 C 
BRANCH  17  18
HETATM   18  N6  UNL     1      19.027 -14.751  22.520  1.00  0.00    -0.069 N 
HETATM   19  C9  UNL     1      17.807 -15.131  23.218  1.00  0.00     0.272 C 
HETATM   20  C10 UNL     1      19.949 -15.860  22.661  1.00  0.00     0.240 C 
HETATM   21  C11 UNL     1      20.651 -15.863  24.001  1.00  0.00     0.072 C 
HETATM   22  C12 UNL     1      21.608 -14.693  24.037  1.00  0.00     0.099 C 
HETATM   23  C18 UNL     1      21.135 -13.702  22.996  1.00  0.00     0.072 C 
HETATM   24  C19 UNL     1      19.618 -13.589  23.181  1.00  0.00     0.240 C 
BRANCH  22  25
HETATM   25  C13 UNL     1      21.492 -14.028  25.358  1.00  0.00    -0.075 C 
HETATM   26  C14 UNL     1      21.401 -13.469  26.421  1.00  0.00    -0.108 C 
HETATM   27  C15 UNL     1      21.274 -12.775  27.705  1.00  0.00     0.112 C 
ENDBRANCH  22  25
BRANCH  22  28
HETATM   28  N7  UNL     1      22.975 -15.068  23.840  1.00  0.00    -0.341 N 
HETATM   29  C16 UNL     1      23.557 -16.058  24.655  1.00  0.00     0.214 C 
HETATM   30  C17 UNL     1      24.980 -16.496  24.498  1.00  0.00     0.117 C 
HETATM   31  O2  UNL     1      22.907 -16.639  25.571  1.00  0.00    -0.274 OA
ATOM     32  H7  UNL     1      23.527 -14.619  23.110  1.00  0.00     0.164 HD
ENDBRANCH  22  28
ENDBRANCH  17  18
ENDBRANCH  16  17
ENDBRANCH  13  16
TORSDOF 5
ENDMDL
MODEL 4
REMARK VINA RESULT: -7.088947151      3.718      9.613
REMARK  5 active torsions:
REMARK  status: ('A' for Active; 'I' for Inactive)
REMARK       I    between atoms: C3_5  and  N3_7 
REMARK       I    between atoms: N4_10  and  C6_11 
REMARK       I    between atoms: C6_11  and  N5_13 
REMARK    1  A    between atoms: N5_13  and  C7_15 
REMARK    2  A    between atoms: C7_15  and  C8_16 
REMARK    3  A    between atoms: C8_16  and  N6_17 
REMARK    4  A    between atoms: C12_21  and  C13_22 
REMARK    5  A    between atoms: C12_21  and  N7_25 
REMARK       I    between atoms: N7_25  and  C16_27 
ROOT
HETATM    1  C1  UNL     1      24.930 -17.803  26.893  1.00  0.00     0.037 C 
HETATM    2  C2  UNL     1      23.926 -17.295  26.459  1.00  0.00     0.001 C 
HETATM    3  N1  UNL     1      22.766 -16.706  25.937  1.00  0.00    -0.290 N 
ATOM      4  H1  UNL     1      21.871 -16.831  26.411  1.00  0.00     0.178 HD
HETATM    5  C3  UNL     1      22.834 -16.004  24.856  1.00  0.00     0.199 C 
HETATM    6  N2  UNL     1      24.100 -15.832  24.192  1.00  0.00    -0.063 NA
HETATM    7  N3  UNL     1      21.668 -15.404  24.322  1.00  0.00    -0.337 N 
HETATM    8  C4  UNL     1      20.671 -14.701  25.095  1.00  0.00     0.147 C 
HETATM    9  C5  UNL     1      20.222 -13.623  24.140  1.00  0.00     0.149 C 
HETATM   10  N4  UNL     1      20.407 -14.182  22.825  1.00  0.00    -0.316 N 
HETATM   11  C6  UNL     1      19.886 -13.693  21.601  1.00  0.00     0.319 C 
HETATM   12  O1  UNL     1      20.124 -14.285  20.495  1.00  0.00    -0.247 OA
HETATM   13  N5  UNL     1      19.078 -12.530  21.525  1.00  0.00    -0.341 N 
ATOM     14  H5  UNL     1      18.866 -12.031  22.389  1.00  0.00     0.164 HD
HETATM   15  C20 UNL     1      21.235 -15.364  22.945  1.00  0.00     0.256 C 
ENDROOT
BRANCH  13  16
HETATM   16  C7  UNL     1      18.541 -12.019  20.290  1.00  0.00     0.152 C 
BRANCH  16  17
HETATM   17  C8  UNL     1      17.356 -12.840  19.846  1.00  0.00     0.256 C 
BRANCH  17  18
HETATM   18  N6  UNL     1      16.108 -12.160  20.007  1.00  0.00    -0.069 N 
HETATM   19  C9  UNL     1      16.249 -10.712  19.947  1.00  0.00     0.272 C 
HETATM   20  C10 UNL     1      15.131 -12.524  19.001  1.00  0.00     0.240 C 
HETATM   21  C11 UNL     1      13.709 -12.310  19.472  1.00  0.00     0.072 C 
HETATM   22  C12 UNL     1      13.406 -13.333  20.544  1.00  0.00     0.099 C 
HETATM   23  C18 UNL     1      14.735 -13.802  21.096  1.00  0.00     0.072 C 
HETATM   24  C19 UNL     1      15.572 -12.538  21.313  1.00  0.00     0.240 C 
BRANCH  22  25
HETATM   25  C13 UNL     1      12.688 -12.657  21.653  1.00  0.00    -0.075 C 
HETATM   26  C14 UNL     1      12.122 -12.095  22.555  1.00  0.00    -0.108 C 
HETATM   27  C15 UNL     1      11.436 -11.391  23.641  1.00  0.00     0.112 C 
ENDBRANCH  22  25
BRANCH  22  28
HETATM   28  N7  UNL     1      12.601 -14.421  20.083  1.00  0.00    -0.341 N 
HETATM   29  C16 UNL     1      12.619 -15.651  20.768  1.00  0.00     0.214 C 
HETATM   30  C17 UNL     1      11.798 -16.826  20.336  1.00  0.00     0.117 C 
HETATM   31  O2  UNL     1      13.334 -15.835  21.795  1.00  0.00    -0.274 OA
ATOM     32  H7  UNL     1      12.013 -14.306  19.257  1.00  0.00     0.164 HD
ENDBRANCH  22  28
ENDBRANCH  17  18
ENDBRANCH  16  17
ENDBRANCH  13  16
TORSDOF 5
ENDMDL
MODEL 5
REMARK VINA RESULT: -7.074330654      3.967      9.826
REMARK  5 active torsions:
REMARK  status: ('A' for Active; 'I' for Inactive)
REMARK       I    between atoms: C3_5  and  N3_7 
REMARK       I    between atoms: N4_10  and  C6_11 
REMARK       I    between atoms: C6_11  and  N5_13 
REMARK    1  A    between atoms: N5_13  and  C7_15 
REMARK    2  A    between atoms: C7_15  and  C8_16 
REMARK    3  A    between atoms: C8_16  and  N6_17 
REMARK    4  A    between atoms: C12_21  and  C13_22 
REMARK    5  A    between atoms: C12_21  and  N7_25 
REMARK       I    between atoms: N7_25  and  C16_27 
ROOT
HETATM    1  C1  UNL     1      24.544 -18.480  27.434  1.00  0.00     0.037 C 
HETATM    2  C2  UNL     1      24.078 -17.494  26.918  1.00  0.00     0.001 C 
HETATM    3  N1  UNL     1      23.520 -16.356  26.319  1.00  0.00    -0.290 N 
ATOM      4  H1  UNL     1      23.940 -15.439  26.473  1.00  0.00     0.178 HD
HETATM    5  C3  UNL     1      22.474 -16.472  25.572  1.00  0.00     0.199 C 
HETATM    6  N2  UNL     1      21.886 -17.769  25.359  1.00  0.00    -0.063 NA
HETATM    7  N3  UNL     1      21.904 -15.329  24.962  1.00  0.00    -0.337 N 
HETATM    8  C4  UNL     1      22.651 -14.284  24.303  1.00  0.00     0.147 C 
HETATM    9  C5  UNL     1      21.719 -13.873  23.189  1.00  0.00     0.149 C 
HETATM   10  N4  UNL     1      20.394 -14.134  23.691  1.00  0.00    -0.316 N 
HETATM   11  C6  UNL     1      19.165 -13.673  23.156  1.00  0.00     0.319 C 
HETATM   12  O1  UNL     1      18.050 -13.976  23.698  1.00  0.00    -0.247 OA
HETATM   13  N5  UNL     1      19.094 -12.856  21.999  1.00  0.00    -0.341 N 
ATOM     14  H5  UNL     1      19.966 -12.592  21.539  1.00  0.00     0.164 HD
HETATM   15  C20 UNL     1      20.509 -14.969  24.869  1.00  0.00     0.256 C 
ENDROOT
BRANCH  13  16
HETATM   16  C7  UNL     1      17.854 -12.379  21.442  1.00  0.00     0.152 C 
BRANCH  16  17
HETATM   17  C8  UNL     1      17.463 -13.200  20.238  1.00  0.00     0.256 C 
BRANCH  17  18
HETATM   18  N6  UNL     1      16.351 -14.065  20.484  1.00  0.00    -0.069 N 
HETATM   19  C9  UNL     1      16.761 -15.428  20.790  1.00  0.00     0.272 C 
HETATM   20  C10 UNL     1      15.522 -13.622  21.586  1.00  0.00     0.240 C 
HETATM   21  C11 UNL     1      14.101 -14.131  21.483  1.00  0.00     0.072 C 
HETATM   22  C12 UNL     1      13.430 -13.429  20.323  1.00  0.00     0.099 C 
HETATM   23  C18 UNL     1      14.530 -12.917  19.420  1.00  0.00     0.072 C 
HETATM   24  C19 UNL     1      15.529 -14.070  19.276  1.00  0.00     0.240 C 
BRANCH  22  25
HETATM   25  C13 UNL     1      12.658 -14.430  19.547  1.00  0.00    -0.075 C 
HETATM   26  C14 UNL     1      12.048 -15.258  18.920  1.00  0.00    -0.108 C 
HETATM   27  C15 UNL     1      11.307 -16.278  18.175  1.00  0.00     0.112 C 
ENDBRANCH  22  25
BRANCH  22  28
HETATM   28  N7  UNL     1      12.537 -12.387  20.728  1.00  0.00    -0.341 N 
HETATM   29  C16 UNL     1      13.025 -11.082  20.933  1.00  0.00     0.214 C 
HETATM   30  C17 UNL     1      12.142  -9.949  21.355  1.00  0.00     0.117 C 
HETATM   31  O2  UNL     1      14.244 -10.789  20.770  1.00  0.00    -0.274 OA
ATOM     32  H7  UNL     1      11.548 -12.590  20.869  1.00  0.00     0.164 HD
ENDBRANCH  22  28
ENDBRANCH  17  18
ENDBRANCH  16  17
ENDBRANCH  13  16
TORSDOF 5
ENDMDL
