MODEL 1
REMARK VINA RESULT: -7.441455369      0.000      0.000
REMARK  6 active torsions:
REMARK  status: ('A' for Active; 'I' for Inactive)
REMARK    1  A    between atoms: C3_3  and  C4_4 
REMARK    2  A    between atoms: C5_6  and  O1_7 
REMARK    3  A    between atoms: N1_10  and  C7_11 
REMARK    4  A    between atoms: C7_11  and  C8_12 
REMARK    5  A    between atoms: C8_12  and  N2_13 
REMARK    6  A    between atoms: N2_13  and  C9_15 
ROOT
HETATM    1  C1  UNL     1      12.282 -10.404  21.497  1.00  0.00     0.015 C 
HETATM    2  C2  UNL     1      12.932 -11.294  20.997  1.00  0.00    -0.074 C 
HETATM    3  C3  UNL     1      13.738 -12.369  20.361  1.00  0.00     0.226 C 
HETATM    4  C5  UNL     1      14.446 -13.106  21.462  1.00  0.00     0.194 C 
HETATM    5  C6  UNL     1      15.879 -12.873  21.659  1.00  0.00     0.272 C 
HETATM    6  N1  UNL     1      16.737 -12.843  20.530  1.00  0.00    -0.060 N 
HETATM    7  C15 UNL     1      16.320 -13.548  19.368  1.00  0.00     0.265 C 
HETATM    8  C16 UNL     1      15.347 -12.690  18.605  1.00  0.00     0.267 C 
HETATM    9  N4  UNL     1      14.598 -11.768  19.414  1.00  0.00    -0.045 N 
HETATM   10  C17 UNL     1      13.869 -10.919  18.485  1.00  0.00     0.274 C 
HETATM   11  C18 UNL     1      15.492 -10.872  20.125  1.00  0.00     0.267 C 
HETATM   12  C19 UNL     1      16.889 -11.414  20.184  1.00  0.00     0.265 C 
ENDROOT
BRANCH   3  13
HETATM   13  C4  UNL     1      12.719 -13.346  19.817  1.00  0.00     0.141 C 
HETATM   14 BR1  UNL     1      12.978 -15.169  20.337  1.00  0.00    -0.093 Br
ENDBRANCH   3  13
BRANCH   4  15
HETATM   15  O1  UNL     1      13.791 -12.797  22.669  1.00  0.00    -0.390 OA
ATOM     16  H1  UNL     1      13.991 -11.892  22.882  1.00  0.00     0.210 HD
ENDBRANCH   4  15
BRANCH   6  17
HETATM   17  C7  UNL     1      18.100 -13.310  20.876  1.00  0.00     0.257 C 
BRANCH  17  18
HETATM   18  C8  UNL     1      18.135 -13.892  22.236  1.00  0.00     0.142 C 
BRANCH  18  19
HETATM   19  N2  UNL     1      19.139 -13.338  23.068  1.00  0.00    -0.415 N 
ATOM     20  H2  UNL     1      19.098 -12.352  23.323  1.00  0.00     0.153 HD
BRANCH  19  21
HETATM   21  C9  UNL     1      20.192 -14.141  23.543  1.00  0.00     0.088 A 
HETATM   22  C10 UNL     1      21.664 -13.726  23.356  1.00  0.00     0.039 A 
HETATM   23  C11 UNL     1      21.006 -13.772  24.674  1.00  0.00     0.014 A 
HETATM   24  C12 UNL     1      20.811 -12.639  25.598  1.00  0.00     0.049 A 
HETATM   25  C14 UNL     1      21.443 -14.723  25.752  1.00  0.00     0.227 A 
HETATM   26  C13 UNL     1      21.128 -13.605  26.751  1.00  0.00     0.218 A 
HETATM   27  N3  UNL     1      22.404 -14.290  26.717  1.00  0.00    -0.062 N 
ATOM     28  H32 UNL     1      23.364 -13.956  26.633  1.00  0.00     0.278 HD
ATOM     29  H31 UNL     1      22.939 -14.788  27.429  1.00  0.00     0.278 HD
ENDBRANCH  19  21
ENDBRANCH  18  19
ENDBRANCH  17  18
ENDBRANCH   6  17
TORSDOF 6
ENDMDL
MODEL 2
REMARK VINA RESULT: -7.340806171      0.982      1.277
REMARK  6 active torsions:
REMARK  status: ('A' for Active; 'I' for Inactive)
REMARK    1  A    between atoms: C3_3  and  C4_4 
REMARK    2  A    between atoms: C5_6  and  O1_7 
REMARK    3  A    between atoms: N1_10  and  C7_11 
REMARK    4  A    between atoms: C7_11  and  C8_12 
REMARK    5  A    between atoms: C8_12  and  N2_13 
REMARK    6  A    between atoms: N2_13  and  C9_15 
ROOT
HETATM    1  C1  UNL     1      12.635 -10.619  20.891  1.00  0.00     0.015 C 
HETATM    2  C2  UNL     1      13.395 -11.500  20.559  1.00  0.00    -0.074 C 
HETATM    3  C3  UNL     1      14.336 -12.567  20.127  1.00  0.00     0.226 C 
HETATM    4  C5  UNL     1      14.965 -13.134  21.367  1.00  0.00     0.194 C 
HETATM    5  C6  UNL     1      16.348 -12.773  21.686  1.00  0.00     0.272 C 
HETATM    6  N1  UNL     1      17.322 -12.787  20.655  1.00  0.00    -0.060 N 
HETATM    7  C15 UNL     1      17.085 -13.633  19.537  1.00  0.00     0.265 C 
HETATM    8  C16 UNL     1      16.148 -12.931  18.591  1.00  0.00     0.267 C 
HETATM    9  N4  UNL     1      15.254 -11.995  19.216  1.00  0.00    -0.045 N 
HETATM   10  C17 UNL     1      14.577 -11.301  18.132  1.00  0.00     0.274 C 
HETATM   11  C18 UNL     1      16.001 -10.968  19.918  1.00  0.00     0.267 C 
HETATM   12  C19 UNL     1      17.416 -11.392  20.178  1.00  0.00     0.265 C 
ENDROOT
BRANCH   3  13
HETATM   13  C4  UNL     1      13.451 -13.668  19.586  1.00  0.00     0.141 C 
HETATM   14 BR1  UNL     1      13.807 -15.415  20.280  1.00  0.00    -0.093 Br
ENDBRANCH   3  13
BRANCH   4  15
HETATM   15  O1  UNL     1      14.160 -12.761  22.460  1.00  0.00    -0.390 OA
ATOM     16  H1  UNL     1      13.609 -12.040  22.178  1.00  0.00     0.210 HD
ENDBRANCH   4  15
BRANCH   6  17
HETATM   17  C7  UNL     1      18.666 -13.111  21.187  1.00  0.00     0.257 C 
BRANCH  17  18
HETATM   18  C8  UNL     1      18.806 -14.563  21.436  1.00  0.00     0.142 C 
BRANCH  18  19
HETATM   19  N2  UNL     1      19.351 -14.875  22.706  1.00  0.00    -0.415 N 
ATOM     20  H2  UNL     1      19.830 -15.764  22.849  1.00  0.00     0.153 HD
BRANCH  19  21
HETATM   21  C9  UNL     1      19.235 -13.964  23.773  1.00  0.00     0.088 A 
HETATM   22  C10 UNL     1      18.565 -14.366  25.100  1.00  0.00     0.039 A 
HETATM   23  C11 UNL     1      20.006 -14.078  24.985  1.00  0.00     0.014 A 
HETATM   24  C12 UNL     1      21.112 -15.012  25.268  1.00  0.00     0.049 A 
HETATM   25  C14 UNL     1      20.649 -12.921  25.695  1.00  0.00     0.227 A 
HETATM   26  C13 UNL     1      21.867 -13.828  25.894  1.00  0.00     0.218 A 
HETATM   27  N3  UNL     1      21.224 -13.127  26.986  1.00  0.00    -0.062 N 
ATOM     28  H32 UNL     1      20.832 -13.443  27.873  1.00  0.00     0.278 HD
ATOM     29  H31 UNL     1      21.575 -12.483  27.696  1.00  0.00     0.278 HD
ENDBRANCH  19  21
ENDBRANCH  18  19
ENDBRANCH  17  18
ENDBRANCH   6  17
TORSDOF 6
ENDMDL
MODEL 3
REMARK VINA RESULT: -7.339313067      2.982      7.520
REMARK  6 active torsions:
REMARK  status: ('A' for Active; 'I' for Inactive)
REMARK    1  A    between atoms: C3_3  and  C4_4 
REMARK    2  A    between atoms: C5_6  and  O1_7 
REMARK    3  A    between atoms: N1_10  and  C7_11 
REMARK    4  A    between atoms: C7_11  and  C8_12 
REMARK    5  A    between atoms: C8_12  and  N2_13 
REMARK    6  A    between atoms: N2_13  and  C9_15 
ROOT
HETATM    1  C1  UNL     1      18.896 -17.464  24.365  1.00  0.00     0.015 C 
HETATM    2  C2  UNL     1      19.168 -16.368  23.933  1.00  0.00    -0.074 C 
HETATM    3  C3  UNL     1      19.511 -15.033  23.375  1.00  0.00     0.226 C 
HETATM    4  C5  UNL     1      18.462 -14.069  23.852  1.00  0.00     0.194 C 
HETATM    5  C6  UNL     1      17.438 -13.617  22.907  1.00  0.00     0.272 C 
HETATM    6  N1  UNL     1      17.824 -13.231  21.598  1.00  0.00    -0.060 N 
HETATM    7  C15 UNL     1      19.160 -12.781  21.413  1.00  0.00     0.265 C 
HETATM    8  C16 UNL     1      20.061 -13.981  21.286  1.00  0.00     0.267 C 
HETATM    9  N4  UNL     1      19.595 -15.156  21.969  1.00  0.00    -0.045 N 
HETATM   10  C17 UNL     1      20.489 -16.232  21.574  1.00  0.00     0.274 C 
HETATM   11  C18 UNL     1      18.288 -15.548  21.474  1.00  0.00     0.267 C 
HETATM   12  C19 UNL     1      17.608 -14.423  20.752  1.00  0.00     0.265 C 
ENDROOT
BRANCH   3  13
HETATM   13  C4  UNL     1      20.780 -14.629  24.091  1.00  0.00     0.141 C 
HETATM   14 BR1  UNL     1      20.595 -13.178  25.323  1.00  0.00    -0.093 Br
ENDBRANCH   3  13
BRANCH   4  15
HETATM   15  O1  UNL     1      17.805 -14.663  24.946  1.00  0.00    -0.390 OA
ATOM     16  H1  UNL     1      17.379 -13.969  25.436  1.00  0.00     0.210 HD
ENDBRANCH   4  15
BRANCH   6  17
HETATM   17  C7  UNL     1      16.920 -12.193  21.052  1.00  0.00     0.257 C 
BRANCH  17  18
HETATM   18  C8  UNL     1      15.556 -12.323  21.615  1.00  0.00     0.142 C 
BRANCH  18  19
HETATM   19  N2  UNL     1      14.573 -11.596  20.901  1.00  0.00    -0.415 N 
ATOM     20  H2  UNL     1      14.320 -11.880  19.954  1.00  0.00     0.153 HD
BRANCH  19  21
HETATM   21  C9  UNL     1      13.942 -10.485  21.490  1.00  0.00     0.088 A 
HETATM   22  C10 UNL     1      12.697  -9.840  20.853  1.00  0.00     0.039 A 
HETATM   23  C11 UNL     1      12.655 -10.568  22.134  1.00  0.00     0.014 A 
HETATM   24  C12 UNL     1      11.868 -11.780  22.428  1.00  0.00     0.049 A 
HETATM   25  C14 UNL     1      12.308  -9.889  23.428  1.00  0.00     0.227 A 
HETATM   26  C13 UNL     1      11.588 -11.184  23.818  1.00  0.00     0.218 A 
HETATM   27  N3  UNL     1      10.949  -9.885  23.871  1.00  0.00    -0.062 N 
ATOM     28  H32 UNL     1      10.090  -9.521  23.458  1.00  0.00     0.278 HD
ATOM     29  H31 UNL     1      10.468  -9.382  24.617  1.00  0.00     0.278 HD
ENDBRANCH  19  21
ENDBRANCH  18  19
ENDBRANCH  17  18
ENDBRANCH   6  17
TORSDOF 6
ENDMDL
MODEL 4
REMARK VINA RESULT: -7.273950415      1.061      1.498
REMARK  6 active torsions:
REMARK  status: ('A' for Active; 'I' for Inactive)
REMARK    1  A    between atoms: C3_3  and  C4_4 
REMARK    2  A    between atoms: C5_6  and  O1_7 
REMARK    3  A    between atoms: N1_10  and  C7_11 
REMARK    4  A    between atoms: C7_11  and  C8_12 
REMARK    5  A    between atoms: C8_12  and  N2_13 
REMARK    6  A    between atoms: N2_13  and  C9_15 
ROOT
HETATM    1  C1  UNL     1      13.032 -10.087  20.457  1.00  0.00     0.015 C 
HETATM    2  C2  UNL     1      13.660 -11.113  20.328  1.00  0.00    -0.074 C 
HETATM    3  C3  UNL     1      14.447 -12.361  20.145  1.00  0.00     0.226 C 
HETATM    4  C5  UNL     1      14.764 -12.891  21.514  1.00  0.00     0.194 C 
HETATM    5  C6  UNL     1      16.125 -12.735  22.033  1.00  0.00     0.272 C 
HETATM    6  N1  UNL     1      17.226 -13.020  21.187  1.00  0.00    -0.060 N 
HETATM    7  C15 UNL     1      17.013 -13.928  20.114  1.00  0.00     0.265 C 
HETATM    8  C16 UNL     1      16.375 -13.184  18.971  1.00  0.00     0.267 C 
HETATM    9  N4  UNL     1      15.582 -12.051  19.361  1.00  0.00    -0.045 N 
HETATM   10  C17 UNL     1      15.217 -11.372  18.128  1.00  0.00     0.274 C 
HETATM   11  C18 UNL     1      16.387 -11.094  20.098  1.00  0.00     0.267 C 
HETATM   12  C19 UNL     1      17.645 -11.718  20.626  1.00  0.00     0.265 C 
ENDROOT
BRANCH   3  13
HETATM   13  C4  UNL     1      13.469 -13.350  19.549  1.00  0.00     0.141 C 
HETATM   14 BR1  UNL     1      13.355 -15.030  20.457  1.00  0.00    -0.093 Br
ENDBRANCH   3  13
BRANCH   4  15
HETATM   15  O1  UNL     1      13.884 -12.275  22.423  1.00  0.00    -0.390 OA
ATOM     16  H1  UNL     1      14.297 -12.290  23.278  1.00  0.00     0.210 HD
ENDBRANCH   4  15
BRANCH   6  17
HETATM   17  C7  UNL     1      18.392 -13.505  21.963  1.00  0.00     0.257 C 
BRANCH  17  18
HETATM   18  C8  UNL     1      17.961 -14.342  23.105  1.00  0.00     0.142 C 
BRANCH  18  19
HETATM   19  N2  UNL     1      18.638 -14.049  24.315  1.00  0.00    -0.415 N 
ATOM     20  H2  UNL     1      18.205 -14.282  25.208  1.00  0.00     0.153 HD
BRANCH  19  21
HETATM   21  C9  UNL     1      19.906 -13.438  24.290  1.00  0.00     0.088 A 
HETATM   22  C10 UNL     1      20.613 -13.008  25.589  1.00  0.00     0.039 A 
HETATM   23  C11 UNL     1      21.103 -14.105  24.735  1.00  0.00     0.014 A 
HETATM   24  C12 UNL     1      21.258 -15.519  25.126  1.00  0.00     0.049 A 
HETATM   25  C14 UNL     1      22.426 -14.036  24.027  1.00  0.00     0.227 A 
HETATM   26  C13 UNL     1      22.559 -15.537  24.307  1.00  0.00     0.218 A 
HETATM   27  N3  UNL     1      23.586 -14.578  24.662  1.00  0.00    -0.062 N 
ATOM     28  H32 UNL     1      24.054 -14.364  25.542  1.00  0.00     0.278 HD
ATOM     29  H31 UNL     1      24.581 -14.521  24.446  1.00  0.00     0.278 HD
ENDBRANCH  19  21
ENDBRANCH  18  19
ENDBRANCH  17  18
ENDBRANCH   6  17
TORSDOF 6
ENDMDL
MODEL 5
REMARK VINA RESULT: -7.156176873      1.973      2.970
REMARK  6 active torsions:
REMARK  status: ('A' for Active; 'I' for Inactive)
REMARK    1  A    between atoms: C3_3  and  C4_4 
REMARK    2  A    between atoms: C5_6  and  O1_7 
REMARK    3  A    between atoms: N1_10  and  C7_11 
REMARK    4  A    between atoms: C7_11  and  C8_12 
REMARK    5  A    between atoms: C8_12  and  N2_13 
REMARK    6  A    between atoms: N2_13  and  C9_15 
ROOT
HETATM    1  C1  UNL     1      15.035 -11.883  16.660  1.00  0.00     0.015 C 
HETATM    2  C2  UNL     1      14.947 -11.965  17.864  1.00  0.00    -0.074 C 
HETATM    3  C3  UNL     1      14.828 -12.093  19.340  1.00  0.00     0.226 C 
HETATM    4  C5  UNL     1      15.996 -11.368  19.945  1.00  0.00     0.194 C 
HETATM    5  C6  UNL     1      17.105 -12.152  20.494  1.00  0.00     0.272 C 
HETATM    6  N1  UNL     1      16.821 -13.279  21.306  1.00  0.00    -0.060 N 
HETATM    7  C15 UNL     1      15.576 -13.300  21.991  1.00  0.00     0.265 C 
HETATM    8  C16 UNL     1      14.507 -13.763  21.037  1.00  0.00     0.267 C 
HETATM    9  N4  UNL     1      14.768 -13.470  19.655  1.00  0.00    -0.045 N 
HETATM   10  C17 UNL     1      13.733 -14.153  18.896  1.00  0.00     0.274 C 
HETATM   11  C18 UNL     1      16.015 -14.081  19.231  1.00  0.00     0.267 C 
HETATM   12  C19 UNL     1      16.879 -14.446  20.401  1.00  0.00     0.265 C 
ENDROOT
BRANCH   3  13
HETATM   13  C4  UNL     1      13.613 -11.268  19.703  1.00  0.00     0.141 C 
HETATM   14 BR1  UNL     1      13.848 -10.079  21.183  1.00  0.00    -0.093 Br
ENDBRANCH   3  13
BRANCH   4  15
HETATM   15  O1  UNL     1      16.522 -10.512  18.959  1.00  0.00    -0.390 OA
ATOM     16  H1  UNL     1      16.711  -9.679  19.374  1.00  0.00     0.210 HD
ENDBRANCH   4  15
BRANCH   6  17
HETATM   17  C7  UNL     1      17.889 -13.506  22.307  1.00  0.00     0.257 C 
BRANCH  17  18
HETATM   18  C8  UNL     1      18.019 -14.945  22.631  1.00  0.00     0.142 C 
BRANCH  18  19
HETATM   19  N2  UNL     1      17.965 -15.224  24.019  1.00  0.00    -0.415 N 
ATOM     20  H2  UNL     1      17.418 -16.016  24.356  1.00  0.00     0.153 HD
BRANCH  19  21
HETATM   21  C9  UNL     1      18.661 -14.414  24.935  1.00  0.00     0.088 A 
HETATM   22  C10 UNL     1      19.299 -15.008  26.206  1.00  0.00     0.039 A 
HETATM   23  C11 UNL     1      20.093 -14.463  25.090  1.00  0.00     0.014 A 
HETATM   24  C12 UNL     1      21.067 -15.202  24.264  1.00  0.00     0.049 A 
HETATM   25  C14 UNL     1      20.972 -13.256  25.250  1.00  0.00     0.227 A 
HETATM   26  C13 UNL     1      21.949 -13.942  24.290  1.00  0.00     0.218 A 
HETATM   27  N3  UNL     1      22.349 -13.434  25.587  1.00  0.00    -0.062 N 
ATOM     28  H32 UNL     1      22.813 -13.868  26.384  1.00  0.00     0.278 HD
ATOM     29  H31 UNL     1      23.078 -12.783  25.877  1.00  0.00     0.278 HD
ENDBRANCH  19  21
ENDBRANCH  18  19
ENDBRANCH  17  18
ENDBRANCH   6  17
TORSDOF 6
ENDMDL
