MODEL 1
REMARK VINA RESULT: -7.432419982      0.000      0.000
REMARK  9 active torsions:
REMARK  status: ('A' for Active; 'I' for Inactive)
REMARK    1  A    between atoms: O1_2  and  C2_3 
REMARK    2  A    between atoms: C2_3  and  C3_5 
REMARK    3  A    between atoms: C5_11  and  N2_12 
REMARK    4  A    between atoms: C5_11  and  C6_16 
REMARK    5  A    between atoms: N3_18  and  N4_20 
REMARK    6  A    between atoms: N4_20  and  C8_22 
REMARK    7  A    between atoms: C8_22  and  O4_23 
REMARK    8  A    between atoms: C8_22  and  C9_25 
REMARK    9  A    between atoms: C11_27  and  O5_28 
ROOT
HETATM    1  C3  UNL     1      68.579  38.040  26.572  1.00  0.00     0.322 A 
HETATM    2  O3  UNL     1      69.110  37.190  27.590  1.00  0.00    -0.283 OA
HETATM    3  C4  UNL     1      70.191  37.594  28.362  1.00  0.00     0.186 C 
HETATM    4  N1  UNL     1      70.662  36.877  29.324  1.00  0.00    -0.379 N 
ATOM      5  H11 UNL     1      71.456  37.174  29.891  1.00  0.00     0.158 HD
ATOM      6  H12 UNL     1      70.254  35.972  29.560  1.00  0.00     0.158 HD
HETATM    7  C5  UNL     1      70.789  38.919  28.016  1.00  0.00     0.332 C 
HETATM    8  O6  UNL     1      69.732  39.775  27.778  1.00  0.00    -0.301 OA
HETATM    9  C12 UNL     1      68.891  39.383  26.771  1.00  0.00     0.235 A 
HETATM   10  C13 UNL     1      67.897  40.468  26.352  1.00  0.00     0.086 C 
HETATM   11  O7  UNL     1      69.456  38.681  25.727  1.00  0.00    -0.299 OA
ENDROOT
BRANCH   7  12
HETATM   12  N2  UNL     1      71.662  38.787  26.864  1.00  0.00    -0.033 N 
ATOM     13  H23 UNL     1      72.606  38.508  27.130  1.00  0.00     0.279 HD
ATOM     14  H22 UNL     1      71.421  37.976  26.293  1.00  0.00     0.279 HD
ATOM     15  H21 UNL     1      71.658  39.651  26.320  1.00  0.00     0.279 HD
ENDBRANCH   7  12
BRANCH   7  16
HETATM   16  C6  UNL     1      71.614  39.447  29.118  1.00  0.00     0.070 C 
HETATM   17  C7  UNL     1      71.010  40.025  30.340  1.00  0.00     0.071 C 
HETATM   18  N3  UNL     1      72.896  39.412  29.029  1.00  0.00    -0.306 N 
ATOM     19  H3  UNL     1      73.293  39.011  28.179  1.00  0.00     0.186 HD
BRANCH  18  20
HETATM   20  N4  UNL     1      73.780  39.869  29.981  1.00  0.00    -0.307 N 
ATOM     21  H4  UNL     1      73.441  39.976  30.936  1.00  0.00     0.183 HD
BRANCH  20  22
HETATM   22  C8  UNL     1      75.163  40.205  29.708  1.00  0.00     0.239 C 
BRANCH  22  23
HETATM   23  O4  UNL     1      75.164  41.294  28.857  1.00  0.00    -0.375 OA
ATOM     24  H4  UNL     1      75.000  42.067  29.384  1.00  0.00     0.212 HD
ENDBRANCH  22  23
BRANCH  22  25
HETATM   25  C9  UNL     1      75.931  40.511  30.989  1.00  0.00     0.067 A 
HETATM   26  C10 UNL     1      77.419  40.306  30.920  1.00  0.00     0.043 A 
HETATM   27  C11 UNL     1      76.849  41.688  31.033  1.00  0.00     0.127 A 
BRANCH  27  28
HETATM   28  O5  UNL     1      77.053  42.396  32.200  1.00  0.00    -0.395 OA
ATOM     29  H5  UNL     1      77.778  43.002  32.290  1.00  0.00     0.210 HD
ENDBRANCH  27  28
ENDBRANCH  22  25
ENDBRANCH  20  22
ENDBRANCH  18  20
ENDBRANCH   7  16
BRANCH   1  30
HETATM   30  C2  UNL     1      67.323  37.599  25.960  1.00  0.00     0.328 C 
HETATM   31  O2  UNL     1      66.350  37.323  26.723  1.00  0.00    -0.259 OA
BRANCH  30  32
HETATM   32  O1  UNL     1      67.111  37.459  24.603  1.00  0.00    -0.322 OA
HETATM   33  C1  UNL     1      65.789  37.198  24.112  1.00  0.00     0.213 C 
ENDBRANCH  30  32
ENDBRANCH   1  30
TORSDOF 9
ENDMDL
MODEL 2
REMARK VINA RESULT: -7.289223255      4.282      6.103
REMARK  9 active torsions:
REMARK  status: ('A' for Active; 'I' for Inactive)
REMARK    1  A    between atoms: O1_2  and  C2_3 
REMARK    2  A    between atoms: C2_3  and  C3_5 
REMARK    3  A    between atoms: C5_11  and  N2_12 
REMARK    4  A    between atoms: C5_11  and  C6_16 
REMARK    5  A    between atoms: N3_18  and  N4_20 
REMARK    6  A    between atoms: N4_20  and  C8_22 
REMARK    7  A    between atoms: C8_22  and  O4_23 
REMARK    8  A    between atoms: C8_22  and  C9_25 
REMARK    9  A    between atoms: C11_27  and  O5_28 
ROOT
HETATM    1  C3  UNL     1      70.172  39.228  34.193  1.00  0.00     0.322 A 
HETATM    2  O3  UNL     1      70.496  38.062  33.432  1.00  0.00    -0.283 OA
HETATM    3  C4  UNL     1      70.971  38.171  32.132  1.00  0.00     0.186 C 
HETATM    4  N1  UNL     1      71.324  37.145  31.436  1.00  0.00    -0.379 N 
ATOM      5  H11 UNL     1      71.673  37.226  30.480  1.00  0.00     0.158 HD
ATOM      6  H12 UNL     1      71.268  36.201  31.816  1.00  0.00     0.158 HD
HETATM    7  C5  UNL     1      71.052  39.555  31.575  1.00  0.00     0.332 C 
HETATM    8  O6  UNL     1      71.560  40.353  32.581  1.00  0.00    -0.301 OA
HETATM    9  C12 UNL     1      70.813  40.374  33.729  1.00  0.00     0.235 A 
HETATM   10  C13 UNL     1      71.245  41.459  34.716  1.00  0.00     0.086 C 
HETATM   11  O7  UNL     1      69.449  40.230  33.586  1.00  0.00    -0.299 OA
ENDROOT
BRANCH   7  12
HETATM   12  N2  UNL     1      69.742  39.993  31.131  1.00  0.00    -0.033 N 
ATOM     13  H23 UNL     1      69.307  39.319  30.501  1.00  0.00     0.279 HD
ATOM     14  H22 UNL     1      69.053  39.960  31.883  1.00  0.00     0.279 HD
ATOM     15  H21 UNL     1      69.805  40.921  30.712  1.00  0.00     0.279 HD
ENDBRANCH   7  12
BRANCH   7  16
HETATM   16  C6  UNL     1      71.942  39.615  30.400  1.00  0.00     0.070 C 
HETATM   17  C7  UNL     1      71.411  39.664  29.018  1.00  0.00     0.071 C 
HETATM   18  N3  UNL     1      73.216  39.626  30.564  1.00  0.00    -0.306 N 
ATOM     19  H3  UNL     1      73.562  39.591  31.523  1.00  0.00     0.186 HD
BRANCH  18  20
HETATM   20  N4  UNL     1      74.156  39.681  29.559  1.00  0.00    -0.307 N 
ATOM     21  H4  UNL     1      74.034  39.064  28.756  1.00  0.00     0.183 HD
BRANCH  20  22
HETATM   22  C8  UNL     1      75.306  40.562  29.571  1.00  0.00     0.239 C 
BRANCH  22  23
HETATM   23  O4  UNL     1      74.857  41.834  29.271  1.00  0.00    -0.375 OA
ATOM     24  H4  UNL     1      75.366  42.149  28.534  1.00  0.00     0.212 HD
ENDBRANCH  22  23
BRANCH  22  25
HETATM   25  C9  UNL     1      76.021  40.536  30.916  1.00  0.00     0.067 A 
HETATM   26  C10 UNL     1      77.492  40.227  30.867  1.00  0.00     0.043 A 
HETATM   27  C11 UNL     1      77.019  41.600  31.239  1.00  0.00     0.127 A 
BRANCH  27  28
HETATM   28  O5  UNL     1      77.208  42.037  32.535  1.00  0.00    -0.395 OA
ATOM     29  H5  UNL     1      78.074  42.246  32.865  1.00  0.00     0.210 HD
ENDBRANCH  27  28
ENDBRANCH  22  25
ENDBRANCH  20  22
ENDBRANCH  18  20
ENDBRANCH   7  16
BRANCH   1  30
HETATM   30  C2  UNL     1      69.873  39.004  35.610  1.00  0.00     0.328 C 
HETATM   31  O2  UNL     1      70.620  38.216  36.262  1.00  0.00    -0.259 OA
BRANCH  30  32
HETATM   32  O1  UNL     1      68.830  39.591  36.300  1.00  0.00    -0.322 OA
HETATM   33  C1  UNL     1      67.480  39.202  36.015  1.00  0.00     0.213 C 
ENDBRANCH  30  32
ENDBRANCH   1  30
TORSDOF 9
ENDMDL
MODEL 3
REMARK VINA RESULT: -7.268314088      0.537      1.017
REMARK  9 active torsions:
REMARK  status: ('A' for Active; 'I' for Inactive)
REMARK    1  A    between atoms: O1_2  and  C2_3 
REMARK    2  A    between atoms: C2_3  and  C3_5 
REMARK    3  A    between atoms: C5_11  and  N2_12 
REMARK    4  A    between atoms: C5_11  and  C6_16 
REMARK    5  A    between atoms: N3_18  and  N4_20 
REMARK    6  A    between atoms: N4_20  and  C8_22 
REMARK    7  A    between atoms: C8_22  and  O4_23 
REMARK    8  A    between atoms: C8_22  and  C9_25 
REMARK    9  A    between atoms: C11_27  and  O5_28 
ROOT
HETATM    1  C3  UNL     1      68.627  38.066  26.623  1.00  0.00     0.322 A 
HETATM    2  O3  UNL     1      69.154  37.205  27.635  1.00  0.00    -0.283 OA
HETATM    3  C4  UNL     1      70.233  37.600  28.413  1.00  0.00     0.186 C 
HETATM    4  N1  UNL     1      70.700  36.874  29.370  1.00  0.00    -0.379 N 
ATOM      5  H11 UNL     1      71.493  37.165  29.942  1.00  0.00     0.158 HD
ATOM      6  H12 UNL     1      70.290  35.967  29.596  1.00  0.00     0.158 HD
HETATM    7  C5  UNL     1      70.834  38.928  28.081  1.00  0.00     0.332 C 
HETATM    8  O6  UNL     1      69.779  39.788  27.848  1.00  0.00    -0.301 OA
HETATM    9  C12 UNL     1      68.940  39.407  26.835  1.00  0.00     0.235 A 
HETATM   10  C13 UNL     1      67.949  40.497  26.424  1.00  0.00     0.086 C 
HETATM   11  O7  UNL     1      69.507  38.714  25.786  1.00  0.00    -0.299 OA
ENDROOT
BRANCH   7  12
HETATM   12  N2  UNL     1      71.710  38.806  26.931  1.00  0.00    -0.033 N 
ATOM     13  H23 UNL     1      71.187  38.750  26.057  1.00  0.00     0.279 HD
ATOM     14  H22 UNL     1      72.218  39.671  26.745  1.00  0.00     0.279 HD
ATOM     15  H21 UNL     1      72.339  38.012  27.051  1.00  0.00     0.279 HD
ENDBRANCH   7  12
BRANCH   7  16
HETATM   16  C6  UNL     1      71.657  39.444  29.191  1.00  0.00     0.070 C 
HETATM   17  C7  UNL     1      71.049  40.024  30.411  1.00  0.00     0.071 C 
HETATM   18  N3  UNL     1      72.938  39.397  29.110  1.00  0.00    -0.306 N 
ATOM     19  H3  UNL     1      73.337  38.996  28.262  1.00  0.00     0.186 HD
BRANCH  18  20
HETATM   20  N4  UNL     1      73.820  39.843  30.070  1.00  0.00    -0.307 N 
ATOM     21  H4  UNL     1      73.522  39.811  31.044  1.00  0.00     0.183 HD
BRANCH  20  22
HETATM   22  C8  UNL     1      75.146  40.352  29.780  1.00  0.00     0.239 C 
BRANCH  22  23
HETATM   23  O4  UNL     1      74.992  41.581  29.166  1.00  0.00    -0.375 OA
ATOM     24  H4  UNL     1      75.391  41.521  28.306  1.00  0.00     0.212 HD
ENDBRANCH  22  23
BRANCH  22  25
HETATM   25  C9  UNL     1      75.992  40.472  31.042  1.00  0.00     0.067 A 
HETATM   26  C10 UNL     1      77.465  40.230  30.863  1.00  0.00     0.043 A 
HETATM   27  C11 UNL     1      76.956  41.605  31.176  1.00  0.00     0.127 A 
BRANCH  27  28
HETATM   28  O5  UNL     1      77.248  42.155  32.408  1.00  0.00    -0.395 OA
ATOM     29  H5  UNL     1      76.564  42.496  32.971  1.00  0.00     0.210 HD
ENDBRANCH  27  28
ENDBRANCH  22  25
ENDBRANCH  20  22
ENDBRANCH  18  20
ENDBRANCH   7  16
BRANCH   1  30
HETATM   30  C2  UNL     1      67.372  37.633  26.003  1.00  0.00     0.328 C 
HETATM   31  O2  UNL     1      67.294  37.643  24.739  1.00  0.00    -0.259 OA
BRANCH  30  32
HETATM   32  O1  UNL     1      66.254  37.209  26.695  1.00  0.00    -0.322 OA
HETATM   33  C1  UNL     1      65.759  37.986  27.793  1.00  0.00     0.213 C 
ENDBRANCH  30  32
ENDBRANCH   1  30
TORSDOF 9
ENDMDL
MODEL 4
REMARK VINA RESULT: -7.234850653      1.685      2.497
REMARK  9 active torsions:
REMARK  status: ('A' for Active; 'I' for Inactive)
REMARK    1  A    between atoms: O1_2  and  C2_3 
REMARK    2  A    between atoms: C2_3  and  C3_5 
REMARK    3  A    between atoms: C5_11  and  N2_12 
REMARK    4  A    between atoms: C5_11  and  C6_16 
REMARK    5  A    between atoms: N3_18  and  N4_20 
REMARK    6  A    between atoms: N4_20  and  C8_22 
REMARK    7  A    between atoms: C8_22  and  O4_23 
REMARK    8  A    between atoms: C8_22  and  C9_25 
REMARK    9  A    between atoms: C11_27  and  O5_28 
ROOT
HETATM    1  C3  UNL     1      70.237  38.291  27.696  1.00  0.00     0.322 A 
HETATM    2  O3  UNL     1      70.450  37.535  28.891  1.00  0.00    -0.283 OA
HETATM    3  C4  UNL     1      71.079  38.105  29.989  1.00  0.00     0.186 C 
HETATM    4  N1  UNL     1      71.241  37.472  31.100  1.00  0.00    -0.379 N 
ATOM      5  H11 UNL     1      71.703  37.892  31.908  1.00  0.00     0.158 HD
ATOM      6  H12 UNL     1      70.909  36.515  31.219  1.00  0.00     0.158 HD
HETATM    7  C5  UNL     1      71.567  39.507  29.816  1.00  0.00     0.332 C 
HETATM    8  O6  UNL     1      70.572  40.187  29.141  1.00  0.00    -0.301 OA
HETATM    9  C12 UNL     1      70.250  39.666  27.915  1.00  0.00     0.235 A 
HETATM   10  C13 UNL     1      69.349  40.581  27.084  1.00  0.00     0.086 C 
HETATM   11  O7  UNL     1      71.269  39.060  27.211  1.00  0.00    -0.299 OA
ENDROOT
BRANCH   7  12
HETATM   12  N2  UNL     1      72.826  39.513  29.093  1.00  0.00    -0.033 N 
ATOM     13  H23 UNL     1      73.042  38.599  28.696  1.00  0.00     0.279 HD
ATOM     14  H22 UNL     1      72.764  40.044  28.224  1.00  0.00     0.279 HD
ATOM     15  H21 UNL     1      73.575  39.854  29.696  1.00  0.00     0.279 HD
ENDBRANCH   7  12
BRANCH   7  16
HETATM   16  C6  UNL     1      71.818  40.160  31.114  1.00  0.00     0.070 C 
HETATM   17  C7  UNL     1      70.719  40.729  31.929  1.00  0.00     0.071 C 
HETATM   18  N3  UNL     1      73.018  40.246  31.564  1.00  0.00    -0.306 N 
ATOM     19  H3  UNL     1      73.761  39.849  30.988  1.00  0.00     0.186 HD
BRANCH  18  20
HETATM   20  N4  UNL     1      73.390  40.827  32.756  1.00  0.00    -0.307 N 
ATOM     21  H4  UNL     1      72.742  40.766  33.540  1.00  0.00     0.183 HD
BRANCH  20  22
HETATM   22  C8  UNL     1      74.647  41.518  32.964  1.00  0.00     0.239 C 
BRANCH  22  23
HETATM   23  O4  UNL     1      75.331  40.843  33.957  1.00  0.00    -0.375 OA
ATOM     24  H4  UNL     1      74.841  40.952  34.764  1.00  0.00     0.212 HD
ENDBRANCH  22  23
BRANCH  22  25
HETATM   25  C9  UNL     1      75.469  41.590  31.683  1.00  0.00     0.067 A 
HETATM   26  C10 UNL     1      76.451  42.725  31.603  1.00  0.00     0.043 A 
HETATM   27  C11 UNL     1      76.936  41.312  31.735  1.00  0.00     0.127 A 
BRANCH  27  28
HETATM   28  O5  UNL     1      77.595  40.736  30.668  1.00  0.00    -0.395 OA
ATOM     29  H5  UNL     1      78.364  41.141  30.285  1.00  0.00     0.210 HD
ENDBRANCH  27  28
ENDBRANCH  22  25
ENDBRANCH  20  22
ENDBRANCH  18  20
ENDBRANCH   7  16
BRANCH   1  30
HETATM   30  C2  UNL     1      69.392  37.657  26.681  1.00  0.00     0.328 C 
HETATM   31  O2  UNL     1      69.842  37.565  25.500  1.00  0.00    -0.259 OA
BRANCH  30  32
HETATM   32  O1  UNL     1      68.129  37.146  26.910  1.00  0.00    -0.322 OA
HETATM   33  C1  UNL     1      66.989  37.765  26.299  1.00  0.00     0.213 C 
ENDBRANCH  30  32
ENDBRANCH   1  30
TORSDOF 9
ENDMDL
MODEL 5
REMARK VINA RESULT: -7.137072722      0.971      1.117
REMARK  9 active torsions:
REMARK  status: ('A' for Active; 'I' for Inactive)
REMARK    1  A    between atoms: O1_2  and  C2_3 
REMARK    2  A    between atoms: C2_3  and  C3_5 
REMARK    3  A    between atoms: C5_11  and  N2_12 
REMARK    4  A    between atoms: C5_11  and  C6_16 
REMARK    5  A    between atoms: N3_18  and  N4_20 
REMARK    6  A    between atoms: N4_20  and  C8_22 
REMARK    7  A    between atoms: C8_22  and  O4_23 
REMARK    8  A    between atoms: C8_22  and  C9_25 
REMARK    9  A    between atoms: C11_27  and  O5_28 
ROOT
HETATM    1  C3  UNL     1      69.139  38.178  27.065  1.00  0.00     0.322 A 
HETATM    2  O3  UNL     1      69.543  37.572  28.295  1.00  0.00    -0.283 OA
HETATM    3  C4  UNL     1      70.648  38.044  28.990  1.00  0.00     0.186 C 
HETATM    4  N1  UNL     1      71.010  37.558  30.128  1.00  0.00    -0.379 N 
ATOM      5  H11 UNL     1      71.822  37.905  30.639  1.00  0.00     0.158 HD
ATOM      6  H12 UNL     1      70.492  36.798  30.569  1.00  0.00     0.158 HD
HETATM    7  C5  UNL     1      71.407  39.157  28.344  1.00  0.00     0.332 C 
HETATM    8  O6  UNL     1      70.466  40.032  27.838  1.00  0.00    -0.301 OA
HETATM    9  C12 UNL     1      69.605  39.483  26.925  1.00  0.00     0.235 A 
HETATM   10  C13 UNL     1      68.756  40.522  26.189  1.00  0.00     0.086 C 
HETATM   11  O7  UNL     1      70.104  38.473  26.129  1.00  0.00    -0.299 OA
ENDROOT
BRANCH   7  12
HETATM   12  N2  UNL     1      72.282  38.632  27.311  1.00  0.00    -0.033 N 
ATOM     13  H23 UNL     1      71.762  38.147  26.580  1.00  0.00     0.279 HD
ATOM     14  H22 UNL     1      72.687  39.374  26.740  1.00  0.00     0.279 HD
ATOM     15  H21 UNL     1      72.999  38.037  27.728  1.00  0.00     0.279 HD
ENDBRANCH   7  12
BRANCH   7  16
HETATM   16  C6  UNL     1      72.267  39.863  29.312  1.00  0.00     0.070 C 
HETATM   17  C7  UNL     1      71.727  40.886  30.237  1.00  0.00     0.071 C 
HETATM   18  N3  UNL     1      73.522  39.592  29.367  1.00  0.00    -0.306 N 
ATOM     19  H3  UNL     1      73.875  38.885  28.722  1.00  0.00     0.186 HD
BRANCH  18  20
HETATM   20  N4  UNL     1      74.433  40.174  30.221  1.00  0.00    -0.307 N 
ATOM     21  H4  UNL     1      74.313  40.024  31.222  1.00  0.00     0.183 HD
BRANCH  20  22
HETATM   22  C8  UNL     1      75.552  40.985  29.783  1.00  0.00     0.239 C 
BRANCH  22  23
HETATM   23  O4  UNL     1      75.309  41.351  28.472  1.00  0.00    -0.375 OA
ATOM     24  H4  UNL     1      74.383  41.548  28.399  1.00  0.00     0.212 HD
ENDBRANCH  22  23
BRANCH  22  25
HETATM   25  C9  UNL     1      75.739  42.211  30.669  1.00  0.00     0.067 A 
HETATM   26  C10 UNL     1      74.870  42.268  31.894  1.00  0.00     0.043 A 
HETATM   27  C11 UNL     1      76.348  42.054  32.023  1.00  0.00     0.127 A 
BRANCH  27  28
HETATM   28  O5  UNL     1      77.116  43.055  32.584  1.00  0.00    -0.395 OA
ATOM     29  H5  UNL     1      77.285  43.867  32.121  1.00  0.00     0.210 HD
ENDBRANCH  27  28
ENDBRANCH  22  25
ENDBRANCH  20  22
ENDBRANCH  18  20
ENDBRANCH   7  16
BRANCH   1  30
HETATM   30  C2  UNL     1      67.852  37.733  26.525  1.00  0.00     0.328 C 
HETATM   31  O2  UNL     1      66.889  37.567  27.332  1.00  0.00    -0.259 OA
BRANCH  30  32
HETATM   32  O1  UNL     1      67.600  37.476  25.191  1.00  0.00    -0.322 OA
HETATM   33  C1  UNL     1      66.252  37.272  24.748  1.00  0.00     0.213 C 
ENDBRANCH  30  32
ENDBRANCH   1  30
TORSDOF 9
ENDMDL
