MODEL 1
REMARK VINA RESULT: -7.970127890      0.000      0.000
REMARK  8 active torsions:
REMARK  status: ('A' for Active; 'I' for Inactive)
REMARK    1  A    between atoms: N1_2  and  C2_4 
REMARK    2  A    between atoms: C4_6  and  N2_7 
REMARK    3  A    between atoms: C5_13  and  C6_14 
REMARK    4  A    between atoms: C6_14  and  N6_15 
REMARK    5  A    between atoms: N6_15  and  C7_17 
REMARK    6  A    between atoms: C8_20  and  N8_21 
REMARK    7  A    between atoms: N8_21  and  N9_23 
REMARK    8  A    between atoms: C11_35  and  N13_36 
ROOT
HETATM    1  N2  UNL     1      68.086  37.896  26.497  1.00  0.00    -0.207 N 
HETATM    2  N3  UNL     1      67.349  37.498  25.474  1.00  0.00     0.004 NA
HETATM    3  N4  UNL     1      67.261  38.477  24.577  1.00  0.00    -0.224 N 
ATOM      4  H4  UNL     1      66.757  38.457  23.689  1.00  0.00     0.205 HD
HETATM    5  N5  UNL     1      67.959  39.478  25.072  1.00  0.00    -0.273 N 
ATOM      6  H5  UNL     1      68.081  40.380  24.611  1.00  0.00     0.189 HD
HETATM    7  C5  UNL     1      68.493  39.153  26.275  1.00  0.00     0.137 A 
ENDROOT
BRANCH   7   8
HETATM    8  C6  UNL     1      69.330  39.934  27.189  1.00  0.00     0.203 C 
BRANCH   8   9
HETATM    9  N6  UNL     1      70.713  39.606  27.148  1.00  0.00    -0.348 N 
ATOM     10  H6  UNL     1      71.088  39.314  26.245  1.00  0.00     0.163 HD
BRANCH   9  11
HETATM   11  C7  UNL     1      71.531  39.640  28.121  1.00  0.00     0.241 A 
HETATM   12  N7  UNL     1      71.199  39.105  29.292  1.00  0.00    -0.153 N 
HETATM   13  C8  UNL     1      72.044  39.125  30.346  1.00  0.00     0.704 A 
ATOM     14  H7  UNL     1      70.283  38.669  29.397  1.00  0.00     0.188 HD
HETATM   15  N10 UNL     1      73.233  39.714  30.140  1.00  0.00    -0.153 N 
HETATM   16  C10 UNL     1      73.572  40.256  28.957  1.00  0.00     0.239 A 
ATOM     17  H10 UNL     1      73.903  39.752  30.908  1.00  0.00     0.188 HD
HETATM   18  N11 UNL     1      74.695  40.824  28.730  1.00  0.00    -0.364 N 
HETATM   19  O1  UNL     1      72.693  40.196  27.982  1.00  0.00    -0.246 OA
ATOM     20 2H11 UNL     1      75.378  40.871  29.487  1.00  0.00     0.159 HD
ATOM     21 1H11 UNL     1      74.953  41.235  27.833  1.00  0.00     0.159 HD
BRANCH  13  22
HETATM   22  N8  UNL     1      71.677  38.549  31.592  1.00  0.00    -0.135 N 
HETATM   23  C9  UNL     1      71.414  39.422  32.717  1.00  0.00     0.197 C 
BRANCH  22  24
HETATM   24  N9  UNL     1      71.567  37.171  31.748  1.00  0.00    -0.329 N 
ATOM     25  H92 UNL     1      72.085  36.549  31.128  1.00  0.00     0.177 HD
ATOM     26  H91 UNL     1      70.975  36.764  32.472  1.00  0.00     0.177 HD
ENDBRANCH  22  24
ENDBRANCH  13  22
ENDBRANCH   9  11
ENDBRANCH   8   9
ENDBRANCH   7   8
BRANCH   1  27
HETATM   27  C4  UNL     1      68.412  37.139  27.652  1.00  0.00     0.146 A 
HETATM   28  C3  UNL     1      67.770  37.297  28.864  1.00  0.00     0.099 A 
HETATM   29  C2  UNL     1      68.096  36.553  29.985  1.00  0.00     0.120 A 
HETATM   30  N14 UNL     1      69.078  35.649  29.858  1.00  0.00    -0.177 N 
HETATM   31  C11 UNL     1      69.732  35.464  28.682  1.00  0.00     0.679 A 
ATOM     32  H14 UNL     1      69.341  35.084  30.667  1.00  0.00     0.185 HD
HETATM   33  N12 UNL     1      69.383  36.211  27.611  1.00  0.00    -0.175 N 
ATOM     34  H12 UNL     1      69.880  36.065  26.732  1.00  0.00     0.186 HD
BRANCH  29  35
HETATM   35  N1  UNL     1      67.479  36.713  31.130  1.00  0.00    -0.380 N 
HETATM   36  C1  UNL     1      67.945  37.802  31.965  1.00  0.00     0.147 C 
ATOM     37  H1  UNL     1      66.713  36.104  31.417  1.00  0.00     0.160 HD
ENDBRANCH  29  35
BRANCH  31  38
HETATM   38  N13 UNL     1      70.675  34.585  28.590  1.00  0.00    -0.234 N 
ATOM     39 2H13 UNL     1      71.528  34.797  28.074  1.00  0.00     0.174 HD
ATOM     40 1H13 UNL     1      70.576  33.671  29.032  1.00  0.00     0.174 HD
ENDBRANCH  31  38
ENDBRANCH   1  27
TORSDOF 8
ENDMDL
MODEL 2
REMARK VINA RESULT: -7.831176949      2.566      6.798
REMARK  8 active torsions:
REMARK  status: ('A' for Active; 'I' for Inactive)
REMARK    1  A    between atoms: N1_2  and  C2_4 
REMARK    2  A    between atoms: C4_6  and  N2_7 
REMARK    3  A    between atoms: C5_13  and  C6_14 
REMARK    4  A    between atoms: C6_14  and  N6_15 
REMARK    5  A    between atoms: N6_15  and  C7_17 
REMARK    6  A    between atoms: C8_20  and  N8_21 
REMARK    7  A    between atoms: N8_21  and  N9_23 
REMARK    8  A    between atoms: C11_35  and  N13_36 
ROOT
HETATM    1  N2  UNL     1      72.845  42.058  29.290  1.00  0.00    -0.207 N 
HETATM    2  N3  UNL     1      72.267  43.241  29.181  1.00  0.00     0.004 NA
HETATM    3  N4  UNL     1      71.368  43.212  28.200  1.00  0.00    -0.224 N 
ATOM      4  H4  UNL     1      70.770  43.978  27.888  1.00  0.00     0.205 HD
HETATM    5  N5  UNL     1      71.410  41.989  27.715  1.00  0.00    -0.273 N 
ATOM      6  H5  UNL     1      70.830  41.653  26.946  1.00  0.00     0.189 HD
HETATM    7  C5  UNL     1      72.324  41.233  28.372  1.00  0.00     0.137 A 
ENDROOT
BRANCH   7   8
HETATM    8  C6  UNL     1      72.715  39.835  28.187  1.00  0.00     0.203 C 
BRANCH   8   9
HETATM    9  N6  UNL     1      72.150  39.209  27.041  1.00  0.00    -0.348 N 
ATOM     10  H6  UNL     1      72.649  39.333  26.160  1.00  0.00     0.163 HD
BRANCH   9  11
HETATM   11  C7  UNL     1      71.087  38.512  27.003  1.00  0.00     0.241 A 
HETATM   12  N7  UNL     1      70.946  37.465  27.810  1.00  0.00    -0.153 N 
HETATM   13  C8  UNL     1      69.831  36.703  27.793  1.00  0.00     0.704 A 
ATOM     14  H7  UNL     1      71.698  37.231  28.457  1.00  0.00     0.188 HD
HETATM   15  N10 UNL     1      68.879  37.066  26.917  1.00  0.00    -0.153 N 
HETATM   16  C10 UNL     1      69.019  38.124  26.100  1.00  0.00     0.239 A 
ATOM     17  H10 UNL     1      68.020  36.519  26.871  1.00  0.00     0.188 HD
HETATM   18  N11 UNL     1      68.132  38.494  25.256  1.00  0.00    -0.364 N 
HETATM   19  O1  UNL     1      70.135  38.813  26.178  1.00  0.00    -0.246 OA
ATOM     20 2H11 UNL     1      67.266  37.959  25.196  1.00  0.00     0.159 HD
ATOM     21 1H11 UNL     1      68.238  39.297  24.636  1.00  0.00     0.159 HD
BRANCH  13  22
HETATM   22  N8  UNL     1      69.692  35.586  28.661  1.00  0.00    -0.135 N 
HETATM   23  C9  UNL     1      68.603  35.573  29.617  1.00  0.00     0.197 C 
BRANCH  22  24
HETATM   24  N9  UNL     1      70.576  34.515  28.610  1.00  0.00    -0.329 N 
ATOM     25  H92 UNL     1      71.365  34.479  29.255  1.00  0.00     0.177 HD
ATOM     26  H91 UNL     1      70.455  33.758  27.937  1.00  0.00     0.177 HD
ENDBRANCH  22  24
ENDBRANCH  13  22
ENDBRANCH   9  11
ENDBRANCH   8   9
ENDBRANCH   7   8
BRANCH   1  27
HETATM   27  C4  UNL     1      73.855  41.690  30.217  1.00  0.00     0.146 A 
HETATM   28  C3  UNL     1      75.174  41.495  29.861  1.00  0.00     0.099 A 
HETATM   29  C2  UNL     1      76.150  41.137  30.774  1.00  0.00     0.120 A 
HETATM   30  N14 UNL     1      75.771  40.982  32.050  1.00  0.00    -0.177 N 
HETATM   31  C11 UNL     1      74.482  41.166  32.441  1.00  0.00     0.679 A 
ATOM     32  H14 UNL     1      76.468  40.718  32.748  1.00  0.00     0.185 HD
HETATM   33  N12 UNL     1      73.559  41.516  31.517  1.00  0.00    -0.175 N 
ATOM     34  H12 UNL     1      72.595  41.653  31.820  1.00  0.00     0.186 HD
BRANCH  29  35
HETATM   35  N1  UNL     1      77.399  40.954  30.422  1.00  0.00    -0.380 N 
HETATM   36  C1  UNL     1      78.081  39.829  31.030  1.00  0.00     0.147 C 
ATOM     37  H1  UNL     1      77.865  41.570  29.755  1.00  0.00     0.160 HD
ENDBRANCH  29  35
BRANCH  31  38
HETATM   38  N13 UNL     1      74.146  41.009  33.678  1.00  0.00    -0.234 N 
ATOM     39 2H13 UNL     1      73.228  40.638  33.920  1.00  0.00     0.174 HD
ATOM     40 1H13 UNL     1      74.794  41.255  34.427  1.00  0.00     0.174 HD
ENDBRANCH  31  38
ENDBRANCH   1  27
TORSDOF 8
ENDMDL
MODEL 3
REMARK VINA RESULT: -7.801506789      2.145      4.286
REMARK  8 active torsions:
REMARK  status: ('A' for Active; 'I' for Inactive)
REMARK    1  A    between atoms: N1_2  and  C2_4 
REMARK    2  A    between atoms: C4_6  and  N2_7 
REMARK    3  A    between atoms: C5_13  and  C6_14 
REMARK    4  A    between atoms: C6_14  and  N6_15 
REMARK    5  A    between atoms: N6_15  and  C7_17 
REMARK    6  A    between atoms: C8_20  and  N8_21 
REMARK    7  A    between atoms: N8_21  and  N9_23 
REMARK    8  A    between atoms: C11_35  and  N13_36 
ROOT
HETATM    1  N2  UNL     1      67.415  37.934  25.915  1.00  0.00    -0.207 N 
HETATM    2  N3  UNL     1      67.242  37.452  24.697  1.00  0.00     0.004 NA
HETATM    3  N4  UNL     1      66.126  36.728  24.654  1.00  0.00    -0.224 N 
ATOM      4  H4  UNL     1      65.739  36.236  23.848  1.00  0.00     0.205 HD
HETATM    5  N5  UNL     1      65.623  36.780  25.870  1.00  0.00    -0.273 N 
ATOM      6  H5  UNL     1      64.760  36.318  26.157  1.00  0.00     0.189 HD
HETATM    7  C5  UNL     1      66.402  37.526  26.691  1.00  0.00     0.137 A 
ENDROOT
BRANCH   7   8
HETATM    8  C6  UNL     1      66.248  37.860  28.108  1.00  0.00     0.203 C 
BRANCH   8   9
HETATM    9  N6  UNL     1      66.778  36.891  29.004  1.00  0.00    -0.348 N 
ATOM     10  H6  UNL     1      66.106  36.267  29.453  1.00  0.00     0.163 HD
BRANCH   9  11
HETATM   11  C7  UNL     1      68.002  36.722  29.305  1.00  0.00     0.241 A 
HETATM   12  N7  UNL     1      68.586  37.515  30.197  1.00  0.00    -0.153 N 
HETATM   13  C8  UNL     1      69.885  37.363  30.537  1.00  0.00     0.704 A 
ATOM     14  H7  UNL     1      68.041  38.257  30.635  1.00  0.00     0.188 HD
HETATM   15  N10 UNL     1      70.545  36.368  29.923  1.00  0.00    -0.153 N 
HETATM   16  C10 UNL     1      69.956  35.563  29.021  1.00  0.00     0.239 A 
ATOM     17  H10 UNL     1      71.528  36.216  30.150  1.00  0.00     0.188 HD
HETATM   18  N11 UNL     1      70.557  34.608  28.419  1.00  0.00    -0.364 N 
HETATM   19  O1  UNL     1      68.689  35.778  28.744  1.00  0.00    -0.246 OA
ATOM     20 2H11 UNL     1      71.541  34.441  28.634  1.00  0.00     0.159 HD
ATOM     21 1H11 UNL     1      70.111  33.998  27.734  1.00  0.00     0.159 HD
BRANCH  13  22
HETATM   22  N8  UNL     1      70.498  38.217  31.493  1.00  0.00    -0.135 N 
HETATM   23  C9  UNL     1      70.331  39.650  31.362  1.00  0.00     0.197 C 
BRANCH  22  24
HETATM   24  N9  UNL     1      71.251  37.705  32.544  1.00  0.00    -0.329 N 
ATOM     25  H92 UNL     1      71.294  36.697  32.690  1.00  0.00     0.177 HD
ATOM     26  H91 UNL     1      71.765  38.318  33.178  1.00  0.00     0.177 HD
ENDBRANCH  22  24
ENDBRANCH  13  22
ENDBRANCH   9  11
ENDBRANCH   8   9
ENDBRANCH   7   8
BRANCH   1  27
HETATM   27  C4  UNL     1      68.487  38.751  26.359  1.00  0.00     0.146 A 
HETATM   28  C3  UNL     1      68.410  40.127  26.429  1.00  0.00     0.099 A 
HETATM   29  C2  UNL     1      69.463  40.913  26.864  1.00  0.00     0.120 A 
HETATM   30  N14 UNL     1      70.590  40.286  27.227  1.00  0.00    -0.177 N 
HETATM   31  C11 UNL     1      70.705  38.933  27.172  1.00  0.00     0.679 A 
ATOM     32  H14 UNL     1      71.384  40.838  27.552  1.00  0.00     0.185 HD
HETATM   33  N12 UNL     1      69.653  38.201  26.741  1.00  0.00    -0.175 N 
ATOM     34  H12 UNL     1      69.748  37.186  26.705  1.00  0.00     0.186 HD
BRANCH  29  35
HETATM   35  N1  UNL     1      69.376  42.220  26.926  1.00  0.00    -0.380 N 
HETATM   36  C1  UNL     1      70.418  42.900  27.668  1.00  0.00     0.147 C 
ATOM     37  H1  UNL     1      68.615  42.729  26.475  1.00  0.00     0.160 HD
ENDBRANCH  29  35
BRANCH  31  38
HETATM   38  N13 UNL     1      71.805  38.356  27.528  1.00  0.00    -0.234 N 
ATOM     39 2H13 UNL     1      72.299  37.745  26.879  1.00  0.00     0.174 HD
ATOM     40 1H13 UNL     1      72.190  38.505  28.460  1.00  0.00     0.174 HD
ENDBRANCH  31  38
ENDBRANCH   1  27
TORSDOF 8
ENDMDL
MODEL 4
REMARK VINA RESULT: -7.776157014      2.703      6.975
REMARK  8 active torsions:
REMARK  status: ('A' for Active; 'I' for Inactive)
REMARK    1  A    between atoms: N1_2  and  C2_4 
REMARK    2  A    between atoms: C4_6  and  N2_7 
REMARK    3  A    between atoms: C5_13  and  C6_14 
REMARK    4  A    between atoms: C6_14  and  N6_15 
REMARK    5  A    between atoms: N6_15  and  C7_17 
REMARK    6  A    between atoms: C8_20  and  N8_21 
REMARK    7  A    between atoms: N8_21  and  N9_23 
REMARK    8  A    between atoms: C11_35  and  N13_36 
ROOT
HETATM    1  N2  UNL     1      73.958  40.940  31.601  1.00  0.00    -0.207 N 
HETATM    2  N3  UNL     1      75.152  41.312  32.028  1.00  0.00     0.004 NA
HETATM    3  N4  UNL     1      75.232  41.141  33.345  1.00  0.00    -0.224 N 
ATOM      4  H4  UNL     1      76.031  41.342  33.946  1.00  0.00     0.205 HD
HETATM    5  N5  UNL     1      74.063  40.658  33.712  1.00  0.00    -0.273 N 
ATOM      6  H5  UNL     1      73.812  40.422  34.672  1.00  0.00     0.189 HD
HETATM    7  C5  UNL     1      73.236  40.517  32.647  1.00  0.00     0.137 A 
ENDROOT
BRANCH   7   8
HETATM    8  C6  UNL     1      71.858  40.027  32.568  1.00  0.00     0.203 C 
BRANCH   8   9
HETATM    9  N6  UNL     1      71.740  38.648  32.243  1.00  0.00    -0.348 N 
ATOM     10  H6  UNL     1      72.523  38.048  32.503  1.00  0.00     0.163 HD
BRANCH   9  11
HETATM   11  C7  UNL     1      70.758  38.085  31.663  1.00  0.00     0.241 A 
HETATM   12  N7  UNL     1      70.948  37.411  30.533  1.00  0.00    -0.153 N 
HETATM   13  C8  UNL     1      69.927  36.803  29.890  1.00  0.00     0.704 A 
ATOM     14  H7  UNL     1      71.887  37.352  30.141  1.00  0.00     0.188 HD
HETATM   15  N10 UNL     1      68.716  36.919  30.460  1.00  0.00    -0.153 N 
HETATM   16  C10 UNL     1      68.521  37.600  31.603  1.00  0.00     0.239 A 
ATOM     17  H10 UNL     1      67.916  36.475  30.009  1.00  0.00     0.188 HD
HETATM   18  N11 UNL     1      67.382  37.729  32.169  1.00  0.00    -0.364 N 
HETATM   19  O1  UNL     1      69.567  38.163  32.165  1.00  0.00    -0.246 OA
ATOM     20 2H11 UNL     1      66.570  37.291  31.733  1.00  0.00     0.159 HD
ATOM     21 1H11 UNL     1      67.233  38.245  33.036  1.00  0.00     0.159 HD
BRANCH  13  22
HETATM   22  N8  UNL     1      70.143  36.085  28.683  1.00  0.00    -0.135 N 
HETATM   23  C9  UNL     1      69.994  36.777  27.420  1.00  0.00     0.197 C 
BRANCH  22  24
HETATM   24  N9  UNL     1      70.491  34.738  28.694  1.00  0.00    -0.329 N 
ATOM     25  H92 UNL     1      69.770  34.029  28.563  1.00  0.00     0.177 HD
ATOM     26  H91 UNL     1      71.457  34.441  28.832  1.00  0.00     0.177 HD
ENDBRANCH  22  24
ENDBRANCH  13  22
ENDBRANCH   9  11
ENDBRANCH   8   9
ENDBRANCH   7   8
BRANCH   1  27
HETATM   27  C4  UNL     1      73.488  40.972  30.262  1.00  0.00     0.146 A 
HETATM   28  C3  UNL     1      72.916  42.089  29.688  1.00  0.00     0.099 A 
HETATM   29  C2  UNL     1      72.461  42.108  28.381  1.00  0.00     0.120 A 
HETATM   30  N14 UNL     1      72.597  40.982  27.667  1.00  0.00    -0.177 N 
HETATM   31  C11 UNL     1      73.156  39.862  28.196  1.00  0.00     0.679 A 
ATOM     32  H14 UNL     1      72.272  40.965  26.699  1.00  0.00     0.185 HD
HETATM   33  N12 UNL     1      73.587  39.885  29.477  1.00  0.00    -0.175 N 
ATOM     34  H12 UNL     1      74.006  39.041  29.865  1.00  0.00     0.186 HD
BRANCH  29  35
HETATM   35  N1  UNL     1      71.920  43.176  27.848  1.00  0.00    -0.380 N 
HETATM   36  C1  UNL     1      70.488  43.129  27.628  1.00  0.00     0.147 C 
ATOM     37  H1  UNL     1      72.476  43.995  27.603  1.00  0.00     0.160 HD
ENDBRANCH  29  35
BRANCH  31  38
HETATM   38  N13 UNL     1      73.273  38.791  27.483  1.00  0.00    -0.234 N 
ATOM     39 2H13 UNL     1      73.353  37.879  27.932  1.00  0.00     0.174 HD
ATOM     40 1H13 UNL     1      73.286  38.845  26.465  1.00  0.00     0.174 HD
ENDBRANCH  31  38
ENDBRANCH   1  27
TORSDOF 8
ENDMDL
MODEL 5
REMARK VINA RESULT: -7.760011907      1.848      5.032
REMARK  8 active torsions:
REMARK  status: ('A' for Active; 'I' for Inactive)
REMARK    1  A    between atoms: N1_2  and  C2_4 
REMARK    2  A    between atoms: C4_6  and  N2_7 
REMARK    3  A    between atoms: C5_13  and  C6_14 
REMARK    4  A    between atoms: C6_14  and  N6_15 
REMARK    5  A    between atoms: N6_15  and  C7_17 
REMARK    6  A    between atoms: C8_20  and  N8_21 
REMARK    7  A    between atoms: N8_21  and  N9_23 
REMARK    8  A    between atoms: C11_35  and  N13_36 
ROOT
HETATM    1  N2  UNL     1      71.611  40.701  29.259  1.00  0.00    -0.207 N 
HETATM    2  N3  UNL     1      71.654  41.995  29.523  1.00  0.00     0.004 NA
HETATM    3  N4  UNL     1      72.375  42.619  28.595  1.00  0.00    -0.224 N 
ATOM      4  H4  UNL     1      72.580  43.617  28.540  1.00  0.00     0.205 HD
HETATM    5  N5  UNL     1      72.769  41.680  27.760  1.00  0.00    -0.273 N 
ATOM      6  H5  UNL     1      73.345  41.846  26.934  1.00  0.00     0.189 HD
HETATM    7  C5  UNL     1      72.311  40.462  28.141  1.00  0.00     0.137 A 
ENDROOT
BRANCH   7   8
HETATM    8  C6  UNL     1      72.491  39.142  27.534  1.00  0.00     0.203 C 
BRANCH   8   9
HETATM    9  N6  UNL     1      71.385  38.691  26.763  1.00  0.00    -0.348 N 
ATOM     10  H6  UNL     1      71.313  39.051  25.811  1.00  0.00     0.163 HD
BRANCH   9  11
HETATM   11  C7  UNL     1      70.476  37.884  27.137  1.00  0.00     0.241 A 
HETATM   12  N7  UNL     1      69.198  38.155  26.889  1.00  0.00    -0.153 N 
HETATM   13  C8  UNL     1      68.209  37.320  27.274  1.00  0.00     0.704 A 
ATOM     14  H7  UNL     1      68.960  39.016  26.397  1.00  0.00     0.188 HD
HETATM   15  N10 UNL     1      68.592  36.206  27.918  1.00  0.00    -0.153 N 
HETATM   16  C10 UNL     1      69.883  35.928  28.169  1.00  0.00     0.239 A 
ATOM     17  H10 UNL     1      67.878  35.546  28.227  1.00  0.00     0.188 HD
HETATM   18  N11 UNL     1      70.279  34.876  28.780  1.00  0.00    -0.364 N 
HETATM   19  O1  UNL     1      70.785  36.792  27.763  1.00  0.00    -0.246 OA
ATOM     20 2H11 UNL     1      69.579  34.205  29.096  1.00  0.00     0.159 HD
ATOM     21 1H11 UNL     1      71.259  34.665  28.971  1.00  0.00     0.159 HD
BRANCH  13  22
HETATM   22  N8  UNL     1      66.847  37.622  27.003  1.00  0.00    -0.135 N 
HETATM   23  C9  UNL     1      66.304  38.885  27.460  1.00  0.00     0.197 C 
BRANCH  22  24
HETATM   24  N9  UNL     1      66.032  36.732  26.312  1.00  0.00    -0.329 N 
ATOM     25  H92 UNL     1      65.386  37.082  25.605  1.00  0.00     0.177 HD
ATOM     26  H91 UNL     1      66.064  35.729  26.496  1.00  0.00     0.177 HD
ENDBRANCH  22  24
ENDBRANCH  13  22
ENDBRANCH   9  11
ENDBRANCH   8   9
ENDBRANCH   7   8
BRANCH   1  27
HETATM   27  C4  UNL     1      70.942  39.703  30.015  1.00  0.00     0.146 A 
HETATM   28  C3  UNL     1      69.569  39.562  30.033  1.00  0.00     0.099 A 
HETATM   29  C2  UNL     1      68.928  38.585  30.775  1.00  0.00     0.120 A 
HETATM   30  N14 UNL     1      69.697  37.755  31.493  1.00  0.00    -0.177 N 
HETATM   31  C11 UNL     1      71.051  37.861  31.500  1.00  0.00     0.679 A 
ATOM     32  H14 UNL     1      69.254  37.023  32.049  1.00  0.00     0.185 HD
HETATM   33  N12 UNL     1      71.639  38.829  30.762  1.00  0.00    -0.175 N 
ATOM     34  H12 UNL     1      72.656  38.901  30.773  1.00  0.00     0.186 HD
BRANCH  29  35
HETATM   35  N1  UNL     1      67.623  38.463  30.783  1.00  0.00    -0.380 N 
HETATM   36  C1  UNL     1      67.102  37.142  31.075  1.00  0.00     0.147 C 
ATOM     37  H1  UNL     1      67.008  39.255  30.595  1.00  0.00     0.160 HD
ENDBRANCH  29  35
BRANCH  31  38
HETATM   38  N13 UNL     1      71.767  37.046  32.203  1.00  0.00    -0.234 N 
ATOM     39 2H13 UNL     1      72.193  36.228  31.768  1.00  0.00     0.174 HD
ATOM     40 1H13 UNL     1      71.913  37.211  33.198  1.00  0.00     0.174 HD
ENDBRANCH  31  38
ENDBRANCH   1  27
TORSDOF 8
ENDMDL
