MODEL 1
REMARK VINA RESULT: -7.605380456      0.000      0.000
REMARK  4 active torsions:
REMARK  status: ('A' for Active; 'I' for Inactive)
REMARK    1  A    between atoms: C2_2  and  N1_3 
REMARK    2  A    between atoms: C5_6  and  C6_7 
REMARK    3  A    between atoms: C6_7  and  C7_8 
REMARK    4  A    between atoms: C7_8  and  N2_9 
ROOT
HETATM    1  C7  UNL     1      16.032   3.874  14.644  1.00  0.00     0.127 C 
ENDROOT
BRANCH   1   2
HETATM    2  C6  UNL     1      17.309   3.451  13.949  1.00  0.00     0.058 C 
BRANCH   2   3
HETATM    3  C5  UNL     1      18.499   3.653  14.815  1.00  0.00    -0.054 A 
HETATM    4  C4  UNL     1      19.378   4.701  14.611  1.00  0.00     0.024 A 
HETATM    5  C3  UNL     1      20.485   4.878  15.429  1.00  0.00     0.091 A 
HETATM    6  N1  UNL     1      20.755   4.048  16.450  1.00  0.00    -0.367 N 
HETATM    7  C10 UNL     1      19.907   3.026  16.657  1.00  0.00     0.091 A 
HETATM    8  C9  UNL     1      18.791   2.810  15.869  1.00  0.00     0.024 A 
BRANCH   6   9
HETATM    9  C2  UNL     1      21.909   4.220  17.312  1.00  0.00     0.123 C 
HETATM   10  C1  UNL     1      21.538   3.963  18.754  1.00  0.00     0.027 C 
ENDBRANCH   6   9
ENDBRANCH   2   3
ENDBRANCH   1   2
BRANCH   1  11
HETATM   11  N2  UNL     1      15.184   2.726  14.893  1.00  0.00    -0.360 N 
HETATM   12  C8  UNL     1      15.026   2.236  16.076  1.00  0.00     0.208 A 
HETATM   13  N3  UNL     1      14.209   1.113  16.379  1.00  0.00    -0.257 N 
HETATM   14  N6  UNL     1      15.585   2.657  17.291  1.00  0.00    -0.253 N 
HETATM   15  N4  UNL     1      14.254   0.868  17.632  1.00  0.00    -0.224 N 
ATOM     16  H3  UNL     1      13.667   0.582  15.698  1.00  0.00     0.191 HD
HETATM   17  N5  UNL     1      15.095   1.792  18.274  1.00  0.00    -0.004 NA
ATOM     18  H4  UNL     1      13.753   0.111  18.098  1.00  0.00     0.205 HD
ATOM     19  H6  UNL     1      16.223   3.441  17.431  1.00  0.00     0.187 HD
ATOM     20  H2  UNL     1      14.697   2.292  14.108  1.00  0.00     0.162 HD
ENDBRANCH   1  11
TORSDOF 4
ENDMDL
MODEL 2
REMARK VINA RESULT: -7.598259204      0.037      1.161
REMARK  4 active torsions:
REMARK  status: ('A' for Active; 'I' for Inactive)
REMARK    1  A    between atoms: C2_2  and  N1_3 
REMARK    2  A    between atoms: C5_6  and  C6_7 
REMARK    3  A    between atoms: C6_7  and  C7_8 
REMARK    4  A    between atoms: C7_8  and  N2_9 
ROOT
HETATM    1  C7  UNL     1      16.017   3.863  14.630  1.00  0.00     0.127 C 
ENDROOT
BRANCH   1   2
HETATM    2  C6  UNL     1      17.300   3.469  13.930  1.00  0.00     0.058 C 
BRANCH   2   3
HETATM    3  C5  UNL     1      18.485   3.658  14.804  1.00  0.00    -0.054 A 
HETATM    4  C4  UNL     1      18.758   2.802  15.855  1.00  0.00     0.024 A 
HETATM    5  C3  UNL     1      19.871   2.993  16.664  1.00  0.00     0.091 A 
HETATM    6  N1  UNL     1      20.728   4.007  16.468  1.00  0.00    -0.367 N 
HETATM    7  C10 UNL     1      20.472   4.845  15.449  1.00  0.00     0.091 A 
HETATM    8  C9  UNL     1      19.376   4.696  14.617  1.00  0.00     0.024 A 
BRANCH   6   9
HETATM    9  C2  UNL     1      21.894   4.218  17.305  1.00  0.00     0.123 C 
HETATM   10  C1  UNL     1      21.556   3.969  18.757  1.00  0.00     0.027 C 
ENDBRANCH   6   9
ENDBRANCH   2   3
ENDBRANCH   1   2
BRANCH   1  11
HETATM   11  N2  UNL     1      15.195   2.697  14.880  1.00  0.00    -0.360 N 
HETATM   12  C8  UNL     1      15.017   2.226  16.069  1.00  0.00     0.208 A 
HETATM   13  N3  UNL     1      14.223   1.087  16.372  1.00  0.00    -0.257 N 
HETATM   14  N6  UNL     1      15.530   2.688  17.290  1.00  0.00    -0.253 N 
HETATM   15  N4  UNL     1      14.240   0.868  17.631  1.00  0.00    -0.224 N 
ATOM     16  H3  UNL     1      13.715   0.528  15.688  1.00  0.00     0.191 HD
HETATM   17  N5  UNL     1      15.038   1.829  18.276  1.00  0.00    -0.004 NA
ATOM     18  H4  UNL     1      13.747   0.108  18.099  1.00  0.00     0.205 HD
ATOM     19  H6  UNL     1      16.143   3.492  17.430  1.00  0.00     0.187 HD
ATOM     20  H2  UNL     1      14.741   2.234  14.092  1.00  0.00     0.162 HD
ENDBRANCH   1  11
TORSDOF 4
ENDMDL
MODEL 3
REMARK VINA RESULT: -7.231883278      1.119      1.463
REMARK  4 active torsions:
REMARK  status: ('A' for Active; 'I' for Inactive)
REMARK    1  A    between atoms: C2_2  and  N1_3 
REMARK    2  A    between atoms: C5_6  and  C6_7 
REMARK    3  A    between atoms: C6_7  and  C7_8 
REMARK    4  A    between atoms: C7_8  and  N2_9 
ROOT
HETATM    1  C7  UNL     1      17.392   3.056  14.051  1.00  0.00     0.127 C 
ENDROOT
BRANCH   1   2
HETATM    2  C6  UNL     1      18.416   4.109  13.685  1.00  0.00     0.058 C 
BRANCH   2   3
HETATM    3  C5  UNL     1      19.405   4.315  14.773  1.00  0.00    -0.054 A 
HETATM    4  C4  UNL     1      20.176   5.460  14.849  1.00  0.00     0.024 A 
HETATM    5  C3  UNL     1      21.097   5.638  15.873  1.00  0.00     0.091 A 
HETATM    6  N1  UNL     1      21.282   4.716  16.831  1.00  0.00    -0.367 N 
HETATM    7  C10 UNL     1      20.538   3.599  16.767  1.00  0.00     0.091 A 
HETATM    8  C9  UNL     1      19.609   3.378  15.766  1.00  0.00     0.024 A 
BRANCH   6   9
HETATM    9  C2  UNL     1      22.241   4.890  17.906  1.00  0.00     0.123 C 
HETATM   10  C1  UNL     1      21.956   3.924  19.033  1.00  0.00     0.027 C 
ENDBRANCH   6   9
ENDBRANCH   2   3
ENDBRANCH   1   2
BRANCH   1  11
HETATM   11  N2  UNL     1      16.187   3.675  14.564  1.00  0.00    -0.360 N 
HETATM   12  C8  UNL     1      15.346   3.029  15.300  1.00  0.00     0.208 A 
HETATM   13  N3  UNL     1      14.149   3.584  15.830  1.00  0.00    -0.257 N 
HETATM   14  N6  UNL     1      15.394   1.698  15.740  1.00  0.00    -0.253 N 
HETATM   15  N4  UNL     1      13.529   2.703  16.516  1.00  0.00    -0.224 N 
ATOM     16  H3  UNL     1      13.833   4.542  15.684  1.00  0.00     0.191 HD
HETATM   17  N5  UNL     1      14.245   1.494  16.509  1.00  0.00    -0.004 NA
ATOM     18  H4  UNL     1      12.643   2.855  16.999  1.00  0.00     0.205 HD
ATOM     19  H6  UNL     1      16.123   1.014  15.538  1.00  0.00     0.187 HD
ATOM     20  H2  UNL     1      15.997   4.651  14.335  1.00  0.00     0.162 HD
ENDBRANCH   1  11
TORSDOF 4
ENDMDL
MODEL 4
REMARK VINA RESULT: -7.207638046      1.062      1.695
REMARK  4 active torsions:
REMARK  status: ('A' for Active; 'I' for Inactive)
REMARK    1  A    between atoms: C2_2  and  N1_3 
REMARK    2  A    between atoms: C5_6  and  C6_7 
REMARK    3  A    between atoms: C6_7  and  C7_8 
REMARK    4  A    between atoms: C7_8  and  N2_9 
ROOT
HETATM    1  C7  UNL     1      16.509   1.922  14.294  1.00  0.00     0.127 C 
ENDROOT
BRANCH   1   2
HETATM    2  C6  UNL     1      17.272   3.038  13.613  1.00  0.00     0.058 C 
BRANCH   2   3
HETATM    3  C5  UNL     1      18.396   3.527  14.451  1.00  0.00    -0.054 A 
HETATM    4  C4  UNL     1      18.790   2.864  15.599  1.00  0.00     0.024 A 
HETATM    5  C3  UNL     1      19.844   3.333  16.372  1.00  0.00     0.091 A 
HETATM    6  N1  UNL     1      20.525   4.443  16.047  1.00  0.00    -0.367 N 
HETATM    7  C10 UNL     1      20.150   5.096  14.934  1.00  0.00     0.091 A 
HETATM    8  C9  UNL     1      19.108   4.666  14.132  1.00  0.00     0.024 A 
BRANCH   6   9
HETATM    9  C2  UNL     1      21.627   4.945  16.847  1.00  0.00     0.123 C 
HETATM   10  C1  UNL     1      21.660   6.456  16.817  1.00  0.00     0.027 C 
ENDBRANCH   6   9
ENDBRANCH   2   3
ENDBRANCH   1   2
BRANCH   1  11
HETATM   11  N2  UNL     1      15.238   2.406  14.793  1.00  0.00    -0.360 N 
HETATM   12  C8  UNL     1      14.946   2.394  16.050  1.00  0.00     0.208 A 
HETATM   13  N3  UNL     1      13.717   2.854  16.596  1.00  0.00    -0.257 N 
HETATM   14  N6  UNL     1      15.719   1.951  17.134  1.00  0.00    -0.253 N 
HETATM   15  N4  UNL     1      13.726   2.715  17.865  1.00  0.00    -0.224 N 
ATOM     16  H3  UNL     1      12.943   3.239  16.054  1.00  0.00     0.191 HD
HETATM   17  N5  UNL     1      14.946   2.156  18.281  1.00  0.00    -0.004 NA
ATOM     18  H4  UNL     1      12.959   2.972  18.487  1.00  0.00     0.205 HD
ATOM     19  H6  UNL     1      16.659   1.558  17.093  1.00  0.00     0.187 HD
ATOM     20  H2  UNL     1      14.551   2.767  14.130  1.00  0.00     0.162 HD
ENDBRANCH   1  11
TORSDOF 4
ENDMDL
MODEL 5
REMARK VINA RESULT: -7.175272452      2.625      3.936
REMARK  4 active torsions:
REMARK  status: ('A' for Active; 'I' for Inactive)
REMARK    1  A    between atoms: C2_2  and  N1_3 
REMARK    2  A    between atoms: C5_6  and  C6_7 
REMARK    3  A    between atoms: C6_7  and  C7_8 
REMARK    4  A    between atoms: C7_8  and  N2_9 
ROOT
HETATM    1  C7  UNL     1      15.231   1.073  15.341  1.00  0.00     0.127 C 
ENDROOT
BRANCH   1   2
HETATM    2  C6  UNL     1      15.333   2.428  16.007  1.00  0.00     0.058 C 
BRANCH   2   3
HETATM    3  C5  UNL     1      16.524   3.182  15.540  1.00  0.00    -0.054 A 
HETATM    4  C4  UNL     1      16.409   4.285  14.714  1.00  0.00     0.024 A 
HETATM    5  C3  UNL     1      17.532   4.980  14.286  1.00  0.00     0.091 A 
HETATM    6  N1  UNL     1      18.773   4.620  14.649  1.00  0.00    -0.367 N 
HETATM    7  C10 UNL     1      18.896   3.549  15.452  1.00  0.00     0.091 A 
HETATM    8  C9  UNL     1      17.807   2.826  15.904  1.00  0.00     0.024 A 
BRANCH   6   9
HETATM    9  C2  UNL     1      19.955   5.337  14.209  1.00  0.00     0.123 C 
HETATM   10  C1  UNL     1      20.800   5.746  15.393  1.00  0.00     0.027 C 
ENDBRANCH   6   9
ENDBRANCH   2   3
ENDBRANCH   1   2
BRANCH   1  11
HETATM   11  N2  UNL     1      15.146   1.219  13.902  1.00  0.00    -0.360 N 
HETATM   12  C8  UNL     1      15.923   0.570  13.101  1.00  0.00     0.208 A 
HETATM   13  N3  UNL     1      15.885   0.674  11.683  1.00  0.00    -0.257 N 
HETATM   14  N6  UNL     1      16.939  -0.347  13.403  1.00  0.00    -0.253 N 
HETATM   15  N4  UNL     1      16.772  -0.088  11.168  1.00  0.00    -0.224 N 
ATOM     16  H3  UNL     1      15.246   1.269  11.157  1.00  0.00     0.191 HD
HETATM   17  N5  UNL     1      17.474  -0.763  12.180  1.00  0.00    -0.004 NA
ATOM     18  H4  UNL     1      16.944  -0.191  10.168  1.00  0.00     0.205 HD
ATOM     19  H6  UNL     1      17.231  -0.652  14.332  1.00  0.00     0.187 HD
ATOM     20  H2  UNL     1      14.451   1.856  13.509  1.00  0.00     0.162 HD
ENDBRANCH   1  11
TORSDOF 4
ENDMDL
