MODEL 1
REMARK VINA RESULT: -5.977534772      0.000      0.000
REMARK  7 active torsions:
REMARK  status: ('A' for Active; 'I' for Inactive)
REMARK    1  A    between atoms: C2_2  and  N1_3 
REMARK    2  A    between atoms: C2_2  and  C3_7 
REMARK    3  A    between atoms: N2_10  and  C6_11 
REMARK    4  A    between atoms: C6_11  and  C7_12 
REMARK    5  A    between atoms: C7_12  and  C8_13 
REMARK    6  A    between atoms: C8_13  and  C9_14 
REMARK    7  A    between atoms: C9_14  and  N3_15 
ROOT
HETATM    1  C3  UNL     1      16.251   2.537  16.409  1.00  0.00     0.043 A 
HETATM    2  C4  UNL     1      17.095   2.041  17.380  1.00  0.00     0.044 A 
HETATM    3  C5  UNL     1      18.447   2.275  17.327  1.00  0.00     0.093 A 
HETATM    4  N2  UNL     1      18.896   3.003  16.291  1.00  0.00    -0.353 N 
HETATM    5  C10 UNL     1      18.068   3.481  15.350  1.00  0.00     0.185 A 
HETATM    6  N4  UNL     1      16.742   3.262  15.387  1.00  0.00    -0.349 N 
HETATM    7  C11 UNL     1      15.853   3.783  14.371  1.00  0.00     0.156 C 
ENDROOT
BRANCH   4   8
HETATM    8  C6  UNL     1      20.296   3.280  16.181  1.00  0.00     0.129 C 
BRANCH   8   9
HETATM    9  C7  UNL     1      20.542   4.526  15.338  1.00  0.00     0.022 C 
BRANCH   9  10
HETATM   10  C8  UNL     1      21.224   5.590  16.158  1.00  0.00     0.029 C 
BRANCH  10  11
HETATM   11  C9  UNL     1      20.864   6.950  15.640  1.00  0.00     0.229 C 
BRANCH  11  12
HETATM   12  N3  UNL     1      20.126   6.786  14.407  1.00  0.00    -0.079 N 
ATOM     13  H33 UNL     1      19.823   5.823  14.257  1.00  0.00     0.274 HD
ATOM     14  H32 UNL     1      19.202   7.218  14.442  1.00  0.00     0.274 HD
ATOM     15  H31 UNL     1      20.698   7.143  13.641  1.00  0.00     0.274 HD
ENDBRANCH  11  12
ENDBRANCH  10  11
ENDBRANCH   9  10
ENDBRANCH   8   9
ENDBRANCH   4   8
BRANCH   1  16
HETATM   16  C2  UNL     1      14.820   2.259  16.514  1.00  0.00     0.229 C 
HETATM   17  C1  UNL     1      14.393   2.470  17.951  1.00  0.00     0.046 C 
BRANCH  16  18
HETATM   18  N1  UNL     1      14.438   0.912  16.167  1.00  0.00    -0.070 N 
ATOM     19  H13 UNL     1      14.945   0.200  16.694  1.00  0.00     0.275 HD
ATOM     20  H12 UNL     1      13.502   0.662  16.486  1.00  0.00     0.275 HD
ATOM     21  H11 UNL     1      14.557   0.828  15.158  1.00  0.00     0.275 HD
ENDBRANCH  16  18
ENDBRANCH   1  16
TORSDOF 7
ENDMDL
MODEL 2
REMARK VINA RESULT: -5.919075169      1.394      1.547
REMARK  7 active torsions:
REMARK  status: ('A' for Active; 'I' for Inactive)
REMARK    1  A    between atoms: C2_2  and  N1_3 
REMARK    2  A    between atoms: C2_2  and  C3_7 
REMARK    3  A    between atoms: N2_10  and  C6_11 
REMARK    4  A    between atoms: C6_11  and  C7_12 
REMARK    5  A    between atoms: C7_12  and  C8_13 
REMARK    6  A    between atoms: C8_13  and  C9_14 
REMARK    7  A    between atoms: C9_14  and  N3_15 
ROOT
HETATM    1  C3  UNL     1      16.243   2.524  16.464  1.00  0.00     0.043 A 
HETATM    2  C4  UNL     1      17.059   2.006  17.446  1.00  0.00     0.044 A 
HETATM    3  C5  UNL     1      18.417   2.211  17.417  1.00  0.00     0.093 A 
HETATM    4  N2  UNL     1      18.899   2.933  16.392  1.00  0.00    -0.353 N 
HETATM    5  C10 UNL     1      18.097   3.434  15.440  1.00  0.00     0.185 A 
HETATM    6  N4  UNL     1      16.767   3.243  15.454  1.00  0.00    -0.349 N 
HETATM    7  C11 UNL     1      15.906   3.788  14.425  1.00  0.00     0.156 C 
ENDROOT
BRANCH   4   8
HETATM    8  C6  UNL     1      20.307   3.181  16.307  1.00  0.00     0.129 C 
BRANCH   8   9
HETATM    9  C7  UNL     1      20.587   4.510  15.615  1.00  0.00     0.022 C 
BRANCH   9  10
HETATM   10  C8  UNL     1      21.361   5.425  16.529  1.00  0.00     0.029 C 
BRANCH  10  11
HETATM   11  C9  UNL     1      21.756   4.692  17.776  1.00  0.00     0.229 C 
BRANCH  11  12
HETATM   12  N3  UNL     1      22.757   5.476  18.466  1.00  0.00    -0.079 N 
ATOM     13  H33 UNL     1      23.677   5.407  18.031  1.00  0.00     0.274 HD
ATOM     14  H32 UNL     1      22.621   6.480  18.345  1.00  0.00     0.274 HD
ATOM     15  H31 UNL     1      22.763   5.195  19.447  1.00  0.00     0.274 HD
ENDBRANCH  11  12
ENDBRANCH  10  11
ENDBRANCH   9  10
ENDBRANCH   8   9
ENDBRANCH   4   8
BRANCH   1  16
HETATM   16  C2  UNL     1      14.804   2.278  16.544  1.00  0.00     0.229 C 
HETATM   17  C1  UNL     1      14.360   2.483  17.976  1.00  0.00     0.046 C 
BRANCH  16  18
HETATM   18  N1  UNL     1      14.399   0.942  16.177  1.00  0.00    -0.070 N 
ATOM     19  H13 UNL     1      13.734   0.528  16.831  1.00  0.00     0.275 HD
ATOM     20  H12 UNL     1      13.800   0.914  15.352  1.00  0.00     0.275 HD
ATOM     21  H11 UNL     1      15.255   0.398  16.074  1.00  0.00     0.275 HD
ENDBRANCH  16  18
ENDBRANCH   1  16
TORSDOF 7
ENDMDL
MODEL 3
REMARK VINA RESULT: -5.828482482      2.302      5.715
REMARK  7 active torsions:
REMARK  status: ('A' for Active; 'I' for Inactive)
REMARK    1  A    between atoms: C2_2  and  N1_3 
REMARK    2  A    between atoms: C2_2  and  C3_7 
REMARK    3  A    between atoms: N2_10  and  C6_11 
REMARK    4  A    between atoms: C6_11  and  C7_12 
REMARK    5  A    between atoms: C7_12  and  C8_13 
REMARK    6  A    between atoms: C8_13  and  C9_14 
REMARK    7  A    between atoms: C9_14  and  N3_15 
ROOT
HETATM    1  C3  UNL     1      19.649   3.530  16.036  1.00  0.00     0.043 A 
HETATM    2  C4  UNL     1      19.450   4.105  14.800  1.00  0.00     0.044 A 
HETATM    3  C5  UNL     1      18.337   3.809  14.053  1.00  0.00     0.093 A 
HETATM    4  N2  UNL     1      17.464   2.938  14.587  1.00  0.00    -0.353 N 
HETATM    5  C10 UNL     1      17.664   2.383  15.792  1.00  0.00     0.185 A 
HETATM    6  N4  UNL     1      18.749   2.663  16.535  1.00  0.00    -0.349 N 
HETATM    7  C11 UNL     1      18.960   2.062  17.836  1.00  0.00     0.156 C 
ENDROOT
BRANCH   4   8
HETATM    8  C6  UNL     1      16.282   2.589  13.857  1.00  0.00     0.129 C 
BRANCH   8   9
HETATM    9  C7  UNL     1      16.288   3.223  12.471  1.00  0.00     0.022 C 
BRANCH   9  10
HETATM   10  C8  UNL     1      16.031   2.181  11.414  1.00  0.00     0.029 C 
BRANCH  10  11
HETATM   11  C9  UNL     1      16.108   0.809  12.016  1.00  0.00     0.229 C 
BRANCH  11  12
HETATM   12  N3  UNL     1      16.857  -0.040  11.116  1.00  0.00    -0.079 N 
ATOM     13  H33 UNL     1      17.589   0.466  10.617  1.00  0.00     0.274 HD
ATOM     14  H32 UNL     1      17.457  -0.702  11.610  1.00  0.00     0.274 HD
ATOM     15  H31 UNL     1      16.199  -0.501  10.487  1.00  0.00     0.274 HD
ENDBRANCH  11  12
ENDBRANCH  10  11
ENDBRANCH   9  10
ENDBRANCH   8   9
ENDBRANCH   4   8
BRANCH   1  16
HETATM   16  C2  UNL     1      20.851   3.882  16.790  1.00  0.00     0.229 C 
HETATM   17  C1  UNL     1      21.221   5.313  16.464  1.00  0.00     0.046 C 
BRANCH  16  18
HETATM   18  N1  UNL     1      22.011   3.080  16.486  1.00  0.00    -0.070 N 
ATOM     19  H13 UNL     1      22.893   3.551  16.687  1.00  0.00     0.275 HD
ATOM     20  H12 UNL     1      22.139   2.295  17.125  1.00  0.00     0.275 HD
ATOM     21  H11 UNL     1      21.920   2.796  15.510  1.00  0.00     0.275 HD
ENDBRANCH  16  18
ENDBRANCH   1  16
TORSDOF 7
ENDMDL
MODEL 4
REMARK VINA RESULT: -5.819678531      2.184      5.858
REMARK  7 active torsions:
REMARK  status: ('A' for Active; 'I' for Inactive)
REMARK    1  A    between atoms: C2_2  and  N1_3 
REMARK    2  A    between atoms: C2_2  and  C3_7 
REMARK    3  A    between atoms: N2_10  and  C6_11 
REMARK    4  A    between atoms: C6_11  and  C7_12 
REMARK    5  A    between atoms: C7_12  and  C8_13 
REMARK    6  A    between atoms: C8_13  and  C9_14 
REMARK    7  A    between atoms: C9_14  and  N3_15 
ROOT
HETATM    1  C3  UNL     1      20.138   3.904  16.055  1.00  0.00     0.043 A 
HETATM    2  C4  UNL     1      20.222   4.651  14.900  1.00  0.00     0.044 A 
HETATM    3  C5  UNL     1      19.267   4.547  13.920  1.00  0.00     0.093 A 
HETATM    4  N2  UNL     1      18.259   3.688  14.145  1.00  0.00    -0.353 N 
HETATM    5  C10 UNL     1      18.183   2.964  15.272  1.00  0.00     0.185 A 
HETATM    6  N4  UNL     1      19.111   3.054  16.241  1.00  0.00    -0.349 N 
HETATM    7  C11 UNL     1      19.024   2.273  17.457  1.00  0.00     0.156 C 
ENDROOT
BRANCH   4   8
HETATM    8  C6  UNL     1      17.231   3.535  13.160  1.00  0.00     0.129 C 
BRANCH   8   9
HETATM    9  C7  UNL     1      16.102   2.652  13.679  1.00  0.00     0.022 C 
BRANCH   9  10
HETATM   10  C8  UNL     1      15.999   1.394  12.858  1.00  0.00     0.029 C 
BRANCH  10  11
HETATM   11  C9  UNL     1      16.175   0.190  13.735  1.00  0.00     0.229 C 
BRANCH  11  12
HETATM   12  N3  UNL     1      14.873  -0.220  14.212  1.00  0.00    -0.079 N 
ATOM     13  H33 UNL     1      14.507   0.400  14.935  1.00  0.00     0.274 HD
ATOM     14  H32 UNL     1      14.138  -0.075  13.519  1.00  0.00     0.274 HD
ATOM     15  H31 UNL     1      14.936  -1.190  14.521  1.00  0.00     0.274 HD
ENDBRANCH  11  12
ENDBRANCH  10  11
ENDBRANCH   9  10
ENDBRANCH   8   9
ENDBRANCH   4   8
BRANCH   1  16
HETATM   16  C2  UNL     1      21.182   4.054  17.067  1.00  0.00     0.229 C 
HETATM   17  C1  UNL     1      21.622   5.502  17.092  1.00  0.00     0.046 C 
BRANCH  16  18
HETATM   18  N1  UNL     1      22.370   3.269  16.831  1.00  0.00    -0.070 N 
ATOM     19  H13 UNL     1      22.316   2.328  17.220  1.00  0.00     0.275 HD
ATOM     20  H12 UNL     1      22.486   2.996  15.855  1.00  0.00     0.275 HD
ATOM     21  H11 UNL     1      23.153   3.812  17.196  1.00  0.00     0.275 HD
ENDBRANCH  16  18
ENDBRANCH   1  16
TORSDOF 7
ENDMDL
MODEL 5
REMARK VINA RESULT: -5.800717190      2.261      5.455
REMARK  7 active torsions:
REMARK  status: ('A' for Active; 'I' for Inactive)
REMARK    1  A    between atoms: C2_2  and  N1_3 
REMARK    2  A    between atoms: C2_2  and  C3_7 
REMARK    3  A    between atoms: N2_10  and  C6_11 
REMARK    4  A    between atoms: C6_11  and  C7_12 
REMARK    5  A    between atoms: C7_12  and  C8_13 
REMARK    6  A    between atoms: C8_13  and  C9_14 
REMARK    7  A    between atoms: C9_14  and  N3_15 
ROOT
HETATM    1  C3  UNL     1      19.645   3.603  16.001  1.00  0.00     0.043 A 
HETATM    2  C4  UNL     1      19.466   4.247  14.796  1.00  0.00     0.044 A 
HETATM    3  C5  UNL     1      18.336   4.036  14.044  1.00  0.00     0.093 A 
HETATM    4  N2  UNL     1      17.429   3.179  14.541  1.00  0.00    -0.353 N 
HETATM    5  C10 UNL     1      17.611   2.557  15.715  1.00  0.00     0.185 A 
HETATM    6  N4  UNL     1      18.711   2.752  16.463  1.00  0.00    -0.349 N 
HETATM    7  C11 UNL     1      18.902   2.080  17.731  1.00  0.00     0.156 C 
ENDROOT
BRANCH   4   8
HETATM    8  C6  UNL     1      16.230   2.918  13.803  1.00  0.00     0.129 C 
BRANCH   8   9
HETATM    9  C7  UNL     1      16.372   1.659  12.955  1.00  0.00     0.022 C 
BRANCH   9  10
HETATM   10  C8  UNL     1      15.897   1.915  11.549  1.00  0.00     0.029 C 
BRANCH  10  11
HETATM   11  C9  UNL     1      15.853   3.390  11.281  1.00  0.00     0.229 C 
BRANCH  11  12
HETATM   12  N3  UNL     1      16.960   3.727  10.413  1.00  0.00    -0.079 N 
ATOM     13  H33 UNL     1      16.820   4.611   9.924  1.00  0.00     0.274 HD
ATOM     14  H32 UNL     1      17.800   3.986  10.931  1.00  0.00     0.274 HD
ATOM     15  H31 UNL     1      17.117   2.945   9.776  1.00  0.00     0.274 HD
ENDBRANCH  11  12
ENDBRANCH  10  11
ENDBRANCH   9  10
ENDBRANCH   8   9
ENDBRANCH   4   8
BRANCH   1  16
HETATM   16  C2  UNL     1      20.866   3.865  16.762  1.00  0.00     0.229 C 
HETATM   17  C1  UNL     1      21.282   5.300  16.524  1.00  0.00     0.046 C 
BRANCH  16  18
HETATM   18  N1  UNL     1      21.995   3.045  16.394  1.00  0.00    -0.070 N 
ATOM     19  H13 UNL     1      22.202   3.066  15.396  1.00  0.00     0.275 HD
ATOM     20  H12 UNL     1      22.887   3.419  16.717  1.00  0.00     0.275 HD
ATOM     21  H11 UNL     1      21.798   2.108  16.745  1.00  0.00     0.275 HD
ENDBRANCH  16  18
ENDBRANCH   1  16
TORSDOF 7
ENDMDL
