MODEL 1
REMARK VINA RESULT: -6.718962060      0.000      0.000
REMARK  5 active torsions:
REMARK  status: ('A' for Active; 'I' for Inactive)
REMARK    1  A    between atoms: C1_2  and  N2_4 
REMARK    2  A    between atoms: N2_4  and  C2_6 
REMARK    3  A    between atoms: C2_6  and  C3_7 
REMARK    4  A    between atoms: C3_7  and  C4_8 
REMARK    5  A    between atoms: C4_8  and  N3_9 
ROOT
HETATM    1  N3  UNL     1      15.270   0.420  14.125  1.00  0.00    -0.226 N 
ATOM      2  H3  UNL     1      14.366   0.016  13.884  1.00  0.00     0.177 HD
HETATM    3  C5  UNL     1      15.453   0.930  15.295  1.00  0.00     0.677 A 
HETATM    4  N4  UNL     1      16.698   1.495  15.648  1.00  0.00    -0.202 N 
ATOM      5  H4  UNL     1      17.457   1.498  14.966  1.00  0.00     0.183 HD
HETATM    6  C6  UNL     1      16.899   2.016  16.833  1.00  0.00     0.107 A 
HETATM    7  C7  UNL     1      15.812   2.010  17.806  1.00  0.00     0.035 A 
HETATM    8  C8  UNL     1      14.612   1.495  17.546  1.00  0.00     0.107 A 
HETATM    9  N5  UNL     1      14.408   0.931  16.248  1.00  0.00    -0.202 N 
ATOM     10  H5  UNL     1      13.503   0.527  16.007  1.00  0.00     0.183 HD
ENDROOT
BRANCH   1  11
HETATM   11  C4  UNL     1      16.350   0.421  13.146  1.00  0.00     0.139 C 
BRANCH  11  12
HETATM   12  C3  UNL     1      15.915   1.057  11.852  1.00  0.00     0.040 C 
BRANCH  12  13
HETATM   13  C2  UNL     1      15.572   2.511  12.043  1.00  0.00     0.123 C 
BRANCH  13  14
HETATM   14  N2  UNL     1      16.646   3.410  11.684  1.00  0.00    -0.369 N 
ATOM     15  H2  UNL     1      16.739   3.679  10.704  1.00  0.00     0.161 HD
BRANCH  14  16
HETATM   16  C1  UNL     1      17.574   3.937  12.606  1.00  0.00     0.180 C 
HETATM   17  N1  UNL     1      18.967   3.896  12.349  1.00  0.00    -0.070 NA
HETATM   18  S1  UNL     1      17.121   4.628  14.022  1.00  0.00    -0.044 SA
ENDBRANCH  14  16
ENDBRANCH  13  14
ENDBRANCH  12  13
ENDBRANCH  11  12
ENDBRANCH   1  11
TORSDOF 5
ENDMDL
MODEL 2
REMARK VINA RESULT: -6.532991013      1.075      1.128
REMARK  5 active torsions:
REMARK  status: ('A' for Active; 'I' for Inactive)
REMARK    1  A    between atoms: C1_2  and  N2_4 
REMARK    2  A    between atoms: N2_4  and  C2_6 
REMARK    3  A    between atoms: C2_6  and  C3_7 
REMARK    4  A    between atoms: C3_7  and  C4_8 
REMARK    5  A    between atoms: C4_8  and  N3_9 
ROOT
HETATM    1  N3  UNL     1      15.250   0.541  14.215  1.00  0.00    -0.226 N 
ATOM      2  H3  UNL     1      14.343   0.162  13.943  1.00  0.00     0.177 HD
HETATM    3  C5  UNL     1      15.411   1.038  15.394  1.00  0.00     0.677 A 
HETATM    4  N4  UNL     1      16.659   1.567  15.789  1.00  0.00    -0.202 N 
ATOM      5  H4  UNL     1      17.438   1.554  15.130  1.00  0.00     0.183 HD
HETATM    6  C6  UNL     1      16.837   2.075  16.983  1.00  0.00     0.107 A 
HETATM    7  C7  UNL     1      15.722   2.091  17.923  1.00  0.00     0.035 A 
HETATM    8  C8  UNL     1      14.516   1.610  17.623  1.00  0.00     0.107 A 
HETATM    9  N5  UNL     1      14.338   1.060  16.314  1.00  0.00    -0.202 N 
ATOM     10  H5  UNL     1      13.430   0.682  16.043  1.00  0.00     0.183 HD
ENDROOT
BRANCH   1  11
HETATM   11  C4  UNL     1      16.359   0.520  13.269  1.00  0.00     0.139 C 
BRANCH  11  12
HETATM   12  C3  UNL     1      15.986   1.191  11.973  1.00  0.00     0.040 C 
BRANCH  12  13
HETATM   13  C2  UNL     1      16.276   2.669  12.017  1.00  0.00     0.123 C 
BRANCH  13  14
HETATM   14  N2  UNL     1      17.545   2.990  12.631  1.00  0.00    -0.369 N 
ATOM     15  H2  UNL     1      18.369   2.466  12.332  1.00  0.00     0.161 HD
BRANCH  14  16
HETATM   16  C1  UNL     1      17.714   3.983  13.619  1.00  0.00     0.180 C 
HETATM   17  N1  UNL     1      16.607   4.491  14.343  1.00  0.00    -0.070 NA
HETATM   18  S1  UNL     1      19.178   4.614  13.999  1.00  0.00    -0.044 SA
ENDBRANCH  14  16
ENDBRANCH  13  14
ENDBRANCH  12  13
ENDBRANCH  11  12
ENDBRANCH   1  11
TORSDOF 5
ENDMDL
MODEL 3
REMARK VINA RESULT: -6.437285281      2.325      3.089
REMARK  5 active torsions:
REMARK  status: ('A' for Active; 'I' for Inactive)
REMARK    1  A    between atoms: C1_2  and  N2_4 
REMARK    2  A    between atoms: N2_4  and  C2_6 
REMARK    3  A    between atoms: C2_6  and  C3_7 
REMARK    4  A    between atoms: C3_7  and  C4_8 
REMARK    5  A    between atoms: C4_8  and  N3_9 
ROOT
HETATM    1  N3  UNL     1      14.972   3.414  14.299  1.00  0.00    -0.226 N 
ATOM      2  H3  UNL     1      14.042   3.716  14.010  1.00  0.00     0.177 HD
HETATM    3  C5  UNL     1      15.160   2.971  15.495  1.00  0.00     0.677 A 
HETATM    4  N4  UNL     1      16.441   2.547  15.913  1.00  0.00    -0.202 N 
ATOM      5  H4  UNL     1      17.222   2.596  15.258  1.00  0.00     0.183 HD
HETATM    6  C6  UNL     1      16.647   2.094  17.125  1.00  0.00     0.107 A 
HETATM    7  C7  UNL     1      15.528   2.026  18.058  1.00  0.00     0.035 A 
HETATM    8  C8  UNL     1      14.293   2.406  17.736  1.00  0.00     0.107 A 
HETATM    9  N5  UNL     1      14.085   2.899  16.410  1.00  0.00    -0.202 N 
ATOM     10  H5  UNL     1      13.154   3.202  16.122  1.00  0.00     0.183 HD
ENDROOT
BRANCH   1  11
HETATM   11  C4  UNL     1      16.084   3.485  13.358  1.00  0.00     0.139 C 
BRANCH  11  12
HETATM   12  C3  UNL     1      15.711   2.891  12.025  1.00  0.00     0.040 C 
BRANCH  12  13
HETATM   13  C2  UNL     1      15.730   1.385  12.071  1.00  0.00     0.123 C 
BRANCH  13  14
HETATM   14  N2  UNL     1      16.843   0.845  12.819  1.00  0.00    -0.369 N 
ATOM     15  H2  UNL     1      17.754   1.292  12.714  1.00  0.00     0.161 HD
BRANCH  14  16
HETATM   16  C1  UNL     1      16.745  -0.264  13.686  1.00  0.00     0.180 C 
HETATM   17  N1  UNL     1      15.646  -0.409  14.569  1.00  0.00    -0.070 NA
HETATM   18  S1  UNL     1      17.874  -1.451  13.737  1.00  0.00    -0.044 SA
ENDBRANCH  14  16
ENDBRANCH  13  14
ENDBRANCH  12  13
ENDBRANCH  11  12
ENDBRANCH   1  11
TORSDOF 5
ENDMDL
MODEL 4
REMARK VINA RESULT: -6.302172561      3.112      5.478
REMARK  5 active torsions:
REMARK  status: ('A' for Active; 'I' for Inactive)
REMARK    1  A    between atoms: C1_2  and  N2_4 
REMARK    2  A    between atoms: N2_4  and  C2_6 
REMARK    3  A    between atoms: C2_6  and  C3_7 
REMARK    4  A    between atoms: C3_7  and  C4_8 
REMARK    5  A    between atoms: C4_8  and  N3_9 
ROOT
HETATM    1  N3  UNL     1      17.710   4.442  13.592  1.00  0.00    -0.226 N 
ATOM      2  H3  UNL     1      17.291   5.074  12.910  1.00  0.00     0.177 HD
HETATM    3  C5  UNL     1      18.753   4.811  14.254  1.00  0.00     0.677 A 
HETATM    4  N4  UNL     1      19.346   3.950  15.203  1.00  0.00    -0.202 N 
ATOM      5  H4  UNL     1      18.941   3.027  15.362  1.00  0.00     0.183 HD
HETATM    6  C6  UNL     1      20.405   4.311  15.884  1.00  0.00     0.107 A 
HETATM    7  C7  UNL     1      20.981   5.632  15.655  1.00  0.00     0.035 A 
HETATM    8  C8  UNL     1      20.477   6.498  14.778  1.00  0.00     0.107 A 
HETATM    9  N5  UNL     1      19.320   6.088  14.042  1.00  0.00    -0.202 N 
ATOM     10  H5  UNL     1      18.903   6.722  13.360  1.00  0.00     0.183 HD
ENDROOT
BRANCH   1  11
HETATM   11  C4  UNL     1      17.126   3.124  13.815  1.00  0.00     0.139 C 
BRANCH  11  12
HETATM   12  C3  UNL     1      15.633   3.210  13.990  1.00  0.00     0.040 C 
BRANCH  12  13
HETATM   13  C2  UNL     1      15.270   3.951  15.251  1.00  0.00     0.123 C 
BRANCH  13  14
HETATM   14  N2  UNL     1      14.355   3.225  16.104  1.00  0.00    -0.369 N 
ATOM     15  H2  UNL     1      13.373   3.187  15.831  1.00  0.00     0.161 HD
BRANCH  14  16
HETATM   16  C1  UNL     1      14.740   2.566  17.291  1.00  0.00     0.180 C 
HETATM   17  N1  UNL     1      13.835   2.415  18.371  1.00  0.00    -0.070 NA
HETATM   18  S1  UNL     1      16.236   1.933  17.507  1.00  0.00    -0.044 SA
ENDBRANCH  14  16
ENDBRANCH  13  14
ENDBRANCH  12  13
ENDBRANCH  11  12
ENDBRANCH   1  11
TORSDOF 5
ENDMDL
MODEL 5
REMARK VINA RESULT: -6.294876455      3.198      5.199
REMARK  5 active torsions:
REMARK  status: ('A' for Active; 'I' for Inactive)
REMARK    1  A    between atoms: C1_2  and  N2_4 
REMARK    2  A    between atoms: N2_4  and  C2_6 
REMARK    3  A    between atoms: C2_6  and  C3_7 
REMARK    4  A    between atoms: C3_7  and  C4_8 
REMARK    5  A    between atoms: C4_8  and  N3_9 
ROOT
HETATM    1  N3  UNL     1      18.660   2.125  15.968  1.00  0.00    -0.226 N 
ATOM      2  H3  UNL     1      18.592   1.345  16.622  1.00  0.00     0.177 HD
HETATM    3  C5  UNL     1      19.529   3.056  16.169  1.00  0.00     0.677 A 
HETATM    4  N4  UNL     1      19.638   4.144  15.275  1.00  0.00    -0.202 N 
ATOM      5  H4  UNL     1      19.020   4.189  14.465  1.00  0.00     0.183 HD
HETATM    6  C6  UNL     1      20.517   5.097  15.466  1.00  0.00     0.107 A 
HETATM    7  C7  UNL     1      21.399   5.030  16.625  1.00  0.00     0.035 A 
HETATM    8  C8  UNL     1      21.356   4.035  17.510  1.00  0.00     0.107 A 
HETATM    9  N5  UNL     1      20.390   3.003  17.288  1.00  0.00    -0.202 N 
ATOM     10  H5  UNL     1      20.323   2.223  17.942  1.00  0.00     0.183 HD
ENDROOT
BRANCH   1  11
HETATM   11  C4  UNL     1      17.774   2.184  14.812  1.00  0.00     0.139 C 
BRANCH  11  12
HETATM   12  C3  UNL     1      17.067   0.871  14.598  1.00  0.00     0.040 C 
BRANCH  12  13
HETATM   13  C2  UNL     1      15.579   1.065  14.460  1.00  0.00     0.123 C 
BRANCH  13  14
HETATM   14  N2  UNL     1      14.827   0.584  15.598  1.00  0.00    -0.369 N 
ATOM     15  H2  UNL     1      14.294  -0.279  15.491  1.00  0.00     0.161 HD
BRANCH  14  16
HETATM   16  C1  UNL     1      14.787   1.237  16.849  1.00  0.00     0.180 C 
HETATM   17  N1  UNL     1      14.757   0.501  18.059  1.00  0.00    -0.070 NA
HETATM   18  S1  UNL     1      14.773   2.869  16.995  1.00  0.00    -0.044 SA
ENDBRANCH  14  16
ENDBRANCH  13  14
ENDBRANCH  12  13
ENDBRANCH  11  12
ENDBRANCH   1  11
TORSDOF 5
ENDMDL
