MODEL 1
REMARK VINA RESULT: -6.973231334      0.000      0.000
REMARK  5 active torsions:
REMARK  status: ('A' for Active; 'I' for Inactive)
REMARK    1  A    between atoms: O1_1  and  C1_3 
REMARK    2  A    between atoms: C1_3  and  C2_4 
REMARK    3  A    between atoms: C2_4  and  C3_5 
REMARK    4  A    between atoms: C6_8  and  C7_9 
REMARK    5  A    between atoms: N1_10  and  C8_12 
ROOT
HETATM    1  C3  UNL     1      18.788   1.891  18.371  1.00  0.00    -0.056 A 
HETATM    2  C4  UNL     1      17.431   1.719  18.160  1.00  0.00     0.008 A 
HETATM    3  C5  UNL     1      16.893   2.082  16.952  1.00  0.00     0.013 A 
HETATM    4  C6  UNL     1      17.666   2.625  15.913  1.00  0.00    -0.021 A 
HETATM    5  C11 UNL     1      19.009   2.785  16.148  1.00  0.00     0.013 A 
HETATM    6  C12 UNL     1      19.578   2.420  17.374  1.00  0.00     0.008 A 
ENDROOT
BRANCH   4   7
HETATM    7  C7  UNL     1      17.033   2.990  14.655  1.00  0.00     0.101 C 
HETATM    8  N1  UNL     1      17.495   2.594  13.532  1.00  0.00    -0.350 N 
ATOM      9  H1  UNL     1      18.327   2.007  13.483  1.00  0.00     0.166 HD
BRANCH   8  10
HETATM   10  C8  UNL     1      16.799   3.006  12.330  1.00  0.00     0.121 A 
HETATM   11  C9  UNL     1      15.449   3.011  12.092  1.00  0.00     0.137 A 
HETATM   12  N2  UNL     1      15.254   3.477  10.836  1.00  0.00    -0.358 N 
HETATM   13  C10 UNL     1      16.447   3.763  10.278  1.00  0.00     0.182 A 
ATOM     14  H2  UNL     1      14.348   3.592  10.383  1.00  0.00     0.166 HD
HETATM   15  N3  UNL     1      17.372   3.471  11.201  1.00  0.00    -0.337 N 
ATOM     16  H3  UNL     1      18.377   3.585  11.068  1.00  0.00     0.168 HD
ENDBRANCH   8  10
ENDBRANCH   4   7
BRANCH   1  17
HETATM   17  C2  UNL     1      19.372   1.503  19.662  1.00  0.00     0.064 C 
BRANCH  17  18
HETATM   18  C1  UNL     1      20.543   2.377  20.054  1.00  0.00     0.168 C 
BRANCH  18  19
HETATM   19  O1  UNL     1      20.619   2.434  21.443  1.00  0.00    -0.401 OA
ATOM     20  H1  UNL     1      20.594   3.344  21.716  1.00  0.00     0.209 HD
ENDBRANCH  18  19
ENDBRANCH  17  18
ENDBRANCH   1  17
TORSDOF 5
ENDMDL
MODEL 2
REMARK VINA RESULT: -6.951136046      2.359      2.802
REMARK  5 active torsions:
REMARK  status: ('A' for Active; 'I' for Inactive)
REMARK    1  A    between atoms: O1_1  and  C1_3 
REMARK    2  A    between atoms: C1_3  and  C2_4 
REMARK    3  A    between atoms: C2_4  and  C3_5 
REMARK    4  A    between atoms: C6_8  and  C7_9 
REMARK    5  A    between atoms: N1_10  and  C8_12 
ROOT
HETATM    1  C3  UNL     1      21.259   4.154  17.267  1.00  0.00    -0.056 A 
HETATM    2  C4  UNL     1      20.309   3.156  17.140  1.00  0.00     0.008 A 
HETATM    3  C5  UNL     1      19.441   3.194  16.078  1.00  0.00     0.013 A 
HETATM    4  C6  UNL     1      19.476   4.209  15.109  1.00  0.00    -0.021 A 
HETATM    5  C11 UNL     1      20.428   5.187  15.258  1.00  0.00     0.013 A 
HETATM    6  C12 UNL     1      21.323   5.166  16.334  1.00  0.00     0.008 A 
ENDROOT
BRANCH   4   7
HETATM    7  C7  UNL     1      18.526   4.190  14.008  1.00  0.00     0.101 C 
HETATM    8  N1  UNL     1      17.966   3.108  13.623  1.00  0.00    -0.350 N 
ATOM      9  H1  UNL     1      18.170   2.220  14.080  1.00  0.00     0.166 HD
BRANCH   8  10
HETATM   10  C8  UNL     1      17.032   3.184  12.519  1.00  0.00     0.121 A 
HETATM   11  C9  UNL     1      15.678   2.973  12.538  1.00  0.00     0.137 A 
HETATM   12  N2  UNL     1      15.215   3.153  11.278  1.00  0.00    -0.358 N 
HETATM   13  C10 UNL     1      16.244   3.470  10.468  1.00  0.00     0.182 A 
ATOM     14  H2  UNL     1      14.242   3.062  10.988  1.00  0.00     0.166 HD
HETATM   15  N3  UNL     1      17.338   3.485  11.239  1.00  0.00    -0.337 N 
ATOM     16  H3  UNL     1      18.278   3.695  10.905  1.00  0.00     0.168 HD
ENDBRANCH   8  10
ENDBRANCH   4   7
BRANCH   1  17
HETATM   17  C2  UNL     1      22.193   4.120  18.401  1.00  0.00     0.064 C 
BRANCH  17  18
HETATM   18  C1  UNL     1      23.635   3.998  17.961  1.00  0.00     0.168 C 
BRANCH  18  19
HETATM   19  O1  UNL     1      23.774   2.850  17.184  1.00  0.00    -0.401 OA
ATOM     20  H1  UNL     1      24.547   2.939  16.639  1.00  0.00     0.209 HD
ENDBRANCH  18  19
ENDBRANCH  17  18
ENDBRANCH   1  17
TORSDOF 5
ENDMDL
MODEL 3
REMARK VINA RESULT: -6.941833013      4.129      7.440
REMARK  5 active torsions:
REMARK  status: ('A' for Active; 'I' for Inactive)
REMARK    1  A    between atoms: O1_1  and  C1_3 
REMARK    2  A    between atoms: C1_3  and  C2_4 
REMARK    3  A    between atoms: C2_4  and  C3_5 
REMARK    4  A    between atoms: C6_8  and  C7_9 
REMARK    5  A    between atoms: N1_10  and  C8_12 
ROOT
HETATM    1  C3  UNL     1      16.047   2.713  13.677  1.00  0.00    -0.056 A 
HETATM    2  C4  UNL     1      16.999   1.726  13.857  1.00  0.00     0.008 A 
HETATM    3  C5  UNL     1      17.540   1.542  15.105  1.00  0.00     0.013 A 
HETATM    4  C6  UNL     1      17.164   2.318  16.213  1.00  0.00    -0.021 A 
HETATM    5  C11 UNL     1      16.218   3.291  16.006  1.00  0.00     0.013 A 
HETATM    6  C12 UNL     1      15.654   3.494  14.741  1.00  0.00     0.008 A 
ENDROOT
BRANCH   4   7
HETATM    7  C7  UNL     1      17.777   2.072  17.509  1.00  0.00     0.101 C 
HETATM    8  N1  UNL     1      19.045   2.077  17.663  1.00  0.00    -0.350 N 
ATOM      9  H1  UNL     1      19.670   2.255  16.877  1.00  0.00     0.166 HD
BRANCH   8  10
HETATM   10  C8  UNL     1      19.568   1.823  18.990  1.00  0.00     0.121 A 
HETATM   11  C9  UNL     1      19.141   0.895  19.905  1.00  0.00     0.137 A 
HETATM   12  N2  UNL     1      19.921   1.014  21.006  1.00  0.00    -0.358 N 
HETATM   13  C10 UNL     1      20.826   1.993  20.806  1.00  0.00     0.182 A 
ATOM     14  H2  UNL     1      19.837   0.452  21.852  1.00  0.00     0.166 HD
HETATM   15  N3  UNL     1      20.595   2.471  19.577  1.00  0.00    -0.337 N 
ATOM     16  H3  UNL     1      21.126   3.225  19.141  1.00  0.00     0.168 HD
ENDBRANCH   8  10
ENDBRANCH   4   7
BRANCH   1  17
HETATM   17  C2  UNL     1      15.463   2.916  12.344  1.00  0.00     0.064 C 
BRANCH  17  18
HETATM   18  C1  UNL     1      16.406   2.518  11.231  1.00  0.00     0.168 C 
BRANCH  18  19
HETATM   19  O1  UNL     1      17.108   3.645  10.809  1.00  0.00    -0.401 OA
ATOM     20  H1  UNL     1      17.788   3.375  10.203  1.00  0.00     0.209 HD
ENDBRANCH  18  19
ENDBRANCH  17  18
ENDBRANCH   1  17
TORSDOF 5
ENDMDL
MODEL 4
REMARK VINA RESULT: -6.940860251      2.340      2.965
REMARK  5 active torsions:
REMARK  status: ('A' for Active; 'I' for Inactive)
REMARK    1  A    between atoms: O1_1  and  C1_3 
REMARK    2  A    between atoms: C1_3  and  C2_4 
REMARK    3  A    between atoms: C2_4  and  C3_5 
REMARK    4  A    between atoms: C6_8  and  C7_9 
REMARK    5  A    between atoms: N1_10  and  C8_12 
ROOT
HETATM    1  C3  UNL     1      21.251   4.151  17.277  1.00  0.00    -0.056 A 
HETATM    2  C4  UNL     1      21.303   5.140  16.310  1.00  0.00     0.008 A 
HETATM    3  C5  UNL     1      20.409   5.103  15.271  1.00  0.00     0.013 A 
HETATM    4  C6  UNL     1      19.436   4.098  15.146  1.00  0.00    -0.021 A 
HETATM    5  C11 UNL     1      19.406   3.130  16.117  1.00  0.00     0.013 A 
HETATM    6  C12 UNL     1      20.310   3.149  17.187  1.00  0.00     0.008 A 
ENDROOT
BRANCH   4   7
HETATM    7  C7  UNL     1      18.517   4.118  14.018  1.00  0.00     0.101 C 
HETATM    8  N1  UNL     1      17.901   3.066  13.637  1.00  0.00    -0.350 N 
ATOM      9  H1  UNL     1      18.036   2.175  14.115  1.00  0.00     0.166 HD
BRANCH   8  10
HETATM   10  C8  UNL     1      17.005   3.178  12.505  1.00  0.00     0.121 A 
HETATM   11  C9  UNL     1      15.648   2.988  12.476  1.00  0.00     0.137 A 
HETATM   12  N2  UNL     1      15.229   3.200  11.206  1.00  0.00    -0.358 N 
HETATM   13  C10 UNL     1      16.288   3.517  10.435  1.00  0.00     0.182 A 
ATOM     14  H2  UNL     1      14.264   3.131  10.883  1.00  0.00     0.166 HD
HETATM   15  N3  UNL     1      17.357   3.499  11.242  1.00  0.00    -0.337 N 
ATOM     16  H3  UNL     1      18.310   3.702  10.942  1.00  0.00     0.168 HD
ENDBRANCH   8  10
ENDBRANCH   4   7
BRANCH   1  17
HETATM   17  C2  UNL     1      22.205   4.183  18.394  1.00  0.00     0.064 C 
BRANCH  17  18
HETATM   18  C1  UNL     1      23.639   4.038  17.935  1.00  0.00     0.168 C 
BRANCH  18  19
HETATM   19  O1  UNL     1      23.762   2.862  17.200  1.00  0.00    -0.401 OA
ATOM     20  H1  UNL     1      24.265   3.040  16.415  1.00  0.00     0.209 HD
ENDBRANCH  18  19
ENDBRANCH  17  18
ENDBRANCH   1  17
TORSDOF 5
ENDMDL
MODEL 5
REMARK VINA RESULT: -6.914371005      4.020      7.362
REMARK  5 active torsions:
REMARK  status: ('A' for Active; 'I' for Inactive)
REMARK    1  A    between atoms: O1_1  and  C1_3 
REMARK    2  A    between atoms: C1_3  and  C2_4 
REMARK    3  A    between atoms: C2_4  and  C3_5 
REMARK    4  A    between atoms: C6_8  and  C7_9 
REMARK    5  A    between atoms: N1_10  and  C8_12 
ROOT
HETATM    1  C3  UNL     1      16.104   2.708  13.590  1.00  0.00    -0.056 A 
HETATM    2  C4  UNL     1      16.059   3.689  14.565  1.00  0.00     0.008 A 
HETATM    3  C5  UNL     1      16.626   3.437  15.789  1.00  0.00     0.013 A 
HETATM    4  C6  UNL     1      17.253   2.219  16.095  1.00  0.00    -0.021 A 
HETATM    5  C11 UNL     1      17.284   1.263  15.111  1.00  0.00     0.013 A 
HETATM    6  C12 UNL     1      16.712   1.500  13.855  1.00  0.00     0.008 A 
ENDROOT
BRANCH   4   7
HETATM    7  C7  UNL     1      17.834   2.017  17.414  1.00  0.00     0.101 C 
HETATM    8  N1  UNL     1      19.097   2.048  17.602  1.00  0.00    -0.350 N 
ATOM      9  H1  UNL     1      19.740   2.217  16.829  1.00  0.00     0.166 HD
BRANCH   8  10
HETATM   10  C8  UNL     1      19.587   1.837  18.949  1.00  0.00     0.121 A 
HETATM   11  C9  UNL     1      19.152   0.925  19.876  1.00  0.00     0.137 A 
HETATM   12  N2  UNL     1      19.898   1.086  20.993  1.00  0.00    -0.358 N 
HETATM   13  C10 UNL     1      20.791   2.076  20.794  1.00  0.00     0.182 A 
ATOM     14  H2  UNL     1      19.801   0.544  21.851  1.00  0.00     0.166 HD
HETATM   15  N3  UNL     1      20.586   2.518  19.547  1.00  0.00    -0.337 N 
ATOM     16  H3  UNL     1      21.116   3.271  19.106  1.00  0.00     0.168 HD
ENDBRANCH   8  10
ENDBRANCH   4   7
BRANCH   1  17
HETATM   17  C2  UNL     1      15.500   2.969  12.276  1.00  0.00     0.064 C 
BRANCH  17  18
HETATM   18  C1  UNL     1      16.444   2.668  11.134  1.00  0.00     0.168 C 
BRANCH  18  19
HETATM   19  O1  UNL     1      17.571   3.476  11.254  1.00  0.00    -0.401 OA
ATOM     20  H1  UNL     1      18.345   2.925  11.268  1.00  0.00     0.209 HD
ENDBRANCH  18  19
ENDBRANCH  17  18
ENDBRANCH   1  17
TORSDOF 5
ENDMDL
