MODEL 1
REMARK VINA RESULT: -4.952904569      0.000      0.000
REMARK  6 active torsions:
REMARK  status: ('A' for Active; 'I' for Inactive)
REMARK    1  A    between atoms: N1_2  and  C3_4 
REMARK    2  A    between atoms: C3_4  and  C4_5 
REMARK    3  A    between atoms: C5_7  and  C6_8 
REMARK    4  A    between atoms: C6_8  and  O2_9 
REMARK    5  A    between atoms: C7_11  and  O3_12 
REMARK    6  A    between atoms: C8_14  and  O4_15 
ROOT
HETATM    1  C4  UNL     1      16.278   1.760  14.892  1.00  0.00     0.181 C 
HETATM    2  O1  UNL     1      15.188   2.362  15.492  1.00  0.00    -0.371 OA
HETATM    3  C5  UNL     1      15.330   2.143  16.847  1.00  0.00     0.176 C 
HETATM    4  C7  UNL     1      16.013   0.823  17.028  1.00  0.00     0.180 C 
HETATM    5  C8  UNL     1      16.340   0.433  15.598  1.00  0.00     0.180 C 
ENDROOT
BRANCH   1   6
HETATM    6  C3  UNL     1      16.012   1.621  13.419  1.00  0.00     0.305 C 
BRANCH   6   7
HETATM    7  N1  UNL     1      17.035   2.276  12.621  1.00  0.00     0.082 N 
HETATM    8  C1  UNL     1      16.311   3.082  11.626  1.00  0.00     0.309 C 
HETATM    9  C2  UNL     1      17.780   3.227  13.426  1.00  0.00     0.309 C 
ENDBRANCH   6   7
ENDBRANCH   1   6
BRANCH   5  10
HETATM   10  O4  UNL     1      15.343  -0.447  15.190  1.00  0.00    -0.390 OA
ATOM     11  H4  UNL     1      15.472  -0.771  14.307  1.00  0.00     0.210 HD
ENDBRANCH   5  10
BRANCH   3  12
HETATM   12  C6  UNL     1      13.996   2.209  17.568  1.00  0.00     0.198 C 
BRANCH  12  13
HETATM   13  O2  UNL     1      14.033   1.342  18.655  1.00  0.00    -0.398 OA
ATOM     14  H2  UNL     1      13.734   1.807  19.427  1.00  0.00     0.209 HD
ENDBRANCH  12  13
ENDBRANCH   3  12
BRANCH   4  15
HETATM   15  O3  UNL     1      17.186   0.920  17.777  1.00  0.00    -0.390 OA
ATOM     16  H3  UNL     1      17.798   1.553  17.421  1.00  0.00     0.210 HD
ENDBRANCH   4  15
TORSDOF 6
ENDMDL
MODEL 2
REMARK VINA RESULT: -4.949748517      2.656      4.951
REMARK  6 active torsions:
REMARK  status: ('A' for Active; 'I' for Inactive)
REMARK    1  A    between atoms: N1_2  and  C3_4 
REMARK    2  A    between atoms: C3_4  and  C4_5 
REMARK    3  A    between atoms: C5_7  and  C6_8 
REMARK    4  A    between atoms: C6_8  and  O2_9 
REMARK    5  A    between atoms: C7_11  and  O3_12 
REMARK    6  A    between atoms: C8_14  and  O4_15 
ROOT
HETATM    1  C4  UNL     1      15.954   1.687  14.568  1.00  0.00     0.181 C 
HETATM    2  O1  UNL     1      15.679   2.578  13.547  1.00  0.00    -0.371 OA
HETATM    3  C5  UNL     1      16.258   2.047  12.413  1.00  0.00     0.176 C 
HETATM    4  C7  UNL     1      17.486   1.301  12.832  1.00  0.00     0.180 C 
HETATM    5  C8  UNL     1      17.411   1.385  14.346  1.00  0.00     0.180 C 
ENDROOT
BRANCH   1   6
HETATM    6  C3  UNL     1      15.696   2.359  15.888  1.00  0.00     0.305 C 
BRANCH   6   7
HETATM    7  N1  UNL     1      14.991   1.484  16.811  1.00  0.00     0.082 N 
HETATM    8  C1  UNL     1      16.000   1.034  17.783  1.00  0.00     0.309 C 
HETATM    9  C2  UNL     1      14.015   2.234  17.581  1.00  0.00     0.309 C 
ENDBRANCH   6   7
ENDBRANCH   1   6
BRANCH   5  10
HETATM   10  O4  UNL     1      18.248   2.429  14.727  1.00  0.00    -0.390 OA
ATOM     11  H4  UNL     1      19.102   2.133  15.018  1.00  0.00     0.210 HD
ENDBRANCH   5  10
BRANCH   3  12
HETATM   12  C6  UNL     1      16.556   3.121  11.382  1.00  0.00     0.198 C 
BRANCH  12  13
HETATM   13  O2  UNL     1      17.933   3.191  11.195  1.00  0.00    -0.398 OA
ATOM     14  H2  UNL     1      18.255   3.988  11.597  1.00  0.00     0.209 HD
ENDBRANCH  12  13
ENDBRANCH   3  12
BRANCH   4  15
HETATM   15  O3  UNL     1      17.472  -0.033  12.426  1.00  0.00    -0.390 OA
ATOM     16  H3  UNL     1      18.058  -0.580  12.937  1.00  0.00     0.210 HD
ENDBRANCH   4  15
TORSDOF 6
ENDMDL
MODEL 3
REMARK VINA RESULT: -4.702459715      2.485      4.814
REMARK  6 active torsions:
REMARK  status: ('A' for Active; 'I' for Inactive)
REMARK    1  A    between atoms: N1_2  and  C3_4 
REMARK    2  A    between atoms: C3_4  and  C4_5 
REMARK    3  A    between atoms: C5_7  and  C6_8 
REMARK    4  A    between atoms: C6_8  and  O2_9 
REMARK    5  A    between atoms: C7_11  and  O3_12 
REMARK    6  A    between atoms: C8_14  and  O4_15 
ROOT
HETATM    1  C4  UNL     1      15.917   1.335  15.303  1.00  0.00     0.181 C 
HETATM    2  O1  UNL     1      16.466   2.532  14.885  1.00  0.00    -0.371 OA
HETATM    3  C5  UNL     1      16.685   2.398  13.529  1.00  0.00     0.176 C 
HETATM    4  C7  UNL     1      17.007   0.962  13.257  1.00  0.00     0.180 C 
HETATM    5  C8  UNL     1      16.795   0.323  14.618  1.00  0.00     0.180 C 
ENDROOT
BRANCH   1   6
HETATM    6  C3  UNL     1      15.999   1.254  16.802  1.00  0.00     0.305 C 
BRANCH   6   7
HETATM    7  N1  UNL     1      14.683   1.292  17.418  1.00  0.00     0.082 N 
HETATM    8  C1  UNL     1      14.920   1.250  18.869  1.00  0.00     0.309 C 
HETATM    9  C2  UNL     1      14.037   2.567  17.164  1.00  0.00     0.309 C 
ENDBRANCH   6   7
ENDBRANCH   1   6
BRANCH   5  10
HETATM   10  O4  UNL     1      18.053   0.210  15.202  1.00  0.00    -0.390 OA
ATOM     11  H4  UNL     1      18.514  -0.578  14.942  1.00  0.00     0.210 HD
ENDBRANCH   5  10
BRANCH   3  12
HETATM   12  C6  UNL     1      17.774   3.338  13.042  1.00  0.00     0.198 C 
BRANCH  12  13
HETATM   13  O2  UNL     1      18.115   2.989  11.739  1.00  0.00    -0.398 OA
ATOM     14  H2  UNL     1      18.757   3.609  11.416  1.00  0.00     0.209 HD
ENDBRANCH  12  13
ENDBRANCH   3  12
BRANCH   4  15
HETATM   15  O3  UNL     1      16.150   0.385  12.320  1.00  0.00    -0.390 OA
ATOM     16  H3  UNL     1      16.590  -0.242  11.756  1.00  0.00     0.210 HD
ENDBRANCH   4  15
TORSDOF 6
ENDMDL
MODEL 4
REMARK VINA RESULT: -4.509903113      1.524      2.423
REMARK  6 active torsions:
REMARK  status: ('A' for Active; 'I' for Inactive)
REMARK    1  A    between atoms: N1_2  and  C3_4 
REMARK    2  A    between atoms: C3_4  and  C4_5 
REMARK    3  A    between atoms: C5_7  and  C6_8 
REMARK    4  A    between atoms: C6_8  and  O2_9 
REMARK    5  A    between atoms: C7_11  and  O3_12 
REMARK    6  A    between atoms: C8_14  and  O4_15 
ROOT
HETATM    1  C4  UNL     1      15.997   0.869  14.915  1.00  0.00     0.181 C 
HETATM    2  O1  UNL     1      15.839   0.272  16.151  1.00  0.00    -0.371 OA
HETATM    3  C5  UNL     1      15.099   1.156  16.909  1.00  0.00     0.176 C 
HETATM    4  C7  UNL     1      15.450   2.543  16.468  1.00  0.00     0.180 C 
HETATM    5  C8  UNL     1      16.365   2.280  15.285  1.00  0.00     0.180 C 
ENDROOT
BRANCH   1   6
HETATM    6  C3  UNL     1      17.092   0.162  14.164  1.00  0.00     0.305 C 
BRANCH   6   7
HETATM    7  N1  UNL     1      17.383   0.810  12.896  1.00  0.00     0.082 N 
HETATM    8  C1  UNL     1      17.847  -0.259  11.999  1.00  0.00     0.309 C 
HETATM    9  C2  UNL     1      16.166   1.324  12.293  1.00  0.00     0.309 C 
ENDBRANCH   6   7
ENDBRANCH   1   6
BRANCH   5  10
HETATM   10  O4  UNL     1      17.668   2.396  15.759  1.00  0.00    -0.390 OA
ATOM     11  H4  UNL     1      18.109   3.177  15.446  1.00  0.00     0.210 HD
ENDBRANCH   5  10
BRANCH   3  12
HETATM   12  C6  UNL     1      15.328   0.947  18.396  1.00  0.00     0.198 C 
BRANCH  12  13
HETATM   13  O2  UNL     1      14.109   1.060  19.055  1.00  0.00    -0.398 OA
ATOM     14  H2  UNL     1      13.974   0.282  19.582  1.00  0.00     0.209 HD
ENDBRANCH  12  13
ENDBRANCH   3  12
BRANCH   4  15
HETATM   15  O3  UNL     1      14.337   3.276  16.057  1.00  0.00    -0.390 OA
ATOM     16  H3  UNL     1      14.350   3.476  15.128  1.00  0.00     0.210 HD
ENDBRANCH   4  15
TORSDOF 6
ENDMDL
MODEL 5
REMARK VINA RESULT: -4.508987709      0.902      1.134
REMARK  6 active torsions:
REMARK  status: ('A' for Active; 'I' for Inactive)
REMARK    1  A    between atoms: N1_2  and  C3_4 
REMARK    2  A    between atoms: C3_4  and  C4_5 
REMARK    3  A    between atoms: C5_7  and  C6_8 
REMARK    4  A    between atoms: C6_8  and  O2_9 
REMARK    5  A    between atoms: C7_11  and  O3_12 
REMARK    6  A    between atoms: C8_14  and  O4_15 
ROOT
HETATM    1  C4  UNL     1      16.333   1.979  14.881  1.00  0.00     0.181 C 
HETATM    2  O1  UNL     1      15.308   2.458  15.675  1.00  0.00    -0.371 OA
HETATM    3  C5  UNL     1      15.618   2.080  16.965  1.00  0.00     0.176 C 
HETATM    4  C7  UNL     1      16.351   0.776  16.896  1.00  0.00     0.180 C 
HETATM    5  C8  UNL     1      16.514   0.579  15.400  1.00  0.00     0.180 C 
ENDROOT
BRANCH   1   6
HETATM    6  C3  UNL     1      15.895   2.012  13.442  1.00  0.00     0.305 C 
BRANCH   6   7
HETATM    7  N1  UNL     1      17.016   2.224  12.541  1.00  0.00     0.082 N 
HETATM    8  C1  UNL     1      17.325   0.902  11.973  1.00  0.00     0.309 C 
HETATM    9  C2  UNL     1      16.619   3.050  11.416  1.00  0.00     0.309 C 
ENDBRANCH   6   7
ENDBRANCH   1   6
BRANCH   5  10
HETATM   10  O4  UNL     1      15.498  -0.285  15.002  1.00  0.00    -0.390 OA
ATOM     11  H4  UNL     1      14.667   0.156  14.872  1.00  0.00     0.210 HD
ENDBRANCH   5  10
BRANCH   3  12
HETATM   12  C6  UNL     1      14.379   2.001  17.839  1.00  0.00     0.198 C 
BRANCH  12  13
HETATM   13  O2  UNL     1      13.285   2.448  17.104  1.00  0.00    -0.398 OA
ATOM     14  H2  UNL     1      12.744   2.991  17.664  1.00  0.00     0.209 HD
ENDBRANCH  12  13
ENDBRANCH   3  12
BRANCH   4  15
HETATM   15  O3  UNL     1      17.603   0.827  17.511  1.00  0.00    -0.390 OA
ATOM     16  H3  UNL     1      17.556   0.701  18.451  1.00  0.00     0.210 HD
ENDBRANCH   4  15
TORSDOF 6
ENDMDL
