MODEL 1
REMARK VINA RESULT: -6.319863201      0.000      0.000
REMARK  6 active torsions:
REMARK  status: ('A' for Active; 'I' for Inactive)
REMARK    1  A    between atoms: N2_6  and  C5_7 
REMARK    2  A    between atoms: C5_7  and  C6_8 
REMARK    3  A    between atoms: C6_8  and  N3_9 
REMARK    4  A    between atoms: C6_8  and  N4_13 
REMARK    5  A    between atoms: C6_8  and  C7_17 
REMARK    6  A    between atoms: C7_17  and  O1_18 
ROOT
HETATM    1  C6  UNL     1      17.223   2.176  12.559  1.00  0.00     0.320 C 
ENDROOT
BRANCH   1   2
HETATM    2  C5  UNL     1      17.746   2.529  13.915  1.00  0.00     0.219 C 
BRANCH   2   3
HETATM    3  N2  UNL     1      16.928   1.985  14.981  1.00  0.00    -0.297 N 
HETATM    4  N1  UNL     1      17.022   0.803  15.542  1.00  0.00    -0.305 N 
HETATM    5  C3  UNL     1      16.096   0.633  16.508  1.00  0.00     0.118 A 
HETATM    6  C4  UNL     1      17.978  -0.244  15.213  1.00  0.00     0.177 C 
HETATM    7  C2  UNL     1      15.359   1.786  16.567  1.00  0.00    -0.028 A 
HETATM    8  C1  UNL     1      14.221   2.063  17.487  1.00  0.00     0.051 C 
HETATM    9  C8  UNL     1      15.891   2.617  15.608  1.00  0.00     0.118 A 
ENDBRANCH   2   3
ENDBRANCH   1   2
BRANCH   1  10
HETATM   10  N3  UNL     1      17.562   0.817  12.199  1.00  0.00    -0.041 N 
ATOM     11  H33 UNL     1      18.256   0.424  12.835  1.00  0.00     0.277 HD
ATOM     12  H32 UNL     1      16.791   0.176  12.393  1.00  0.00     0.277 HD
ATOM     13  H31 UNL     1      17.865   0.753  11.228  1.00  0.00     0.277 HD
ENDBRANCH   1  10
BRANCH   1  14
HETATM   14  N4  UNL     1      17.760   3.071  11.526  1.00  0.00    -0.041 N 
ATOM     15  H43 UNL     1      17.016   3.590  11.059  1.00  0.00     0.277 HD
ATOM     16  H42 UNL     1      18.266   3.855  11.937  1.00  0.00     0.277 HD
ATOM     17  H41 UNL     1      18.338   2.564  10.856  1.00  0.00     0.277 HD
ENDBRANCH   1  14
BRANCH   1  18
HETATM   18  C7  UNL     1      15.719   2.298  12.473  1.00  0.00     0.235 C 
BRANCH  18  19
HETATM   19  O1  UNL     1      15.332   2.836  11.232  1.00  0.00    -0.397 OA
ATOM     20  H1  UNL     1      14.907   3.677  11.347  1.00  0.00     0.209 HD
ENDBRANCH  18  19
ENDBRANCH   1  18
TORSDOF 6
ENDMDL
MODEL 2
REMARK VINA RESULT: -6.308624649      1.328      1.502
REMARK  6 active torsions:
REMARK  status: ('A' for Active; 'I' for Inactive)
REMARK    1  A    between atoms: N2_6  and  C5_7 
REMARK    2  A    between atoms: C5_7  and  C6_8 
REMARK    3  A    between atoms: C6_8  and  N3_9 
REMARK    4  A    between atoms: C6_8  and  N4_13 
REMARK    5  A    between atoms: C6_8  and  C7_17 
REMARK    6  A    between atoms: C7_17  and  O1_18 
ROOT
HETATM    1  C6  UNL     1      17.067   2.164  12.533  1.00  0.00     0.320 C 
ENDROOT
BRANCH   1   2
HETATM    2  C5  UNL     1      17.649   2.536  13.860  1.00  0.00     0.219 C 
BRANCH   2   3
HETATM    3  N2  UNL     1      16.873   2.014  14.967  1.00  0.00    -0.297 N 
HETATM    4  N1  UNL     1      17.038   0.874  15.597  1.00  0.00    -0.305 N 
HETATM    5  C3  UNL     1      16.133   0.713  16.584  1.00  0.00     0.118 A 
HETATM    6  C4  UNL     1      18.046  -0.138  15.317  1.00  0.00     0.177 C 
HETATM    7  C2  UNL     1      15.335   1.827  16.585  1.00  0.00    -0.028 A 
HETATM    8  C1  UNL     1      14.195   2.096  17.504  1.00  0.00     0.051 C 
HETATM    9  C8  UNL     1      15.811   2.625  15.571  1.00  0.00     0.118 A 
ENDBRANCH   2   3
ENDBRANCH   1   2
BRANCH   1  10
HETATM   10  N3  UNL     1      17.811   2.760  11.444  1.00  0.00    -0.041 N 
ATOM     11  H33 UNL     1      18.714   3.115  11.759  1.00  0.00     0.277 HD
ATOM     12  H32 UNL     1      18.140   2.053  10.786  1.00  0.00     0.277 HD
ATOM     13  H31 UNL     1      17.268   3.484  10.974  1.00  0.00     0.277 HD
ENDBRANCH   1  10
BRANCH   1  14
HETATM   14  N4  UNL     1      15.667   2.594  12.420  1.00  0.00    -0.041 N 
ATOM     15  H43 UNL     1      15.291   2.882  13.323  1.00  0.00     0.277 HD
ATOM     16  H42 UNL     1      15.587   3.482  11.925  1.00  0.00     0.277 HD
ATOM     17  H41 UNL     1      15.089   1.873  11.988  1.00  0.00     0.277 HD
ENDBRANCH   1  14
BRANCH   1  18
HETATM   18  C7  UNL     1      17.063   0.670  12.304  1.00  0.00     0.235 C 
BRANCH  18  19
HETATM   19  O1  UNL     1      18.204   0.273  11.583  1.00  0.00    -0.397 OA
ATOM     20  H1  UNL     1      18.330  -0.666  11.642  1.00  0.00     0.209 HD
ENDBRANCH  18  19
ENDBRANCH   1  18
TORSDOF 6
ENDMDL
MODEL 3
REMARK VINA RESULT: -5.829127273      2.640      4.546
REMARK  6 active torsions:
REMARK  status: ('A' for Active; 'I' for Inactive)
REMARK    1  A    between atoms: N2_6  and  C5_7 
REMARK    2  A    between atoms: C5_7  and  C6_8 
REMARK    3  A    between atoms: C6_8  and  N3_9 
REMARK    4  A    between atoms: C6_8  and  N4_13 
REMARK    5  A    between atoms: C6_8  and  C7_17 
REMARK    6  A    between atoms: C7_17  and  O1_18 
ROOT
HETATM    1  C6  UNL     1      15.277   1.491  16.905  1.00  0.00     0.320 C 
ENDROOT
BRANCH   1   2
HETATM    2  C5  UNL     1      16.647   1.871  16.441  1.00  0.00     0.219 C 
BRANCH   2   3
HETATM    3  N2  UNL     1      16.783   1.791  15.001  1.00  0.00    -0.297 N 
HETATM    4  N1  UNL     1      17.328   0.826  14.298  1.00  0.00    -0.305 N 
HETATM    5  C3  UNL     1      17.279   1.083  12.975  1.00  0.00     0.118 A 
HETATM    6  C4  UNL     1      17.931  -0.395  14.814  1.00  0.00     0.177 C 
HETATM    7  C2  UNL     1      16.661   2.295  12.822  1.00  0.00    -0.028 A 
HETATM    8  C1  UNL     1      16.382   2.990  11.535  1.00  0.00     0.051 C 
HETATM    9  C8  UNL     1      16.360   2.722  14.095  1.00  0.00     0.118 A 
ENDBRANCH   2   3
ENDBRANCH   1   2
BRANCH   1  10
HETATM   10  N3  UNL     1      14.786   0.324  16.205  1.00  0.00    -0.041 N 
ATOM     11  H33 UNL     1      14.505   0.551  15.251  1.00  0.00     0.277 HD
ATOM     12  H32 UNL     1      15.540  -0.330  15.996  1.00  0.00     0.277 HD
ATOM     13  H31 UNL     1      14.031  -0.129  16.720  1.00  0.00     0.277 HD
ENDBRANCH   1  10
BRANCH   1  14
HETATM   14  N4  UNL     1      14.317   2.584  16.701  1.00  0.00    -0.041 N 
ATOM     15  H43 UNL     1      13.378   2.228  16.524  1.00  0.00     0.277 HD
ATOM     16  H42 UNL     1      14.134   3.087  17.569  1.00  0.00     0.277 HD
ATOM     17  H41 UNL     1      14.622   3.217  15.962  1.00  0.00     0.277 HD
ENDBRANCH   1  14
BRANCH   1  18
HETATM   18  C7  UNL     1      15.237   1.174  18.382  1.00  0.00     0.235 C 
BRANCH  18  19
HETATM   19  O1  UNL     1      14.021   1.596  18.951  1.00  0.00    -0.397 OA
ATOM     20  H1  UNL     1      14.176   2.150  19.706  1.00  0.00     0.209 HD
ENDBRANCH  18  19
ENDBRANCH   1  18
TORSDOF 6
ENDMDL
MODEL 4
REMARK VINA RESULT: -5.463165729      2.383      4.423
REMARK  6 active torsions:
REMARK  status: ('A' for Active; 'I' for Inactive)
REMARK    1  A    between atoms: N2_6  and  C5_7 
REMARK    2  A    between atoms: C5_7  and  C6_8 
REMARK    3  A    between atoms: C6_8  and  N3_9 
REMARK    4  A    between atoms: C6_8  and  N4_13 
REMARK    5  A    between atoms: C6_8  and  C7_17 
REMARK    6  A    between atoms: C7_17  and  O1_18 
ROOT
HETATM    1  C6  UNL     1      15.601   1.266  16.936  1.00  0.00     0.320 C 
ENDROOT
BRANCH   1   2
HETATM    2  C5  UNL     1      16.930   1.683  16.393  1.00  0.00     0.219 C 
BRANCH   2   3
HETATM    3  N2  UNL     1      16.967   1.660  14.945  1.00  0.00    -0.297 N 
HETATM    4  N1  UNL     1      17.448   0.717  14.169  1.00  0.00    -0.305 N 
HETATM    5  C3  UNL     1      17.312   1.028  12.863  1.00  0.00     0.118 A 
HETATM    6  C4  UNL     1      18.067  -0.530  14.593  1.00  0.00     0.177 C 
HETATM    7  C2  UNL     1      16.702   2.253  12.801  1.00  0.00    -0.028 A 
HETATM    8  C1  UNL     1      16.346   3.002  11.564  1.00  0.00     0.051 C 
HETATM    9  C8  UNL     1      16.496   2.631  14.108  1.00  0.00     0.118 A 
ENDBRANCH   2   3
ENDBRANCH   1   2
BRANCH   1  10
HETATM   10  N3  UNL     1      15.699   0.861  18.321  1.00  0.00    -0.041 N 
ATOM     11  H33 UNL     1      16.151  -0.049  18.413  1.00  0.00     0.277 HD
ATOM     12  H32 UNL     1      16.379   1.427  18.829  1.00  0.00     0.277 HD
ATOM     13  H31 UNL     1      14.787   0.873  18.779  1.00  0.00     0.277 HD
ENDBRANCH   1  10
BRANCH   1  14
HETATM   14  N4  UNL     1      15.034   0.148  16.171  1.00  0.00    -0.041 N 
ATOM     15  H43 UNL     1      15.224  -0.747  16.622  1.00  0.00     0.277 HD
ATOM     16  H42 UNL     1      14.016   0.138  16.222  1.00  0.00     0.277 HD
ATOM     17  H41 UNL     1      15.358   0.154  15.203  1.00  0.00     0.277 HD
ENDBRANCH   1  14
BRANCH   1  18
HETATM   18  C7  UNL     1      14.577   2.377  16.868  1.00  0.00     0.235 C 
BRANCH  18  19
HETATM   19  O1  UNL     1      13.681   2.296  17.950  1.00  0.00    -0.397 OA
ATOM     20  H1  UNL     1      13.399   1.400  18.088  1.00  0.00     0.209 HD
ENDBRANCH  18  19
ENDBRANCH   1  18
TORSDOF 6
ENDMDL
MODEL 5
REMARK VINA RESULT: -5.393802327      1.502      1.729
REMARK  6 active torsions:
REMARK  status: ('A' for Active; 'I' for Inactive)
REMARK    1  A    between atoms: N2_6  and  C5_7 
REMARK    2  A    between atoms: C5_7  and  C6_8 
REMARK    3  A    between atoms: C6_8  and  N3_9 
REMARK    4  A    between atoms: C6_8  and  N4_13 
REMARK    5  A    between atoms: C6_8  and  C7_17 
REMARK    6  A    between atoms: C7_17  and  O1_18 
ROOT
HETATM    1  C6  UNL     1      17.005   2.501  12.475  1.00  0.00     0.320 C 
ENDROOT
BRANCH   1   2
HETATM    2  C5  UNL     1      16.914   1.100  12.991  1.00  0.00     0.219 C 
BRANCH   2   3
HETATM    3  N2  UNL     1      16.587   1.052  14.402  1.00  0.00    -0.297 N 
HETATM    4  N1  UNL     1      17.175   0.347  15.339  1.00  0.00    -0.305 N 
HETATM    5  C3  UNL     1      16.608   0.550  16.547  1.00  0.00     0.118 A 
HETATM    6  C4  UNL     1      18.298  -0.563  15.170  1.00  0.00     0.177 C 
HETATM    7  C2  UNL     1      15.588   1.447  16.368  1.00  0.00    -0.028 A 
HETATM    8  C1  UNL     1      14.679   1.973  17.422  1.00  0.00     0.051 C 
HETATM    9  C8  UNL     1      15.590   1.748  15.025  1.00  0.00     0.118 A 
ENDBRANCH   2   3
ENDBRANCH   1   2
BRANCH   1  10
HETATM   10  N3  UNL     1      15.762   2.922  11.866  1.00  0.00    -0.041 N 
ATOM     11  H33 UNL     1      15.918   3.341  10.949  1.00  0.00     0.277 HD
ATOM     12  H32 UNL     1      15.196   2.122  11.580  1.00  0.00     0.277 HD
ATOM     13  H31 UNL     1      15.240   3.549  12.479  1.00  0.00     0.277 HD
ENDBRANCH   1  10
BRANCH   1  14
HETATM   14  N4  UNL     1      18.073   2.638  11.477  1.00  0.00    -0.041 N 
ATOM     15  H43 UNL     1      18.571   1.759  11.340  1.00  0.00     0.277 HD
ATOM     16  H42 UNL     1      17.694   2.753  10.537  1.00  0.00     0.277 HD
ATOM     17  H41 UNL     1      18.713   3.396  11.716  1.00  0.00     0.277 HD
ENDBRANCH   1  14
BRANCH   1  18
HETATM   18  C7  UNL     1      17.326   3.496  13.566  1.00  0.00     0.235 C 
BRANCH  18  19
HETATM   19  O1  UNL     1      18.716   3.684  13.677  1.00  0.00    -0.397 OA
ATOM     20  H1  UNL     1      19.185   2.907  13.396  1.00  0.00     0.209 HD
ENDBRANCH  18  19
ENDBRANCH   1  18
TORSDOF 6
ENDMDL
