MODEL 1
REMARK VINA RESULT: -6.093838290      0.000      0.000
REMARK  6 active torsions:
REMARK  status: ('A' for Active; 'I' for Inactive)
REMARK    1  A    between atoms: S1_2  and  C1_3 
REMARK    2  A    between atoms: S1_2  and  C3_7 
REMARK    3  A    between atoms: C1_3  and  C2_4 
REMARK    4  A    between atoms: C2_4  and  O2_5 
REMARK    5  A    between atoms: C5_10  and  O4_11 
REMARK    6  A    between atoms: C6_13  and  O5_14 
ROOT
HETATM    1  C3  UNL     1      17.776   1.771  15.010  1.00  0.00     0.245 C 
HETATM    2  O3  UNL     1      17.837   0.580  14.289  1.00  0.00    -0.368 OA
HETATM    3  C4  UNL     1      17.712  -0.352  15.346  1.00  0.00     0.203 C 
HETATM    4  C5  UNL     1      16.421   0.116  15.974  1.00  0.00     0.174 C 
HETATM    5  C6  UNL     1      16.603   1.635  15.929  1.00  0.00     0.190 C 
ENDROOT
BRANCH   1   6
HETATM    6  S1  UNL     1      17.699   3.156  13.938  1.00  0.00     0.049 S 
HETATM    7  O1  UNL     1      19.046   4.104  13.951  1.00  0.00    -0.255 OA
BRANCH   6   8
HETATM    8  C1  UNL     1      17.251   2.599  12.312  1.00  0.00     0.137 C 
BRANCH   8   9
HETATM    9  C2  UNL     1      15.778   2.266  12.254  1.00  0.00     0.176 C 
BRANCH   9  10
HETATM   10  O2  UNL     1      15.639   0.920  12.514  1.00  0.00    -0.400 OA
ATOM     11  H2  UNL     1      15.146   0.534  11.798  1.00  0.00     0.209 HD
ENDBRANCH   9  10
ENDBRANCH   8   9
ENDBRANCH   6   8
ENDBRANCH   1   6
BRANCH   5  12
HETATM   12  O5  UNL     1      15.444   2.211  15.435  1.00  0.00    -0.389 OA
ATOM     13  H5  UNL     1      14.661   1.955  15.908  1.00  0.00     0.210 HD
ENDBRANCH   5  12
BRANCH   4  14
HETATM   14  O4  UNL     1      15.350  -0.234  15.162  1.00  0.00    -0.391 OA
ATOM     15  H4  UNL     1      14.538  -0.153  15.649  1.00  0.00     0.210 HD
ENDBRANCH   4  14
TORSDOF 6
ENDMDL
MODEL 2
REMARK VINA RESULT: -5.832850325      1.919      4.305
REMARK  6 active torsions:
REMARK  status: ('A' for Active; 'I' for Inactive)
REMARK    1  A    between atoms: S1_2  and  C1_3 
REMARK    2  A    between atoms: S1_2  and  C3_7 
REMARK    3  A    between atoms: C1_3  and  C2_4 
REMARK    4  A    between atoms: C2_4  and  O2_5 
REMARK    5  A    between atoms: C5_10  and  O4_11 
REMARK    6  A    between atoms: C6_13  and  O5_14 
ROOT
HETATM    1  C3  UNL     1      16.867   1.688  14.508  1.00  0.00     0.245 C 
HETATM    2  O3  UNL     1      16.587   3.048  14.383  1.00  0.00    -0.368 OA
HETATM    3  C4  UNL     1      17.503   3.392  13.361  1.00  0.00     0.203 C 
HETATM    4  C5  UNL     1      17.101   2.408  12.289  1.00  0.00     0.174 C 
HETATM    5  C6  UNL     1      16.879   1.140  13.116  1.00  0.00     0.190 C 
ENDROOT
BRANCH   1   6
HETATM    6  S1  UNL     1      15.726   0.905  15.585  1.00  0.00     0.049 S 
HETATM    7  O1  UNL     1      15.721  -0.740  15.494  1.00  0.00    -0.255 OA
BRANCH   6   8
HETATM    8  C1  UNL     1      15.981   1.514  17.233  1.00  0.00     0.137 C 
BRANCH   8   9
HETATM    9  C2  UNL     1      14.667   1.600  17.975  1.00  0.00     0.176 C 
BRANCH   9  10
HETATM   10  O2  UNL     1      13.759   2.235  17.155  1.00  0.00    -0.400 OA
ATOM     11  H2  UNL     1      13.042   2.543  17.697  1.00  0.00     0.209 HD
ENDBRANCH   9  10
ENDBRANCH   8   9
ENDBRANCH   6   8
ENDBRANCH   1   6
BRANCH   5  12
HETATM   12  O5  UNL     1      15.678   0.563  12.738  1.00  0.00    -0.389 OA
ATOM     13  H5  UNL     1      15.689  -0.386  12.757  1.00  0.00     0.210 HD
ENDBRANCH   5  12
BRANCH   4  14
HETATM   14  O4  UNL     1      15.893   2.796  11.724  1.00  0.00    -0.391 OA
ATOM     15  H4  UNL     1      15.869   3.742  11.638  1.00  0.00     0.210 HD
ENDBRANCH   4  14
TORSDOF 6
ENDMDL
MODEL 3
REMARK VINA RESULT: -5.738728974      1.856      4.109
REMARK  6 active torsions:
REMARK  status: ('A' for Active; 'I' for Inactive)
REMARK    1  A    between atoms: S1_2  and  C1_3 
REMARK    2  A    between atoms: S1_2  and  C3_7 
REMARK    3  A    between atoms: C1_3  and  C2_4 
REMARK    4  A    between atoms: C2_4  and  O2_5 
REMARK    5  A    between atoms: C5_10  and  O4_11 
REMARK    6  A    between atoms: C6_13  and  O5_14 
ROOT
HETATM    1  C3  UNL     1      15.967   1.750  13.979  1.00  0.00     0.245 C 
HETATM    2  O3  UNL     1      15.915   1.228  12.687  1.00  0.00    -0.368 OA
HETATM    3  C4  UNL     1      15.736   2.422  11.949  1.00  0.00     0.203 C 
HETATM    4  C5  UNL     1      16.927   3.220  12.423  1.00  0.00     0.174 C 
HETATM    5  C6  UNL     1      16.923   2.900  13.920  1.00  0.00     0.190 C 
ENDROOT
BRANCH   1   6
HETATM    6  S1  UNL     1      16.396   0.512  15.143  1.00  0.00     0.049 S 
HETATM    7  O1  UNL     1      17.847  -0.215  14.864  1.00  0.00    -0.255 OA
BRANCH   6   8
HETATM    8  C1  UNL     1      16.255   1.188  16.779  1.00  0.00     0.137 C 
BRANCH   8   9
HETATM    9  C2  UNL     1      14.997   2.017  16.903  1.00  0.00     0.176 C 
BRANCH   9  10
HETATM   10  O2  UNL     1      14.043   1.245  17.531  1.00  0.00    -0.400 OA
ATOM     11  H2  UNL     1      13.375   1.828  17.872  1.00  0.00     0.209 HD
ENDBRANCH   9  10
ENDBRANCH   8   9
ENDBRANCH   6   8
ENDBRANCH   1   6
BRANCH   5  12
HETATM   12  O5  UNL     1      18.210   2.570  14.311  1.00  0.00    -0.389 OA
ATOM     13  H5  UNL     1      18.621   1.920  13.753  1.00  0.00     0.210 HD
ENDBRANCH   5  12
BRANCH   4  14
HETATM   14  O4  UNL     1      18.088   2.711  11.856  1.00  0.00    -0.391 OA
ATOM     15  H4  UNL     1      18.078   1.762  11.899  1.00  0.00     0.210 HD
ENDBRANCH   4  14
TORSDOF 6
ENDMDL
MODEL 4
REMARK VINA RESULT: -5.416737035      2.199      4.036
REMARK  6 active torsions:
REMARK  status: ('A' for Active; 'I' for Inactive)
REMARK    1  A    between atoms: S1_2  and  C1_3 
REMARK    2  A    between atoms: S1_2  and  C3_7 
REMARK    3  A    between atoms: C1_3  and  C2_4 
REMARK    4  A    between atoms: C2_4  and  O2_5 
REMARK    5  A    between atoms: C5_10  and  O4_11 
REMARK    6  A    between atoms: C6_13  and  O5_14 
ROOT
HETATM    1  C3  UNL     1      16.358   0.926  14.178  1.00  0.00     0.245 C 
HETATM    2  O3  UNL     1      17.398   0.374  13.431  1.00  0.00    -0.368 OA
HETATM    3  C4  UNL     1      16.970   0.716  12.126  1.00  0.00     0.203 C 
HETATM    4  C5  UNL     1      16.817   2.211  12.270  1.00  0.00     0.174 C 
HETATM    5  C6  UNL     1      16.163   2.312  13.650  1.00  0.00     0.190 C 
ENDROOT
BRANCH   1   6
HETATM    6  S1  UNL     1      16.702   0.846  15.895  1.00  0.00     0.049 S 
HETATM    7  O1  UNL     1      18.173   1.450  16.325  1.00  0.00    -0.255 OA
BRANCH   6   8
HETATM    8  C1  UNL     1      15.354   1.584  16.785  1.00  0.00     0.137 C 
BRANCH   8   9
HETATM    9  C2  UNL     1      15.354   1.122  18.224  1.00  0.00     0.176 C 
BRANCH   9  10
HETATM   10  O2  UNL     1      14.055   1.171  18.683  1.00  0.00    -0.400 OA
ATOM     11  H2  UNL     1      13.799   2.085  18.736  1.00  0.00     0.209 HD
ENDBRANCH   9  10
ENDBRANCH   8   9
ENDBRANCH   6   8
ENDBRANCH   1   6
BRANCH   5  12
HETATM   12  O5  UNL     1      16.822   3.282  14.388  1.00  0.00    -0.389 OA
ATOM     13  H5  UNL     1      16.264   3.727  15.015  1.00  0.00     0.210 HD
ENDBRANCH   5  12
BRANCH   4  14
HETATM   14  O4  UNL     1      18.069   2.809  12.319  1.00  0.00    -0.391 OA
ATOM     15  H4  UNL     1      18.070   3.501  12.970  1.00  0.00     0.210 HD
ENDBRANCH   4  14
TORSDOF 6
ENDMDL
MODEL 5
REMARK VINA RESULT: -5.377584138      1.076      1.209
REMARK  6 active torsions:
REMARK  status: ('A' for Active; 'I' for Inactive)
REMARK    1  A    between atoms: S1_2  and  C1_3 
REMARK    2  A    between atoms: S1_2  and  C3_7 
REMARK    3  A    between atoms: C1_3  and  C2_4 
REMARK    4  A    between atoms: C2_4  and  O2_5 
REMARK    5  A    between atoms: C5_10  and  O4_11 
REMARK    6  A    between atoms: C6_13  and  O5_14 
ROOT
HETATM    1  C3  UNL     1      17.598   1.728  15.027  1.00  0.00     0.245 C 
HETATM    2  O3  UNL     1      17.615   0.533  14.308  1.00  0.00    -0.368 OA
HETATM    3  C4  UNL     1      17.608  -0.394  15.377  1.00  0.00     0.203 C 
HETATM    4  C5  UNL     1      16.372   0.054  16.121  1.00  0.00     0.174 C 
HETATM    5  C6  UNL     1      16.519   1.576  16.052  1.00  0.00     0.190 C 
ENDROOT
BRANCH   1   6
HETATM    6  S1  UNL     1      17.394   3.103  13.959  1.00  0.00     0.049 S 
HETATM    7  O1  UNL     1      18.802   3.829  13.505  1.00  0.00    -0.255 OA
BRANCH   6   8
HETATM    8  C1  UNL     1      16.381   2.618  12.584  1.00  0.00     0.137 C 
BRANCH   8   9
HETATM    9  C2  UNL     1      16.719   3.438  11.361  1.00  0.00     0.176 C 
BRANCH   9  10
HETATM   10  O2  UNL     1      18.018   3.148  11.004  1.00  0.00    -0.400 OA
ATOM     11  H2  UNL     1      18.317   2.430  11.550  1.00  0.00     0.209 HD
ENDBRANCH   9  10
ENDBRANCH   8   9
ENDBRANCH   6   8
ENDBRANCH   1   6
BRANCH   5  12
HETATM   12  O5  UNL     1      15.308   2.126  15.666  1.00  0.00    -0.389 OA
ATOM     13  H5  UNL     1      14.873   2.609  16.358  1.00  0.00     0.210 HD
ENDBRANCH   5  12
BRANCH   4  14
HETATM   14  O4  UNL     1      15.237  -0.323  15.415  1.00  0.00    -0.391 OA
ATOM     15  H4  UNL     1      14.628   0.405  15.375  1.00  0.00     0.210 HD
ENDBRANCH   4  14
TORSDOF 6
ENDMDL
