MODEL 1
REMARK VINA RESULT: -6.529312520      0.000      0.000
REMARK  4 active torsions:
REMARK  status: ('A' for Active; 'I' for Inactive)
REMARK    1  A    between atoms: O1_1  and  C1_3 
REMARK    2  A    between atoms: C1_3  and  C2_4 
REMARK    3  A    between atoms: C2_4  and  N1_5 
REMARK    4  A    between atoms: N1_5  and  C3_8 
ROOT
HETATM    1  C3  UNL     1      46.119  27.092  41.510  1.00  0.00     0.415 C 
HETATM    2  N2  UNL     1      45.175  27.690  42.427  1.00  0.00    -0.042 N 
ATOM      3  H21 UNL     1      45.605  28.184  43.210  1.00  0.00     0.279 HD
ATOM      4  H22 UNL     1      44.657  27.019  42.994  1.00  0.00     0.279 HD
HETATM    5  C4  UNL     1      44.339  28.529  41.571  1.00  0.00     0.265 C 
HETATM    6  C5  UNL     1      43.781  27.854  40.386  1.00  0.00     0.300 C 
HETATM    7  N3  UNL     1      44.482  26.753  39.836  1.00  0.00     0.098 N 
HETATM    8  C6  UNL     1      45.285  27.010  38.688  1.00  0.00     0.273 C 
HETATM    9  C7  UNL     1      45.902  25.640  38.437  1.00  0.00     0.033 C 
HETATM   10  C8  UNL     1      46.156  25.172  39.862  1.00  0.00     0.041 C 
HETATM   11  C9  UNL     1      45.340  26.039  40.753  1.00  0.00     0.281 C 
ENDROOT
BRANCH   1  12
HETATM   12  N1  UNL     1      47.297  26.661  42.136  1.00  0.00    -0.042 N 
ATOM     13  H12 UNL     1      47.827  27.426  42.552  1.00  0.00     0.279 HD
ATOM     14  H11 UNL     1      48.007  26.350  41.472  1.00  0.00     0.279 HD
BRANCH  12  15
HETATM   15  C2  UNL     1      46.940  25.639  43.095  1.00  0.00     0.260 C 
BRANCH  15  16
HETATM   16  C1  UNL     1      47.323  26.019  44.521  1.00  0.00     0.191 C 
BRANCH  16  17
HETATM   17  O1  UNL     1      46.886  27.316  44.758  1.00  0.00    -0.399 OA
ATOM     18  H1  UNL     1      46.500  27.346  45.626  1.00  0.00     0.209 HD
ENDBRANCH  16  17
ENDBRANCH  15  16
ENDBRANCH  12  15
ENDBRANCH   1  12
TORSDOF 4
ENDMDL
MODEL 2
REMARK VINA RESULT: -6.109842922      1.307      2.705
REMARK  4 active torsions:
REMARK  status: ('A' for Active; 'I' for Inactive)
REMARK    1  A    between atoms: O1_1  and  C1_3 
REMARK    2  A    between atoms: C1_3  and  C2_4 
REMARK    3  A    between atoms: C2_4  and  N1_5 
REMARK    4  A    between atoms: N1_5  and  C3_8 
ROOT
HETATM    1  C3  UNL     1      46.158  26.105  41.460  1.00  0.00     0.415 C 
HETATM    2  N2  UNL     1      46.560  25.268  40.352  1.00  0.00    -0.042 N 
ATOM      3  H21 UNL     1      47.365  24.671  40.546  1.00  0.00     0.279 HD
ATOM      4  H22 UNL     1      46.984  25.773  39.574  1.00  0.00     0.279 HD
HETATM    5  C4  UNL     1      45.341  24.539  40.004  1.00  0.00     0.265 C 
HETATM    6  C5  UNL     1      44.145  25.378  39.808  1.00  0.00     0.300 C 
HETATM    7  N3  UNL     1      44.064  26.618  40.487  1.00  0.00     0.098 N 
HETATM    8  C6  UNL     1      43.273  26.651  41.672  1.00  0.00     0.273 C 
HETATM    9  C7  UNL     1      43.474  28.091  42.130  1.00  0.00     0.033 C 
HETATM   10  C8  UNL     1      44.942  28.300  41.792  1.00  0.00     0.041 C 
HETATM   11  C9  UNL     1      45.328  27.214  40.852  1.00  0.00     0.281 C 
ENDROOT
BRANCH   1  12
HETATM   12  N1  UNL     1      47.234  26.506  42.265  1.00  0.00    -0.042 N 
ATOM     13  H12 UNL     1      47.130  27.457  42.620  1.00  0.00     0.279 HD
ATOM     14  H11 UNL     1      48.093  26.654  41.734  1.00  0.00     0.279 HD
BRANCH  12  15
HETATM   15  C2  UNL     1      47.386  25.527  43.319  1.00  0.00     0.260 C 
BRANCH  15  16
HETATM   16  C1  UNL     1      47.331  26.153  44.708  1.00  0.00     0.191 C 
BRANCH  16  17
HETATM   17  O1  UNL     1      46.537  27.291  44.641  1.00  0.00    -0.399 OA
ATOM     18  H1  UNL     1      46.963  27.981  45.137  1.00  0.00     0.209 HD
ENDBRANCH  16  17
ENDBRANCH  15  16
ENDBRANCH  12  15
ENDBRANCH   1  12
TORSDOF 4
ENDMDL
MODEL 3
REMARK VINA RESULT: -6.098537335      1.855      3.153
REMARK  4 active torsions:
REMARK  status: ('A' for Active; 'I' for Inactive)
REMARK    1  A    between atoms: O1_1  and  C1_3 
REMARK    2  A    between atoms: C1_3  and  C2_4 
REMARK    3  A    between atoms: C2_4  and  N1_5 
REMARK    4  A    between atoms: N1_5  and  C3_8 
ROOT
HETATM    1  C3  UNL     1      45.867  26.951  41.250  1.00  0.00     0.415 C 
HETATM    2  N2  UNL     1      46.956  26.479  42.077  1.00  0.00    -0.042 N 
ATOM      3  H21 UNL     1      47.048  26.965  42.969  1.00  0.00     0.279 HD
ATOM      4  H22 UNL     1      47.883  26.717  41.726  1.00  0.00     0.279 HD
HETATM    5  C4  UNL     1      46.707  25.043  42.196  1.00  0.00     0.265 C 
HETATM    6  C5  UNL     1      46.481  24.338  40.922  1.00  0.00     0.300 C 
HETATM    7  N3  UNL     1      45.951  25.064  39.827  1.00  0.00     0.098 N 
HETATM    8  C6  UNL     1      44.557  24.917  39.574  1.00  0.00     0.273 C 
HETATM    9  C7  UNL     1      44.362  25.864  38.396  1.00  0.00     0.033 C 
HETATM   10  C8  UNL     1      45.284  27.007  38.788  1.00  0.00     0.041 C 
HETATM   11  C9  UNL     1      46.191  26.488  39.848  1.00  0.00     0.281 C 
ENDROOT
BRANCH   1  12
HETATM   12  N1  UNL     1      45.611  28.321  41.408  1.00  0.00    -0.042 N 
ATOM     13  H12 UNL     1      45.901  28.873  40.601  1.00  0.00     0.279 HD
ATOM     14  H11 UNL     1      46.219  28.761  42.099  1.00  0.00     0.279 HD
BRANCH  12  15
HETATM   15  C2  UNL     1      44.206  28.474  41.718  1.00  0.00     0.260 C 
BRANCH  15  16
HETATM   16  C1  UNL     1      43.584  27.191  42.254  1.00  0.00     0.191 C 
BRANCH  16  17
HETATM   17  O1  UNL     1      42.514  27.534  43.072  1.00  0.00    -0.399 OA
ATOM     18  H1  UNL     1      42.152  28.355  42.760  1.00  0.00     0.209 HD
ENDBRANCH  16  17
ENDBRANCH  15  16
ENDBRANCH  12  15
ENDBRANCH   1  12
TORSDOF 4
ENDMDL
MODEL 4
REMARK VINA RESULT: -6.080874344      2.048      3.407
REMARK  4 active torsions:
REMARK  status: ('A' for Active; 'I' for Inactive)
REMARK    1  A    between atoms: O1_1  and  C1_3 
REMARK    2  A    between atoms: C1_3  and  C2_4 
REMARK    3  A    between atoms: C2_4  and  N1_5 
REMARK    4  A    between atoms: N1_5  and  C3_8 
ROOT
HETATM    1  C3  UNL     1      46.006  26.771  41.284  1.00  0.00     0.415 C 
HETATM    2  N2  UNL     1      47.097  26.228  42.062  1.00  0.00    -0.042 N 
ATOM      3  H21 UNL     1      47.224  26.668  42.974  1.00  0.00     0.279 HD
ATOM      4  H22 UNL     1      48.024  26.456  41.702  1.00  0.00     0.279 HD
HETATM    5  C4  UNL     1      46.808  24.796  42.119  1.00  0.00     0.265 C 
HETATM    6  C5  UNL     1      46.534  24.161  40.818  1.00  0.00     0.300 C 
HETATM    7  N3  UNL     1      46.003  24.954  39.771  1.00  0.00     0.098 N 
HETATM    8  C6  UNL     1      44.599  24.861  39.543  1.00  0.00     0.273 C 
HETATM    9  C7  UNL     1      44.408  25.868  38.417  1.00  0.00     0.033 C 
HETATM   10  C8  UNL     1      45.373  26.964  38.842  1.00  0.00     0.041 C 
HETATM   11  C9  UNL     1      46.286  26.368  39.854  1.00  0.00     0.281 C 
ENDROOT
BRANCH   1  12
HETATM   12  N1  UNL     1      45.795  28.139  41.513  1.00  0.00    -0.042 N 
ATOM     13  H12 UNL     1      45.861  28.697  40.661  1.00  0.00     0.279 HD
ATOM     14  H11 UNL     1      46.562  28.578  42.023  1.00  0.00     0.279 HD
BRANCH  12  15
HETATM   15  C2  UNL     1      44.520  28.284  42.181  1.00  0.00     0.260 C 
BRANCH  15  16
HETATM   16  C1  UNL     1      43.484  28.989  41.313  1.00  0.00     0.191 C 
BRANCH  16  17
HETATM   17  O1  UNL     1      43.359  30.298  41.762  1.00  0.00    -0.399 OA
ATOM     18  H1  UNL     1      44.143  30.522  42.251  1.00  0.00     0.209 HD
ENDBRANCH  16  17
ENDBRANCH  15  16
ENDBRANCH  12  15
ENDBRANCH   1  12
TORSDOF 4
ENDMDL
MODEL 5
REMARK VINA RESULT: -5.994391251      2.666      4.721
REMARK  4 active torsions:
REMARK  status: ('A' for Active; 'I' for Inactive)
REMARK    1  A    between atoms: O1_1  and  C1_3 
REMARK    2  A    between atoms: C1_3  and  C2_4 
REMARK    3  A    between atoms: C2_4  and  N1_5 
REMARK    4  A    between atoms: N1_5  and  C3_8 
ROOT
HETATM    1  C3  UNL     1      44.728  25.390  40.050  1.00  0.00     0.415 C 
HETATM    2  N2  UNL     1      45.106  23.999  40.171  1.00  0.00    -0.042 N 
ATOM      3  H21 UNL     1      44.990  23.456  39.315  1.00  0.00     0.279 HD
ATOM      4  H22 UNL     1      44.473  23.440  40.742  1.00  0.00     0.279 HD
HETATM    5  C4  UNL     1      46.480  24.052  40.669  1.00  0.00     0.265 C 
HETATM    6  C5  UNL     1      46.683  24.905  41.853  1.00  0.00     0.300 C 
HETATM    7  N3  UNL     1      45.807  25.998  42.065  1.00  0.00     0.098 N 
HETATM    8  C6  UNL     1      46.280  27.286  41.681  1.00  0.00     0.273 C 
HETATM    9  C7  UNL     1      45.074  28.159  42.000  1.00  0.00     0.033 C 
HETATM   10  C8  UNL     1      43.935  27.246  41.576  1.00  0.00     0.041 C 
HETATM   11  C9  UNL     1      44.499  25.874  41.464  1.00  0.00     0.281 C 
ENDROOT
BRANCH   1  12
HETATM   12  N1  UNL     1      43.677  25.597  39.145  1.00  0.00    -0.042 N 
ATOM     13  H12 UNL     1      42.882  26.079  39.566  1.00  0.00     0.279 HD
ATOM     14  H11 UNL     1      43.194  24.734  38.894  1.00  0.00     0.279 HD
BRANCH  12  15
HETATM   15  C2  UNL     1      44.213  26.295  37.997  1.00  0.00     0.260 C 
BRANCH  15  16
HETATM   16  C1  UNL     1      44.508  27.761  38.292  1.00  0.00     0.191 C 
BRANCH  16  17
HETATM   17  O1  UNL     1      43.484  28.529  37.751  1.00  0.00    -0.399 OA
ATOM     18  H1  UNL     1      43.873  29.198  37.200  1.00  0.00     0.209 HD
ENDBRANCH  16  17
ENDBRANCH  15  16
ENDBRANCH  12  15
ENDBRANCH   1  12
TORSDOF 4
ENDMDL
