MODEL 1
REMARK VINA RESULT: -5.586308737      0.000      0.000
REMARK  6 active torsions:
REMARK  status: ('A' for Active; 'I' for Inactive)
REMARK    1  A    between atoms: C2_2  and  N1_3 
REMARK    2  A    between atoms: C2_2  and  C5_14 
REMARK    3  A    between atoms: N1_3  and  C3_5 
REMARK    4  A    between atoms: C3_5  and  N2_7 
REMARK    5  A    between atoms: N2_7  and  N3_9 
REMARK    6  A    between atoms: N3_9  and  C4_11 
ROOT
HETATM    1  N1  UNL     1      16.261  -4.344  27.516  1.00  0.00    -0.361 N 
ATOM      2  H1  UNL     1      16.528  -3.577  26.900  1.00  0.00     0.162 HD
ENDROOT
BRANCH   1   3
HETATM    3  C2  UNL     1      16.462  -5.697  27.050  1.00  0.00     0.083 C 
HETATM    4  C1  UNL     1      17.651  -6.318  27.737  1.00  0.00     0.032 C 
BRANCH   3   5
HETATM    5  C5  UNL     1      16.532  -5.788  25.554  1.00  0.00     0.008 C 
HETATM    6  C6  UNL     1      17.254  -6.970  25.021  1.00  0.00     0.007 C 
HETATM    7  C7  UNL     1      16.313  -7.728  24.112  1.00  0.00     0.000 C 
HETATM    8  C8  UNL     1      15.427  -6.614  23.597  1.00  0.00     0.000 C 
HETATM    9  C9  UNL     1      15.167  -5.849  24.905  1.00  0.00     0.007 C 
ENDBRANCH   3   5
ENDBRANCH   1   3
BRANCH   1  10
HETATM   10  C3  UNL     1      15.715  -4.028  28.780  1.00  0.00     0.186 C 
HETATM   11  S1  UNL     1      16.650  -3.365  29.961  1.00  0.00    -0.040 SA
BRANCH  10  12
HETATM   12  N2  UNL     1      14.345  -4.270  29.074  1.00  0.00    -0.274 N 
ATOM     13  H2  UNL     1      13.630  -3.736  28.580  1.00  0.00     0.189 HD
BRANCH  12  14
HETATM   14  N3  UNL     1      13.951  -5.215  30.018  1.00  0.00    -0.276 N 
ATOM     15  H3  UNL     1      14.180  -6.194  29.846  1.00  0.00     0.189 HD
BRANCH  14  16
HETATM   16  C4  UNL     1      13.250  -4.887  31.207  1.00  0.00     0.199 C 
HETATM   17  N4  UNL     1      13.713  -3.858  32.069  1.00  0.00    -0.068 NA
HETATM   18  S2  UNL     1      11.889  -5.675  31.631  1.00  0.00    -0.043 SA
ENDBRANCH  14  16
ENDBRANCH  12  14
ENDBRANCH  10  12
ENDBRANCH   1  10
TORSDOF 6
ENDMDL
MODEL 2
REMARK VINA RESULT: -5.515489438      2.033      2.871
REMARK  6 active torsions:
REMARK  status: ('A' for Active; 'I' for Inactive)
REMARK    1  A    between atoms: C2_2  and  N1_3 
REMARK    2  A    between atoms: C2_2  and  C5_14 
REMARK    3  A    between atoms: N1_3  and  C3_5 
REMARK    4  A    between atoms: C3_5  and  N2_7 
REMARK    5  A    between atoms: N2_7  and  N3_9 
REMARK    6  A    between atoms: N3_9  and  C4_11 
ROOT
HETATM    1  N1  UNL     1      15.434  -4.817  27.632  1.00  0.00    -0.361 N 
ATOM      2  H1  UNL     1      14.841  -4.348  26.948  1.00  0.00     0.162 HD
ENDROOT
BRANCH   1   3
HETATM    3  C2  UNL     1      16.485  -5.681  27.147  1.00  0.00     0.083 C 
HETATM    4  C1  UNL     1      17.803  -5.306  27.773  1.00  0.00     0.032 C 
BRANCH   3   5
HETATM    5  C5  UNL     1      16.539  -5.740  25.648  1.00  0.00     0.008 C 
HETATM    6  C6  UNL     1      17.262  -6.906  25.082  1.00  0.00     0.007 C 
HETATM    7  C7  UNL     1      16.315  -7.650  24.168  1.00  0.00     0.000 C 
HETATM    8  C8  UNL     1      15.418  -6.530  23.686  1.00  0.00     0.000 C 
HETATM    9  C9  UNL     1      15.167  -5.795  25.013  1.00  0.00     0.007 C 
ENDBRANCH   3   5
ENDBRANCH   1   3
BRANCH   1  10
HETATM   10  C3  UNL     1      15.183  -4.588  29.004  1.00  0.00     0.186 C 
HETATM   11  S1  UNL     1      15.032  -5.846  30.055  1.00  0.00    -0.040 SA
BRANCH  10  12
HETATM   12  N2  UNL     1      15.053  -3.270  29.521  1.00  0.00    -0.274 N 
ATOM     13  H2  UNL     1      14.380  -3.095  30.268  1.00  0.00     0.189 HD
BRANCH  12  14
HETATM   14  N3  UNL     1      15.818  -2.212  29.037  1.00  0.00    -0.276 N 
ATOM     15  H3  UNL     1      16.410  -2.376  28.223  1.00  0.00     0.189 HD
BRANCH  14  16
HETATM   16  C4  UNL     1      15.818  -0.918  29.618  1.00  0.00     0.199 C 
HETATM   17  N4  UNL     1      15.831   0.248  28.807  1.00  0.00    -0.068 NA
HETATM   18  S2  UNL     1      15.803  -0.715  31.234  1.00  0.00    -0.043 SA
ENDBRANCH  14  16
ENDBRANCH  12  14
ENDBRANCH  10  12
ENDBRANCH   1  10
TORSDOF 6
ENDMDL
MODEL 3
REMARK VINA RESULT: -5.473442648      1.738      2.067
REMARK  6 active torsions:
REMARK  status: ('A' for Active; 'I' for Inactive)
REMARK    1  A    between atoms: C2_2  and  N1_3 
REMARK    2  A    between atoms: C2_2  and  C5_14 
REMARK    3  A    between atoms: N1_3  and  C3_5 
REMARK    4  A    between atoms: C3_5  and  N2_7 
REMARK    5  A    between atoms: N2_7  and  N3_9 
REMARK    6  A    between atoms: N3_9  and  C4_11 
ROOT
HETATM    1  N1  UNL     1      14.874  -4.278  28.867  1.00  0.00    -0.361 N 
ATOM      2  H1  UNL     1      14.813  -3.400  28.353  1.00  0.00     0.162 HD
ENDROOT
BRANCH   1   3
HETATM    3  C2  UNL     1      15.483  -5.412  28.212  1.00  0.00     0.083 C 
HETATM    4  C1  UNL     1      16.527  -6.035  29.103  1.00  0.00     0.032 C 
BRANCH   3   5
HETATM    5  C5  UNL     1      16.000  -5.080  26.843  1.00  0.00     0.008 C 
HETATM    6  C6  UNL     1      16.919  -6.082  26.248  1.00  0.00     0.007 C 
HETATM    7  C7  UNL     1      16.339  -6.530  24.925  1.00  0.00     0.000 C 
HETATM    8  C8  UNL     1      15.578  -5.294  24.495  1.00  0.00     0.000 C 
HETATM    9  C9  UNL     1      14.894  -4.922  25.822  1.00  0.00     0.007 C 
ENDBRANCH   3   5
ENDBRANCH   1   3
BRANCH   1  10
HETATM   10  C3  UNL     1      14.358  -4.321  30.182  1.00  0.00     0.186 C 
HETATM   11  S1  UNL     1      15.022  -3.407  31.379  1.00  0.00    -0.040 SA
BRANCH  10  12
HETATM   12  N2  UNL     1      13.252  -5.151  30.514  1.00  0.00    -0.274 N 
ATOM     13  H2  UNL     1      12.982  -5.898  29.874  1.00  0.00     0.189 HD
BRANCH  12  14
HETATM   14  N3  UNL     1      12.526  -4.971  31.689  1.00  0.00    -0.276 N 
ATOM     15  H3  UNL     1      12.868  -4.293  32.369  1.00  0.00     0.189 HD
BRANCH  14  16
HETATM   16  C4  UNL     1      11.337  -5.684  31.989  1.00  0.00     0.199 C 
HETATM   17  N4  UNL     1      10.321  -5.856  31.011  1.00  0.00    -0.068 NA
HETATM   18  S2  UNL     1      11.086  -6.332  33.462  1.00  0.00    -0.043 SA
ENDBRANCH  14  16
ENDBRANCH  12  14
ENDBRANCH  10  12
ENDBRANCH   1  10
TORSDOF 6
ENDMDL
MODEL 4
REMARK VINA RESULT: -5.439682725      2.691      3.548
REMARK  6 active torsions:
REMARK  status: ('A' for Active; 'I' for Inactive)
REMARK    1  A    between atoms: C2_2  and  N1_3 
REMARK    2  A    between atoms: C2_2  and  C5_14 
REMARK    3  A    between atoms: N1_3  and  C3_5 
REMARK    4  A    between atoms: C3_5  and  N2_7 
REMARK    5  A    between atoms: N2_7  and  N3_9 
REMARK    6  A    between atoms: N3_9  and  C4_11 
ROOT
HETATM    1  N1  UNL     1      16.643  -3.846  28.283  1.00  0.00    -0.361 N 
ATOM      2  H1  UNL     1      16.710  -3.227  27.476  1.00  0.00     0.162 HD
ENDROOT
BRANCH   1   3
HETATM    3  C2  UNL     1      16.995  -5.236  28.110  1.00  0.00     0.083 C 
HETATM    4  C1  UNL     1      18.485  -5.384  27.943  1.00  0.00     0.032 C 
BRANCH   3   5
HETATM    5  C5  UNL     1      16.211  -5.898  27.014  1.00  0.00     0.008 C 
HETATM    6  C6  UNL     1      15.271  -5.015  26.280  1.00  0.00     0.007 C 
HETATM    7  C7  UNL     1      15.626  -5.064  24.811  1.00  0.00     0.000 C 
HETATM    8  C8  UNL     1      16.204  -6.458  24.685  1.00  0.00     0.000 C 
HETATM    9  C9  UNL     1      17.094  -6.495  25.939  1.00  0.00     0.007 C 
ENDBRANCH   3   5
ENDBRANCH   1   3
BRANCH   1  10
HETATM   10  C3  UNL     1      16.210  -3.299  29.512  1.00  0.00     0.186 C 
HETATM   11  S1  UNL     1      16.646  -3.989  30.942  1.00  0.00    -0.040 SA
BRANCH  10  12
HETATM   12  N2  UNL     1      15.390  -2.139  29.556  1.00  0.00    -0.274 N 
ATOM     13  H2  UNL     1      14.487  -2.188  30.030  1.00  0.00     0.189 HD
BRANCH  12  14
HETATM   14  N3  UNL     1      15.783  -0.938  28.970  1.00  0.00    -0.276 N 
ATOM     15  H3  UNL     1      16.106  -0.955  28.003  1.00  0.00     0.189 HD
BRANCH  14  16
HETATM   16  C4  UNL     1      15.756   0.308  29.649  1.00  0.00     0.199 C 
HETATM   17  N4  UNL     1      16.849   1.211  29.562  1.00  0.00    -0.068 NA
HETATM   18  S2  UNL     1      14.477   0.752  30.553  1.00  0.00    -0.043 SA
ENDBRANCH  14  16
ENDBRANCH  12  14
ENDBRANCH  10  12
ENDBRANCH   1  10
TORSDOF 6
ENDMDL
MODEL 5
REMARK VINA RESULT: -5.425856336      3.498      4.437
REMARK  6 active torsions:
REMARK  status: ('A' for Active; 'I' for Inactive)
REMARK    1  A    between atoms: C2_2  and  N1_3 
REMARK    2  A    between atoms: C2_2  and  C5_14 
REMARK    3  A    between atoms: N1_3  and  C3_5 
REMARK    4  A    between atoms: C3_5  and  N2_7 
REMARK    5  A    between atoms: N2_7  and  N3_9 
REMARK    6  A    between atoms: N3_9  and  C4_11 
ROOT
HETATM    1  N1  UNL     1      17.262  -6.596  27.695  1.00  0.00    -0.361 N 
ATOM      2  H1  UNL     1      16.872  -7.528  27.553  1.00  0.00     0.162 HD
ENDROOT
BRANCH   1   3
HETATM    3  C2  UNL     1      16.689  -5.495  26.957  1.00  0.00     0.083 C 
HETATM    4  C1  UNL     1      15.327  -5.150  27.502  1.00  0.00     0.032 C 
BRANCH   3   5
HETATM    5  C5  UNL     1      16.688  -5.731  25.475  1.00  0.00     0.008 C 
HETATM    6  C6  UNL     1      17.365  -6.973  25.027  1.00  0.00     0.007 C 
HETATM    7  C7  UNL     1      16.370  -7.796  24.239  1.00  0.00     0.000 C 
HETATM    8  C8  UNL     1      15.480  -6.718  23.658  1.00  0.00     0.000 C 
HETATM    9  C9  UNL     1      15.293  -5.826  24.897  1.00  0.00     0.007 C 
ENDBRANCH   3   5
ENDBRANCH   1   3
BRANCH   1  10
HETATM   10  C3  UNL     1      18.336  -6.452  28.602  1.00  0.00     0.186 C 
HETATM   11  S1  UNL     1      18.779  -4.966  29.156  1.00  0.00    -0.040 SA
BRANCH  10  12
HETATM   12  N2  UNL     1      19.067  -7.580  29.066  1.00  0.00    -0.274 N 
ATOM     13  H2  UNL     1      19.724  -8.040  28.435  1.00  0.00     0.189 HD
BRANCH  12  14
HETATM   14  N3  UNL     1      18.913  -8.074  30.359  1.00  0.00    -0.276 N 
ATOM     15  H3  UNL     1      18.050  -8.566  30.589  1.00  0.00     0.189 HD
BRANCH  14  16
HETATM   16  C4  UNL     1      19.895  -7.930  31.373  1.00  0.00     0.199 C 
HETATM   17  N4  UNL     1      19.939  -6.767  32.188  1.00  0.00    -0.068 NA
HETATM   18  S2  UNL     1      21.009  -9.087  31.644  1.00  0.00    -0.043 SA
ENDBRANCH  14  16
ENDBRANCH  12  14
ENDBRANCH  10  12
ENDBRANCH   1  10
TORSDOF 6
ENDMDL
