MODEL 1
REMARK VINA RESULT: -6.710131850      0.000      0.000
REMARK  3 active torsions:
REMARK  status: ('A' for Active; 'I' for Inactive)
REMARK    1  A    between atoms: C4_4  and  C5_5 
REMARK    2  A    between atoms: C5_5  and  N1_6 
REMARK       I    between atoms: N1_6  and  C6_8 
REMARK       I    between atoms: C6_8  and  N3_12 
REMARK    3  A    between atoms: N3_12  and  N4_14 
REMARK       I    between atoms: N4_14  and  C7_16 
REMARK       I    between atoms: C7_16  and  N5_18 
ROOT
HETATM    1  N1  UNL     1      14.173  -7.099  30.966  1.00  0.00    -0.225 N 
ATOM      2  H1  UNL     1      13.412  -7.637  30.551  1.00  0.00     0.177 HD
HETATM    3  C6  UNL     1      15.541  -7.547  30.915  1.00  0.00     0.686 C 
HETATM    4  N2  UNL     1      15.860  -8.704  31.371  1.00  0.00    -0.234 N 
ATOM      5  H21 UNL     1      16.830  -9.021  31.335  1.00  0.00     0.174 HD
ATOM      6  H22 UNL     1      15.119  -9.286  31.762  1.00  0.00     0.174 HD
HETATM    7  N3  UNL     1      16.574  -6.736  30.372  1.00  0.00    -0.129 N 
ATOM      8  H3  UNL     1      17.126  -6.140  30.989  1.00  0.00     0.205 HD
ENDROOT
BRANCH   7   9
HETATM    9  N4  UNL     1      16.838  -6.747  29.015  1.00  0.00    -0.237 N 
HETATM   10  C7  UNL     1      16.186  -5.848  28.142  1.00  0.00     0.337 C 
HETATM   11  O1  UNL     1      15.349  -5.019  28.626  1.00  0.00    -0.245 OA
HETATM   12  N5  UNL     1      16.422  -5.828  26.740  1.00  0.00    -0.333 N 
HETATM   13  C8  UNL     1      15.759  -4.874  25.886  1.00  0.00     0.127 C 
HETATM   14  C12 UNL     1      17.321  -6.757  26.110  1.00  0.00     0.127 C 
HETATM   15  C9  UNL     1      14.949  -5.567  24.816  1.00  0.00     0.020 C 
HETATM   16  C10 UNL     1      15.621  -6.758  24.243  1.00  0.00     0.003 C 
HETATM   17  C11 UNL     1      17.040  -6.980  24.651  1.00  0.00     0.020 C 
ATOM     18  H4  UNL     1      17.513  -7.414  28.638  1.00  0.00     0.192 HD
ENDBRANCH   7   9
BRANCH   1  19
HETATM   19  C5  UNL     1      13.939  -5.833  31.644  1.00  0.00     0.143 C 
BRANCH  19  20
HETATM   20  C4  UNL     1      12.543  -5.338  31.462  1.00  0.00     0.008 A 
HETATM   21  C2  UNL     1      11.376  -6.138  31.916  1.00  0.00    -0.013 A 
HETATM   22  C1  UNL     1      10.131  -6.052  31.049  1.00  0.00     0.010 C 
HETATM   23  C3  UNL     1      11.803  -4.994  32.743  1.00  0.00     0.011 A 
ENDBRANCH  19  20
ENDBRANCH   1  19
TORSDOF 3
ENDMDL
MODEL 2
REMARK VINA RESULT: -6.691752810      2.032      2.624
REMARK  3 active torsions:
REMARK  status: ('A' for Active; 'I' for Inactive)
REMARK    1  A    between atoms: C4_4  and  C5_5 
REMARK    2  A    between atoms: C5_5  and  N1_6 
REMARK       I    between atoms: N1_6  and  C6_8 
REMARK       I    between atoms: C6_8  and  N3_12 
REMARK    3  A    between atoms: N3_12  and  N4_14 
REMARK       I    between atoms: N4_14  and  C7_16 
REMARK       I    between atoms: C7_16  and  N5_18 
ROOT
HETATM    1  N1  UNL     1      14.461  -4.962  31.177  1.00  0.00    -0.225 N 
ATOM      2  H1  UNL     1      15.214  -5.303  31.776  1.00  0.00     0.177 HD
HETATM    3  C6  UNL     1      14.687  -3.973  30.154  1.00  0.00     0.686 C 
HETATM    4  N2  UNL     1      15.215  -2.842  30.454  1.00  0.00    -0.234 N 
ATOM      5  H21 UNL     1      15.375  -2.141  29.729  1.00  0.00     0.174 HD
ATOM      6  H22 UNL     1      15.468  -2.674  31.428  1.00  0.00     0.174 HD
HETATM    7  N3  UNL     1      14.335  -4.206  28.798  1.00  0.00    -0.129 N 
ATOM      8  H3  UNL     1      13.427  -3.896  28.450  1.00  0.00     0.205 HD
ENDROOT
BRANCH   7   9
HETATM    9  N4  UNL     1      15.211  -4.850  27.943  1.00  0.00    -0.237 N 
HETATM   10  C7  UNL     1      15.000  -4.841  26.547  1.00  0.00     0.337 C 
HETATM   11  O1  UNL     1      13.987  -4.226  26.083  1.00  0.00    -0.245 OA
HETATM   12  N5  UNL     1      15.872  -5.494  25.632  1.00  0.00    -0.333 N 
HETATM   13  C8  UNL     1      15.638  -5.437  24.211  1.00  0.00     0.127 C 
HETATM   14  C12 UNL     1      17.015  -6.245  26.079  1.00  0.00     0.127 C 
HETATM   15  C9  UNL     1      15.475  -6.820  23.626  1.00  0.00     0.020 C 
HETATM   16  C10 UNL     1      16.406  -7.820  24.201  1.00  0.00     0.003 C 
HETATM   17  C11 UNL     1      17.472  -7.292  25.104  1.00  0.00     0.020 C 
ATOM     18  H4  UNL     1      16.022  -5.338  28.327  1.00  0.00     0.192 HD
ENDBRANCH   7   9
BRANCH   1  19
HETATM   19  C5  UNL     1      13.096  -5.446  31.308  1.00  0.00     0.143 C 
BRANCH  19  20
HETATM   20  C4  UNL     1      12.633  -5.474  32.726  1.00  0.00     0.008 A 
HETATM   21  C2  UNL     1      11.298  -4.948  33.112  1.00  0.00    -0.013 A 
HETATM   22  C1  UNL     1      11.218  -4.262  34.466  1.00  0.00     0.010 C 
HETATM   23  C3  UNL     1      11.472  -6.410  33.014  1.00  0.00     0.011 A 
ENDBRANCH  19  20
ENDBRANCH   1  19
TORSDOF 3
ENDMDL
MODEL 3
REMARK VINA RESULT: -6.580337393      1.976      2.439
REMARK  3 active torsions:
REMARK  status: ('A' for Active; 'I' for Inactive)
REMARK    1  A    between atoms: C4_4  and  C5_5 
REMARK    2  A    between atoms: C5_5  and  N1_6 
REMARK       I    between atoms: N1_6  and  C6_8 
REMARK       I    between atoms: C6_8  and  N3_12 
REMARK    3  A    between atoms: N3_12  and  N4_14 
REMARK       I    between atoms: N4_14  and  C7_16 
REMARK       I    between atoms: C7_16  and  N5_18 
ROOT
HETATM    1  N1  UNL     1      15.560  -4.278  31.321  1.00  0.00    -0.225 N 
ATOM      2  H1  UNL     1      16.506  -4.072  31.643  1.00  0.00     0.177 HD
HETATM    3  C6  UNL     1      15.048  -3.759  30.078  1.00  0.00     0.686 C 
HETATM    4  N2  UNL     1      15.051  -2.495  29.855  1.00  0.00    -0.234 N 
ATOM      5  H21 UNL     1      14.688  -2.127  28.975  1.00  0.00     0.174 HD
ATOM      6  H22 UNL     1      15.428  -1.881  30.578  1.00  0.00     0.174 HD
HETATM    7  N3  UNL     1      14.522  -4.613  29.072  1.00  0.00    -0.129 N 
ATOM      8  H3  UNL     1      13.520  -4.799  29.039  1.00  0.00     0.205 HD
ENDROOT
BRANCH   7   9
HETATM    9  N4  UNL     1      15.357  -5.194  28.134  1.00  0.00    -0.237 N 
HETATM   10  C7  UNL     1      15.119  -5.031  26.752  1.00  0.00     0.337 C 
HETATM   11  O1  UNL     1      14.120  -4.335  26.378  1.00  0.00    -0.245 OA
HETATM   12  N5  UNL     1      15.947  -5.614  25.753  1.00  0.00    -0.333 N 
HETATM   13  C8  UNL     1      15.687  -5.400  24.352  1.00  0.00     0.127 C 
HETATM   14  C12 UNL     1      17.070  -6.446  26.093  1.00  0.00     0.127 C 
HETATM   15  C9  UNL     1      15.461  -6.707  23.630  1.00  0.00     0.020 C 
HETATM   16  C10 UNL     1      16.366  -7.794  24.076  1.00  0.00     0.003 C 
HETATM   17  C11 UNL     1      17.469  -7.401  25.003  1.00  0.00     0.020 C 
ATOM     18  H4  UNL     1      16.156  -5.747  28.446  1.00  0.00     0.192 HD
ENDBRANCH   7   9
BRANCH   1  19
HETATM   19  C5  UNL     1      14.650  -5.112  32.090  1.00  0.00     0.143 C 
BRANCH  19  20
HETATM   20  C4  UNL     1      13.217  -4.790  31.821  1.00  0.00     0.008 A 
HETATM   21  C2  UNL     1      12.126  -5.685  32.286  1.00  0.00    -0.013 A 
HETATM   22  C1  UNL     1      10.920  -5.796  31.368  1.00  0.00     0.010 C 
HETATM   23  C3  UNL     1      12.387  -4.448  33.046  1.00  0.00     0.011 A 
ENDBRANCH  19  20
ENDBRANCH   1  19
TORSDOF 3
ENDMDL
MODEL 4
REMARK VINA RESULT: -6.490617494      2.172      3.006
REMARK  3 active torsions:
REMARK  status: ('A' for Active; 'I' for Inactive)
REMARK    1  A    between atoms: C4_4  and  C5_5 
REMARK    2  A    between atoms: C5_5  and  N1_6 
REMARK       I    between atoms: N1_6  and  C6_8 
REMARK       I    between atoms: C6_8  and  N3_12 
REMARK    3  A    between atoms: N3_12  and  N4_14 
REMARK       I    between atoms: N4_14  and  C7_16 
REMARK       I    between atoms: C7_16  and  N5_18 
ROOT
HETATM    1  N1  UNL     1      14.877  -4.498  31.257  1.00  0.00    -0.225 N 
ATOM      2  H1  UNL     1      15.735  -4.617  31.797  1.00  0.00     0.177 HD
HETATM    3  C6  UNL     1      14.833  -3.693  30.063  1.00  0.00     0.686 C 
HETATM    4  N2  UNL     1      15.205  -2.464  30.097  1.00  0.00    -0.234 N 
ATOM      5  H21 UNL     1      15.173  -1.894  29.251  1.00  0.00     0.174 HD
ATOM      6  H22 UNL     1      15.531  -2.087  30.987  1.00  0.00     0.174 HD
HETATM    7  N3  UNL     1      14.378  -4.218  28.823  1.00  0.00    -0.129 N 
ATOM      8  H3  UNL     1      13.401  -4.103  28.554  1.00  0.00     0.205 HD
ENDROOT
BRANCH   7   9
HETATM    9  N4  UNL     1      15.249  -4.882  27.978  1.00  0.00    -0.237 N 
HETATM   10  C7  UNL     1      15.060  -4.856  26.578  1.00  0.00     0.337 C 
HETATM   11  O1  UNL     1      14.074  -4.206  26.103  1.00  0.00    -0.245 OA
HETATM   12  N5  UNL     1      15.927  -5.529  25.672  1.00  0.00    -0.333 N 
HETATM   13  C8  UNL     1      15.718  -5.454  24.248  1.00  0.00     0.127 C 
HETATM   14  C12 UNL     1      17.039  -6.317  26.132  1.00  0.00     0.127 C 
HETATM   15  C9  UNL     1      15.522  -6.827  23.650  1.00  0.00     0.020 C 
HETATM   16  C10 UNL     1      16.413  -7.859  24.233  1.00  0.00     0.003 C 
HETATM   17  C11 UNL     1      17.480  -7.371  25.156  1.00  0.00     0.020 C 
ATOM     18  H4  UNL     1      16.037  -5.397  28.371  1.00  0.00     0.192 HD
ENDBRANCH   7   9
BRANCH   1  19
HETATM   19  C5  UNL     1      13.628  -5.132  31.647  1.00  0.00     0.143 C 
BRANCH  19  20
HETATM   20  C4  UNL     1      13.622  -6.599  31.372  1.00  0.00     0.008 A 
HETATM   21  C2  UNL     1      14.449  -7.537  32.173  1.00  0.00    -0.013 A 
HETATM   22  C1  UNL     1      15.035  -8.719  31.419  1.00  0.00     0.010 C 
HETATM   23  C3  UNL     1      13.004  -7.462  32.458  1.00  0.00     0.011 A 
ENDBRANCH  19  20
ENDBRANCH   1  19
TORSDOF 3
ENDMDL
MODEL 5
REMARK VINA RESULT: -6.391187528      2.248      3.013
REMARK  3 active torsions:
REMARK  status: ('A' for Active; 'I' for Inactive)
REMARK    1  A    between atoms: C4_4  and  C5_5 
REMARK    2  A    between atoms: C5_5  and  N1_6 
REMARK       I    between atoms: N1_6  and  C6_8 
REMARK       I    between atoms: C6_8  and  N3_12 
REMARK    3  A    between atoms: N3_12  and  N4_14 
REMARK       I    between atoms: N4_14  and  C7_16 
REMARK       I    between atoms: C7_16  and  N5_18 
ROOT
HETATM    1  N1  UNL     1      16.299  -6.838  31.751  1.00  0.00    -0.225 N 
ATOM      2  H1  UNL     1      17.172  -7.304  31.999  1.00  0.00     0.177 HD
HETATM    3  C6  UNL     1      16.277  -5.619  30.983  1.00  0.00     0.686 C 
HETATM    4  N2  UNL     1      16.932  -4.590  31.384  1.00  0.00    -0.234 N 
ATOM      5  H21 UNL     1      16.915  -3.727  30.840  1.00  0.00     0.174 HD
ATOM      6  H22 UNL     1      17.463  -4.668  32.251  1.00  0.00     0.174 HD
HETATM    7  N3  UNL     1      15.536  -5.509  29.775  1.00  0.00    -0.129 N 
ATOM      8  H3  UNL     1      14.586  -5.139  29.797  1.00  0.00     0.205 HD
ENDROOT
BRANCH   7   9
HETATM    9  N4  UNL     1      16.092  -5.901  28.571  1.00  0.00    -0.237 N 
HETATM   10  C7  UNL     1      15.635  -5.354  27.351  1.00  0.00     0.337 C 
HETATM   11  O1  UNL     1      14.702  -4.489  27.376  1.00  0.00    -0.245 OA
HETATM   12  N5  UNL     1      16.173  -5.730  26.089  1.00  0.00    -0.333 N 
HETATM   13  C8  UNL     1      15.701  -5.127  24.868  1.00  0.00     0.127 C 
HETATM   14  C12 UNL     1      17.201  -6.731  25.972  1.00  0.00     0.127 C 
HETATM   15  C9  UNL     1      15.155  -6.168  23.919  1.00  0.00     0.020 C 
HETATM   16  C10 UNL     1      15.951  -7.418  23.888  1.00  0.00     0.003 C 
HETATM   17  C11 UNL     1      17.249  -7.396  24.626  1.00  0.00     0.020 C 
ATOM     18  H4  UNL     1      16.841  -6.593  28.563  1.00  0.00     0.192 HD
ENDBRANCH   7   9
BRANCH   1  19
HETATM   19  C5  UNL     1      15.004  -7.365  32.152  1.00  0.00     0.143 C 
BRANCH  19  20
HETATM   20  C4  UNL     1      14.706  -8.685  31.523  1.00  0.00     0.008 A 
HETATM   21  C2  UNL     1      14.947  -9.958  32.250  1.00  0.00    -0.013 A 
HETATM   22  C1  UNL     1      15.417 -11.130  31.405  1.00  0.00     0.010 C 
HETATM   23  C3  UNL     1      13.561  -9.461  32.151  1.00  0.00     0.011 A 
ENDBRANCH  19  20
ENDBRANCH   1  19
TORSDOF 3
ENDMDL
