MODEL 1
REMARK VINA RESULT: -6.964853101      0.000      0.000
REMARK  2 active torsions:
REMARK  status: ('A' for Active; 'I' for Inactive)
REMARK    1  A    between atoms: N1_2  and  C2_5 
REMARK    2  A    between atoms: C4_7  and  N2_8 
REMARK       I    between atoms: N2_8  and  C5_10 
REMARK       I    between atoms: C5_10  and  N3_12 
ROOT
HETATM    1  C2  UNL     1      19.048  -7.038  31.310  1.00  0.00     0.192 C 
HETATM    2  C3  UNL     1      19.025  -7.524  29.905  1.00  0.00     0.064 C 
HETATM    3  C4  UNL     1      18.212  -6.462  29.103  1.00  0.00     0.037 C 
HETATM    4  C7  UNL     1      17.000  -6.085  29.908  1.00  0.00     0.036 C 
HETATM    5  C8  UNL     1      17.366  -5.194  31.076  1.00  0.00    -0.005 C 
HETATM    6  C9  UNL     1      17.989  -3.884  30.606  1.00  0.00     0.010 C 
HETATM    7  C10 UNL     1      19.280  -4.699  30.412  1.00  0.00    -0.005 C 
HETATM    8  C11 UNL     1      19.163  -5.292  29.025  1.00  0.00     0.036 C 
HETATM    9  C12 UNL     1      18.778  -5.592  31.494  1.00  0.00     0.025 C 
ENDROOT
BRANCH   3  10
HETATM   10  N2  UNL     1      17.853  -7.025  27.837  1.00  0.00    -0.334 N 
HETATM   11  C5  UNL     1      17.128  -6.284  26.880  1.00  0.00     0.322 C 
HETATM   12  O1  UNL     1      16.742  -5.101  27.029  1.00  0.00    -0.247 OA
HETATM   13  N3  UNL     1      16.802  -6.921  25.639  1.00  0.00    -0.285 N 
HETATM   14  C6  UNL     1      16.193  -6.348  24.676  1.00  0.00     0.204 C 
ATOM     15  H3  UNL     1      17.074  -7.897  25.518  1.00  0.00     0.172 HD
HETATM   16  N4  UNL     1      15.948  -7.131  23.509  1.00  0.00    -0.066 NA
HETATM   17  N5  UNL     1      15.738  -5.005  24.661  1.00  0.00    -0.066 NA
ATOM     18  H2  UNL     1      18.127  -7.983  27.622  1.00  0.00     0.165 HD
ENDBRANCH   3  10
BRANCH   1  19
HETATM   19  N1  UNL     1      20.338  -7.317  31.962  1.00  0.00    -0.074 N 
HETATM   20  C1  UNL     1      20.775  -8.662  31.752  1.00  0.00     0.267 C 
ATOM     21  H12 UNL     1      20.304  -7.092  32.956  1.00  0.00     0.277 HD
ATOM     22  H11 UNL     1      21.051  -6.649  31.668  1.00  0.00     0.277 HD
ENDBRANCH   1  19
TORSDOF 2
ENDMDL
MODEL 2
REMARK VINA RESULT: -6.475234405      2.067      3.444
REMARK  2 active torsions:
REMARK  status: ('A' for Active; 'I' for Inactive)
REMARK    1  A    between atoms: N1_2  and  C2_5 
REMARK    2  A    between atoms: C4_7  and  N2_8 
REMARK       I    between atoms: N2_8  and  C5_10 
REMARK       I    between atoms: C5_10  and  N3_12 
ROOT
HETATM    1  C2  UNL     1      17.213  -3.449  30.170  1.00  0.00     0.192 C 
HETATM    2  C3  UNL     1      16.278  -3.616  29.027  1.00  0.00     0.064 C 
HETATM    3  C4  UNL     1      16.676  -4.963  28.348  1.00  0.00     0.037 C 
HETATM    4  C7  UNL     1      18.175  -5.023  28.256  1.00  0.00     0.036 C 
HETATM    5  C8  UNL     1      18.803  -5.302  29.605  1.00  0.00    -0.005 C 
HETATM    6  C9  UNL     1      18.357  -6.651  30.159  1.00  0.00     0.010 C 
HETATM    7  C10 UNL     1      17.057  -5.929  30.558  1.00  0.00    -0.005 C 
HETATM    8  C11 UNL     1      16.179  -5.999  29.328  1.00  0.00     0.036 C 
HETATM    9  C12 UNL     1      17.874  -4.687  30.646  1.00  0.00     0.025 C 
ENDROOT
BRANCH   3  10
HETATM   10  N2  UNL     1      16.063  -5.021  27.056  1.00  0.00    -0.334 N 
HETATM   11  C5  UNL     1      16.331  -6.076  26.159  1.00  0.00     0.322 C 
HETATM   12  O1  UNL     1      17.100  -7.039  26.391  1.00  0.00    -0.247 OA
HETATM   13  N3  UNL     1      15.682  -6.058  24.882  1.00  0.00    -0.285 N 
HETATM   14  C6  UNL     1      15.803  -6.973  24.003  1.00  0.00     0.204 C 
ATOM     15  H3  UNL     1      15.084  -5.261  24.663  1.00  0.00     0.172 HD
HETATM   16  N4  UNL     1      15.085  -6.797  22.783  1.00  0.00    -0.066 NA
HETATM   17  N5  UNL     1      16.587  -8.148  24.127  1.00  0.00    -0.066 NA
ATOM     18  H2  UNL     1      15.417  -4.282  26.778  1.00  0.00     0.165 HD
ENDBRANCH   3  10
BRANCH   1  19
HETATM   19  N1  UNL     1      16.546  -2.846  31.336  1.00  0.00    -0.074 N 
HETATM   20  C1  UNL     1      15.134  -2.718  31.150  1.00  0.00     0.267 C 
ATOM     21  H12 UNL     1      16.968  -1.950  31.578  1.00  0.00     0.277 HD
ATOM     22  H11 UNL     1      16.759  -3.363  32.189  1.00  0.00     0.277 HD
ENDBRANCH   1  19
TORSDOF 2
ENDMDL
MODEL 3
REMARK VINA RESULT: -6.280225426      1.931      5.824
REMARK  2 active torsions:
REMARK  status: ('A' for Active; 'I' for Inactive)
REMARK    1  A    between atoms: N1_2  and  C2_5 
REMARK    2  A    between atoms: C4_7  and  N2_8 
REMARK       I    between atoms: N2_8  and  C5_10 
REMARK       I    between atoms: C5_10  and  N3_12 
ROOT
HETATM    1  C2  UNL     1      16.202  -5.076  26.411  1.00  0.00     0.192 C 
HETATM    2  C3  UNL     1      16.889  -6.330  26.818  1.00  0.00     0.064 C 
HETATM    3  C4  UNL     1      17.280  -6.132  28.315  1.00  0.00     0.037 C 
HETATM    4  C7  UNL     1      17.840  -4.747  28.479  1.00  0.00     0.036 C 
HETATM    5  C8  UNL     1      16.748  -3.698  28.433  1.00  0.00    -0.005 C 
HETATM    6  C9  UNL     1      15.744  -3.889  29.564  1.00  0.00     0.010 C 
HETATM    7  C10 UNL     1      15.146  -5.008  28.693  1.00  0.00    -0.005 C 
HETATM    8  C11 UNL     1      15.956  -6.241  29.032  1.00  0.00     0.036 C 
HETATM    9  C12 UNL     1      15.661  -4.252  27.517  1.00  0.00     0.025 C 
ENDROOT
BRANCH   3  10
HETATM   10  N2  UNL     1      18.237  -7.135  28.672  1.00  0.00    -0.334 N 
HETATM   11  C5  UNL     1      18.850  -7.150  29.943  1.00  0.00     0.322 C 
HETATM   12  O1  UNL     1      18.627  -6.322  30.858  1.00  0.00    -0.247 OA
HETATM   13  N3  UNL     1      19.801  -8.184  30.222  1.00  0.00    -0.285 N 
HETATM   14  C6  UNL     1      20.389  -8.336  31.343  1.00  0.00     0.204 C 
ATOM     15  H3  UNL     1      20.023  -8.841  29.474  1.00  0.00     0.172 HD
HETATM   16  N4  UNL     1      21.309  -9.421  31.449  1.00  0.00    -0.066 NA
HETATM   17  N5  UNL     1      20.211  -7.525  32.492  1.00  0.00    -0.066 NA
ATOM     18  H2  UNL     1      18.480  -7.855  27.993  1.00  0.00     0.165 HD
ENDBRANCH   3  10
BRANCH   1  19
HETATM   19  N1  UNL     1      15.085  -5.342  25.491  1.00  0.00    -0.074 N 
HETATM   20  C1  UNL     1      15.485  -6.113  24.355  1.00  0.00     0.267 C 
ATOM     21  H12 UNL     1      14.630  -4.474  25.205  1.00  0.00     0.277 HD
ATOM     22  H11 UNL     1      14.304  -5.782  25.977  1.00  0.00     0.277 HD
ENDBRANCH   1  19
TORSDOF 2
ENDMDL
MODEL 4
REMARK VINA RESULT: -6.193358116      4.360      6.194
REMARK  2 active torsions:
REMARK  status: ('A' for Active; 'I' for Inactive)
REMARK    1  A    between atoms: N1_2  and  C2_5 
REMARK    2  A    between atoms: C4_7  and  N2_8 
REMARK       I    between atoms: N2_8  and  C5_10 
REMARK       I    between atoms: C5_10  and  N3_12 
ROOT
HETATM    1  C2  UNL     1      16.214  -5.577  27.289  1.00  0.00     0.192 C 
HETATM    2  C3  UNL     1      16.228  -4.091  27.344  1.00  0.00     0.064 C 
HETATM    3  C4  UNL     1      16.033  -3.722  28.847  1.00  0.00     0.037 C 
HETATM    4  C7  UNL     1      14.953  -4.599  29.415  1.00  0.00     0.036 C 
HETATM    5  C8  UNL     1      15.445  -6.015  29.634  1.00  0.00    -0.005 C 
HETATM    6  C9  UNL     1      16.596  -6.057  30.633  1.00  0.00     0.010 C 
HETATM    7  C10 UNL     1      17.480  -5.590  29.462  1.00  0.00    -0.005 C 
HETATM    8  C11 UNL     1      17.364  -4.082  29.462  1.00  0.00     0.036 C 
HETATM    9  C12 UNL     1      16.503  -6.271  28.566  1.00  0.00     0.025 C 
ENDROOT
BRANCH   3  10
HETATM   10  N2  UNL     1      15.690  -2.336  28.935  1.00  0.00    -0.334 N 
HETATM   11  C5  UNL     1      15.393  -1.726  30.172  1.00  0.00     0.322 C 
HETATM   12  O1  UNL     1      15.401  -2.311  31.282  1.00  0.00    -0.247 OA
HETATM   13  N3  UNL     1      15.053  -0.335  30.175  1.00  0.00    -0.285 N 
HETATM   14  C6  UNL     1      14.809   0.342  31.228  1.00  0.00     0.204 C 
ATOM     15  H3  UNL     1      15.002   0.145  29.277  1.00  0.00     0.172 HD
HETATM   16  N4  UNL     1      14.486   1.720  31.050  1.00  0.00    -0.066 NA
HETATM   17  N5  UNL     1      14.829  -0.150  32.557  1.00  0.00    -0.066 NA
ATOM     18  H2  UNL     1      15.661  -1.775  28.084  1.00  0.00     0.165 HD
ENDBRANCH   3  10
BRANCH   1  19
HETATM   19  N1  UNL     1      17.170  -6.094  26.296  1.00  0.00    -0.074 N 
HETATM   20  C1  UNL     1      16.535  -6.472  25.073  1.00  0.00     0.267 C 
ATOM     21  H12 UNL     1      17.719  -6.863  26.680  1.00  0.00     0.277 HD
ATOM     22  H11 UNL     1      17.923  -5.426  26.128  1.00  0.00     0.277 HD
ENDBRANCH   1  19
TORSDOF 2
ENDMDL
MODEL 5
REMARK VINA RESULT: -6.139323031      2.427      3.680
REMARK  2 active torsions:
REMARK  status: ('A' for Active; 'I' for Inactive)
REMARK    1  A    between atoms: N1_2  and  C2_5 
REMARK    2  A    between atoms: C4_7  and  N2_8 
REMARK       I    between atoms: N2_8  and  C5_10 
REMARK       I    between atoms: C5_10  and  N3_12 
ROOT
HETATM    1  C2  UNL     1      15.244  -3.684  30.949  1.00  0.00     0.192 C 
HETATM    2  C3  UNL     1      14.654  -4.241  29.704  1.00  0.00     0.064 C 
HETATM    3  C4  UNL     1      15.849  -4.837  28.899  1.00  0.00     0.037 C 
HETATM    4  C7  UNL     1      16.991  -3.861  28.953  1.00  0.00     0.036 C 
HETATM    5  C8  UNL     1      17.661  -3.867  30.311  1.00  0.00    -0.005 C 
HETATM    6  C9  UNL     1      18.253  -5.235  30.635  1.00  0.00     0.010 C 
HETATM    7  C10 UNL     1      16.814  -5.649  30.989  1.00  0.00    -0.005 C 
HETATM    8  C11 UNL     1      16.198  -6.082  29.677  1.00  0.00     0.036 C 
HETATM    9  C12 UNL     1      16.575  -4.217  31.324  1.00  0.00     0.025 C 
ENDROOT
BRANCH   3  10
HETATM   10  N2  UNL     1      15.419  -5.074  27.554  1.00  0.00    -0.334 N 
HETATM   11  C5  UNL     1      16.142  -5.919  26.687  1.00  0.00     0.322 C 
HETATM   12  O1  UNL     1      17.193  -6.531  26.991  1.00  0.00    -0.247 OA
HETATM   13  N3  UNL     1      15.650  -6.100  25.354  1.00  0.00    -0.285 N 
HETATM   14  C6  UNL     1      16.183  -6.871  24.490  1.00  0.00     0.204 C 
ATOM     15  H3  UNL     1      14.818  -5.577  25.078  1.00  0.00     0.172 HD
HETATM   16  N4  UNL     1      15.561  -6.933  23.207  1.00  0.00    -0.066 NA
HETATM   17  N5  UNL     1      17.337  -7.671  24.688  1.00  0.00    -0.066 NA
ATOM     18  H2  UNL     1      14.570  -4.621  27.216  1.00  0.00     0.165 HD
ENDBRANCH   3  10
BRANCH   1  19
HETATM   19  N1  UNL     1      14.361  -3.888  32.110  1.00  0.00    -0.074 N 
HETATM   20  C1  UNL     1      13.233  -4.708  31.798  1.00  0.00     0.267 C 
ATOM     21  H12 UNL     1      14.069  -2.997  32.510  1.00  0.00     0.277 HD
ATOM     22  H11 UNL     1      14.879  -4.262  32.904  1.00  0.00     0.277 HD
ENDBRANCH   1  19
TORSDOF 2
ENDMDL
