MODEL 1
REMARK VINA RESULT: -6.912974260      0.000      0.000
REMARK  3 active torsions:
REMARK  status: ('A' for Active; 'I' for Inactive)
REMARK    1  A    between atoms: C2_2  and  N1_3 
REMARK       I    between atoms: N1_3  and  C3_5 
REMARK       I    between atoms: C3_5  and  N2_7 
REMARK       I    between atoms: C4_9  and  N3_10 
REMARK       I    between atoms: C4_9  and  N5_14 
REMARK    2  A    between atoms: N5_14  and  C6_16 
REMARK    3  A    between atoms: C11_21  and  N6_22 
ROOT
HETATM    1  N1  UNL     1      14.366  -6.232  31.526  1.00  0.00    -0.343 N 
ATOM      2  H1  UNL     1      14.898  -7.098  31.445  1.00  0.00     0.164 HD
HETATM    3  C3  UNL     1      14.557  -5.241  30.537  1.00  0.00     0.334 C 
HETATM    4  O1  UNL     1      13.899  -4.175  30.643  1.00  0.00    -0.247 OA
HETATM    5  N2  UNL     1      15.440  -5.378  29.444  1.00  0.00    -0.141 N 
ATOM      6  H2  UNL     1      15.409  -6.255  28.924  1.00  0.00     0.189 HD
HETATM    7  C4  UNL     1      16.271  -4.498  29.055  1.00  0.00     0.691 C 
HETATM    8  N3  UNL     1      16.363  -3.269  29.729  1.00  0.00    -0.126 N 
ATOM      9  H3  UNL     1      16.654  -3.300  30.706  1.00  0.00     0.197 HD
HETATM   10  C5  UNL     1      16.099  -2.025  29.199  1.00  0.00     0.196 C 
HETATM   11  N4  UNL     1      15.893  -0.979  28.763  1.00  0.00    -0.171 NA
HETATM   12  N5  UNL     1      17.105  -4.740  27.951  1.00  0.00    -0.219 N 
ATOM     13  H5  UNL     1      18.109  -4.640  28.102  1.00  0.00     0.178 HD
ENDROOT
BRANCH  12  14
HETATM   14  C6  UNL     1      16.686  -5.112  26.643  1.00  0.00     0.129 C 
HETATM   15  C7  UNL     1      16.762  -6.639  26.537  1.00  0.00     0.027 C 
HETATM   16  C8  UNL     1      16.854  -7.025  25.056  1.00  0.00     0.002 C 
HETATM   17  C9  UNL     1      16.043  -6.008  24.290  1.00  0.00     0.002 C 
HETATM   18  C10 UNL     1      14.843  -5.593  25.129  1.00  0.00     0.035 C 
HETATM   19  C11 UNL     1      15.290  -4.696  26.290  1.00  0.00     0.206 C 
BRANCH  19  20
HETATM   20  N6  UNL     1      15.210  -3.335  25.805  1.00  0.00    -0.073 N 
ATOM     21  H63 UNL     1      15.194  -2.673  26.580  1.00  0.00     0.274 HD
ATOM     22  H62 UNL     1      16.085  -3.054  25.363  1.00  0.00     0.274 HD
ATOM     23  H61 UNL     1      14.420  -3.180  25.177  1.00  0.00     0.274 HD
ENDBRANCH  19  20
ENDBRANCH  12  14
BRANCH   1  24
HETATM   24  C2  UNL     1      13.470  -6.095  32.637  1.00  0.00     0.120 C 
HETATM   25  C1  UNL     1      12.167  -6.788  32.314  1.00  0.00     0.026 C 
ENDBRANCH   1  24
TORSDOF 3
ENDMDL
MODEL 2
REMARK VINA RESULT: -6.728646361      1.635      1.636
REMARK  3 active torsions:
REMARK  status: ('A' for Active; 'I' for Inactive)
REMARK    1  A    between atoms: C2_2  and  N1_3 
REMARK       I    between atoms: N1_3  and  C3_5 
REMARK       I    between atoms: C3_5  and  N2_7 
REMARK       I    between atoms: C4_9  and  N3_10 
REMARK       I    between atoms: C4_9  and  N5_14 
REMARK    2  A    between atoms: N5_14  and  C6_16 
REMARK    3  A    between atoms: C11_21  and  N6_22 
ROOT
HETATM    1  N1  UNL     1      15.880  -8.187  31.241  1.00  0.00    -0.343 N 
ATOM      2  H1  UNL     1      16.661  -8.741  30.890  1.00  0.00     0.164 HD
HETATM    3  C3  UNL     1      15.529  -7.014  30.534  1.00  0.00     0.334 C 
HETATM    4  O1  UNL     1      14.566  -6.334  30.973  1.00  0.00    -0.247 OA
HETATM    5  N2  UNL     1      16.194  -6.564  29.374  1.00  0.00    -0.141 N 
ATOM      6  H2  UNL     1      16.384  -7.254  28.646  1.00  0.00     0.189 HD
HETATM    7  C4  UNL     1      16.577  -5.370  29.161  1.00  0.00     0.691 C 
HETATM    8  N3  UNL     1      16.346  -4.375  30.124  1.00  0.00    -0.126 N 
ATOM      9  H3  UNL     1      16.798  -4.497  31.030  1.00  0.00     0.197 HD
HETATM   10  C5  UNL     1      15.569  -3.248  29.964  1.00  0.00     0.196 C 
HETATM   11  N4  UNL     1      14.933  -2.297  29.837  1.00  0.00    -0.171 NA
HETATM   12  N5  UNL     1      17.233  -5.032  27.965  1.00  0.00    -0.219 N 
ATOM     13  H5  UNL     1      18.146  -4.586  28.052  1.00  0.00     0.178 HD
ENDROOT
BRANCH  12  14
HETATM   14  C6  UNL     1      16.747  -5.252  26.646  1.00  0.00     0.129 C 
HETATM   15  C7  UNL     1      16.748  -6.762  26.385  1.00  0.00     0.027 C 
HETATM   16  C8  UNL     1      16.766  -6.999  24.870  1.00  0.00     0.002 C 
HETATM   17  C9  UNL     1      15.974  -5.876  24.245  1.00  0.00     0.002 C 
HETATM   18  C10 UNL     1      14.827  -5.498  25.171  1.00  0.00     0.035 C 
HETATM   19  C11 UNL     1      15.360  -4.744  26.396  1.00  0.00     0.206 C 
BRANCH  19  20
HETATM   20  N6  UNL     1      15.323  -3.338  26.052  1.00  0.00    -0.073 N 
ATOM     21  H63 UNL     1      16.179  -2.869  26.349  1.00  0.00     0.274 HD
ATOM     22  H62 UNL     1      15.402  -3.208  25.044  1.00  0.00     0.274 HD
ATOM     23  H61 UNL     1      14.499  -2.858  26.417  1.00  0.00     0.274 HD
ENDBRANCH  19  20
ENDBRANCH  12  14
BRANCH   1  24
HETATM   24  C2  UNL     1      15.206  -8.645  32.421  1.00  0.00     0.120 C 
HETATM   25  C1  UNL     1      14.166  -9.671  32.032  1.00  0.00     0.026 C 
ENDBRANCH   1  24
TORSDOF 3
ENDMDL
MODEL 3
REMARK VINA RESULT: -6.255804451      1.991      4.383
REMARK  3 active torsions:
REMARK  status: ('A' for Active; 'I' for Inactive)
REMARK    1  A    between atoms: C2_2  and  N1_3 
REMARK       I    between atoms: N1_3  and  C3_5 
REMARK       I    between atoms: C3_5  and  N2_7 
REMARK       I    between atoms: C4_9  and  N3_10 
REMARK       I    between atoms: C4_9  and  N5_14 
REMARK    2  A    between atoms: N5_14  and  C6_16 
REMARK    3  A    between atoms: C11_21  and  N6_22 
ROOT
HETATM    1  N1  UNL     1      15.772  -0.159  29.605  1.00  0.00    -0.343 N 
ATOM      2  H1  UNL     1      15.277   0.051  28.738  1.00  0.00     0.164 HD
HETATM    3  C3  UNL     1      15.998  -1.517  29.927  1.00  0.00     0.334 C 
HETATM    4  O1  UNL     1      16.608  -1.768  30.998  1.00  0.00    -0.247 OA
HETATM    5  N2  UNL     1      15.582  -2.598  29.122  1.00  0.00    -0.141 N 
ATOM      6  H2  UNL     1      15.773  -2.537  28.121  1.00  0.00     0.189 HD
HETATM    7  C4  UNL     1      14.987  -3.641  29.541  1.00  0.00     0.691 C 
HETATM    8  N3  UNL     1      14.695  -3.784  30.907  1.00  0.00    -0.126 N 
ATOM      9  H3  UNL     1      14.060  -3.099  31.316  1.00  0.00     0.197 HD
HETATM   10  C5  UNL     1      15.183  -4.760  31.749  1.00  0.00     0.196 C 
HETATM   11  N4  UNL     1      15.573  -5.579  32.457  1.00  0.00    -0.171 NA
HETATM   12  N5  UNL     1      14.616  -4.660  28.648  1.00  0.00    -0.219 N 
ATOM     13  H5  UNL     1      13.633  -4.930  28.641  1.00  0.00     0.178 HD
ENDROOT
BRANCH  12  14
HETATM   14  C6  UNL     1      15.479  -5.351  27.752  1.00  0.00     0.129 C 
HETATM   15  C7  UNL     1      15.517  -4.571  26.434  1.00  0.00     0.027 C 
HETATM   16  C8  UNL     1      15.961  -5.520  25.313  1.00  0.00     0.002 C 
HETATM   17  C9  UNL     1      16.937  -6.493  25.929  1.00  0.00     0.002 C 
HETATM   18  C10 UNL     1      17.752  -5.775  26.995  1.00  0.00     0.035 C 
HETATM   19  C11 UNL     1      16.889  -5.508  28.234  1.00  0.00     0.206 C 
BRANCH  19  20
HETATM   20  N6  UNL     1      17.067  -6.650  29.106  1.00  0.00    -0.073 N 
ATOM     21  H63 UNL     1      16.335  -6.684  29.815  1.00  0.00     0.274 HD
ATOM     22  H62 UNL     1      16.863  -7.519  28.613  1.00  0.00     0.274 HD
ATOM     23  H61 UNL     1      17.992  -6.685  29.536  1.00  0.00     0.274 HD
ENDBRANCH  19  20
ENDBRANCH  12  14
BRANCH   1  24
HETATM   24  C2  UNL     1      16.194   0.941  30.422  1.00  0.00     0.120 C 
HETATM   25  C1  UNL     1      14.976   1.641  30.981  1.00  0.00     0.026 C 
ENDBRANCH   1  24
TORSDOF 3
ENDMDL
MODEL 4
REMARK VINA RESULT: -6.247383973      2.343      4.383
REMARK  3 active torsions:
REMARK  status: ('A' for Active; 'I' for Inactive)
REMARK    1  A    between atoms: C2_2  and  N1_3 
REMARK       I    between atoms: N1_3  and  C3_5 
REMARK       I    between atoms: C3_5  and  N2_7 
REMARK       I    between atoms: C4_9  and  N3_10 
REMARK       I    between atoms: C4_9  and  N5_14 
REMARK    2  A    between atoms: N5_14  and  C6_16 
REMARK    3  A    between atoms: C11_21  and  N6_22 
ROOT
HETATM    1  N1  UNL     1      15.451   0.517  30.129  1.00  0.00    -0.343 N 
ATOM      2  H1  UNL     1      14.886   0.684  29.297  1.00  0.00     0.164 HD
HETATM    3  C3  UNL     1      15.873  -0.807  30.389  1.00  0.00     0.334 C 
HETATM    4  O1  UNL     1      16.569  -1.007  31.417  1.00  0.00    -0.247 OA
HETATM    5  N2  UNL     1      15.558  -1.910  29.567  1.00  0.00    -0.141 N 
ATOM      6  H2  UNL     1      15.683  -1.795  28.561  1.00  0.00     0.189 HD
HETATM    7  C4  UNL     1      15.131  -3.035  29.978  1.00  0.00     0.691 C 
HETATM    8  N3  UNL     1      14.937  -3.257  31.351  1.00  0.00    -0.126 N 
ATOM      9  H3  UNL     1      14.242  -2.675  31.817  1.00  0.00     0.197 HD
HETATM   10  C5  UNL     1      15.595  -4.183  32.130  1.00  0.00     0.196 C 
HETATM   11  N4  UNL     1      16.130  -4.964  32.787  1.00  0.00    -0.171 NA
HETATM   12  N5  UNL     1      14.848  -4.068  29.068  1.00  0.00    -0.219 N 
ATOM     13  H5  UNL     1      13.910  -4.467  29.102  1.00  0.00     0.178 HD
ENDROOT
BRANCH  12  14
HETATM   14  C6  UNL     1      15.744  -4.611  28.104  1.00  0.00     0.129 C 
HETATM   15  C7  UNL     1      16.143  -6.016  28.567  1.00  0.00     0.027 C 
HETATM   16  C8  UNL     1      17.466  -6.399  27.891  1.00  0.00     0.002 C 
HETATM   17  C9  UNL     1      17.456  -5.760  26.524  1.00  0.00     0.002 C 
HETATM   18  C10 UNL     1      16.034  -5.764  25.981  1.00  0.00     0.035 C 
HETATM   19  C11 UNL     1      15.180  -4.725  26.720  1.00  0.00     0.206 C 
BRANCH  19  20
HETATM   20  N6  UNL     1      15.288  -3.498  25.960  1.00  0.00    -0.073 N 
ATOM     21  H63 UNL     1      14.942  -2.705  26.500  1.00  0.00     0.274 HD
ATOM     22  H62 UNL     1      16.263  -3.218  25.858  1.00  0.00     0.274 HD
ATOM     23  H61 UNL     1      14.827  -3.549  25.051  1.00  0.00     0.274 HD
ENDBRANCH  19  20
ENDBRANCH  12  14
BRANCH   1  24
HETATM   24  C2  UNL     1      15.770   1.639  30.963  1.00  0.00     0.120 C 
HETATM   25  C1  UNL     1      14.495   2.364  31.330  1.00  0.00     0.026 C 
ENDBRANCH   1  24
TORSDOF 3
ENDMDL
MODEL 5
REMARK VINA RESULT: -6.069328487      2.387      5.900
REMARK  3 active torsions:
REMARK  status: ('A' for Active; 'I' for Inactive)
REMARK    1  A    between atoms: C2_2  and  N1_3 
REMARK       I    between atoms: N1_3  and  C3_5 
REMARK       I    between atoms: C3_5  and  N2_7 
REMARK       I    between atoms: C4_9  and  N3_10 
REMARK       I    between atoms: C4_9  and  N5_14 
REMARK    2  A    between atoms: N5_14  and  C6_16 
REMARK    3  A    between atoms: C11_21  and  N6_22 
ROOT
HETATM    1  N1  UNL     1      15.508  -5.747  24.579  1.00  0.00    -0.343 N 
ATOM      2  H1  UNL     1      15.143  -4.817  24.378  1.00  0.00     0.164 HD
HETATM    3  C3  UNL     1      16.012  -5.997  25.877  1.00  0.00     0.334 C 
HETATM    4  O1  UNL     1      16.461  -7.146  26.118  1.00  0.00    -0.247 OA
HETATM    5  N2  UNL     1      16.039  -5.035  26.909  1.00  0.00    -0.141 N 
ATOM      6  H2  UNL     1      15.191  -4.490  27.065  1.00  0.00     0.189 HD
HETATM    7  C4  UNL     1      17.035  -4.792  27.662  1.00  0.00     0.691 C 
HETATM    8  N3  UNL     1      18.233  -5.508  27.498  1.00  0.00    -0.126 N 
ATOM      9  H3  UNL     1      18.714  -5.401  26.606  1.00  0.00     0.197 HD
HETATM   10  C5  UNL     1      18.821  -6.340  28.426  1.00  0.00     0.196 C 
HETATM   11  N4  UNL     1      19.327  -7.026  29.199  1.00  0.00    -0.171 NA
HETATM   12  N5  UNL     1      16.953  -3.810  28.662  1.00  0.00    -0.219 N 
ATOM     13  H5  UNL     1      17.656  -3.071  28.641  1.00  0.00     0.178 HD
ENDROOT
BRANCH  12  14
HETATM   14  C6  UNL     1      15.983  -3.745  29.702  1.00  0.00     0.129 C 
HETATM   15  C7  UNL     1      16.277  -4.875  30.694  1.00  0.00     0.027 C 
HETATM   16  C8  UNL     1      14.998  -5.178  31.486  1.00  0.00     0.002 C 
HETATM   17  C9  UNL     1      14.268  -3.867  31.650  1.00  0.00     0.002 C 
HETATM   18  C10 UNL     1      15.284  -2.745  31.807  1.00  0.00     0.035 C 
HETATM   19  C11 UNL     1      15.969  -2.456  30.466  1.00  0.00     0.206 C 
BRANCH  19  20
HETATM   20  N6  UNL     1      15.182  -1.424  29.824  1.00  0.00    -0.073 N 
ATOM     21  H63 UNL     1      14.217  -1.730  29.696  1.00  0.00     0.274 HD
ATOM     22  H62 UNL     1      15.026  -0.639  30.456  1.00  0.00     0.274 HD
ATOM     23  H61 UNL     1      15.583  -1.106  28.941  1.00  0.00     0.274 HD
ENDBRANCH  19  20
ENDBRANCH  12  14
BRANCH   1  24
HETATM   24  C2  UNL     1      15.480  -6.723  23.528  1.00  0.00     0.120 C 
HETATM   25  C1  UNL     1      14.087  -6.783  22.944  1.00  0.00     0.026 C 
ENDBRANCH   1  24
TORSDOF 3
ENDMDL
