MODEL 1
REMARK VINA RESULT: -7.115814007      0.000      0.000
REMARK  19 active torsions:
REMARK  status: ('A' for Active; 'I' for Inactive)
REMARK    1  A    between atoms: O1_2  and  C2_3 
REMARK    2  A    between atoms: C2_3  and  C3_4 
REMARK    3  A    between atoms: C3_4  and  O2_5 
REMARK    4  A    between atoms: O2_5  and  C4_6 
REMARK    5  A    between atoms: C4_6  and  C5_7 
REMARK    6  A    between atoms: C5_7  and  O3_8 
REMARK    7  A    between atoms: O3_8  and  C6_9 
REMARK    8  A    between atoms: C6_9  and  C7_10 
REMARK    9  A    between atoms: C7_10  and  O4_11 
REMARK   10  A    between atoms: O4_11  and  C8_12 
REMARK   11  A    between atoms: C8_12  and  C9_13 
REMARK   12  A    between atoms: C9_13  and  O5_14 
REMARK   13  A    between atoms: O5_14  and  C10_15 
REMARK   14  A    between atoms: C10_15  and  C11_16 
REMARK   15  A    between atoms: C11_16  and  O6_17 
REMARK   16  A    between atoms: O6_17  and  C12_18 
REMARK   17  A    between atoms: C15_21  and  C16_22 
REMARK   18  A    between atoms: C23_29  and  O7_30 
REMARK   19  A    between atoms: O7_30  and  C24_31 
ROOT
HETATM    1  C11 UNL     1      42.650  20.489   2.934  1.00  0.00     0.201 C 
ENDROOT
BRANCH   1   2
HETATM    2  C10 UNL     1      43.629  21.462   3.525  1.00  0.00     0.194 C 
BRANCH   2   3
HETATM    3  O5  UNL     1      44.921  21.233   3.162  1.00  0.00    -0.387 OA
BRANCH   3   4
HETATM    4  C9  UNL     1      45.599  22.350   2.762  1.00  0.00     0.193 C 
BRANCH   4   5
HETATM    5  C8  UNL     1      45.462  22.540   1.262  1.00  0.00     0.193 C 
BRANCH   5   6
HETATM    6  O4  UNL     1      46.011  21.492   0.567  1.00  0.00    -0.387 OA
BRANCH   6   7
HETATM    7  C7  UNL     1      45.526  21.362  -0.706  1.00  0.00     0.193 C 
BRANCH   7   8
HETATM    8  C6  UNL     1      44.077  21.037  -0.729  1.00  0.00     0.193 C 
BRANCH   8   9
HETATM    9  O3  UNL     1      43.821  19.705  -1.064  1.00  0.00    -0.387 OA
BRANCH   9  10
HETATM   10  C5  UNL     1      42.631  19.210  -0.589  1.00  0.00     0.193 C 
BRANCH  10  11
HETATM   11  C4  UNL     1      42.758  17.910   0.134  1.00  0.00     0.193 C 
BRANCH  11  12
HETATM   12  O2  UNL     1      41.796  17.648   1.073  1.00  0.00    -0.387 OA
BRANCH  12  13
HETATM   13  C3  UNL     1      40.532  18.150   0.776  1.00  0.00     0.193 C 
BRANCH  13  14
HETATM   14  C2  UNL     1      39.773  17.025   0.116  1.00  0.00     0.193 C 
BRANCH  14  15
HETATM   15  O1  UNL     1      38.418  17.055   0.281  1.00  0.00    -0.394 OA
HETATM   16  C1  UNL     1      37.869  15.799   0.199  1.00  0.00     0.201 C 
ENDBRANCH  14  15
ENDBRANCH  13  14
ENDBRANCH  12  13
ENDBRANCH  11  12
ENDBRANCH  10  11
ENDBRANCH   9  10
ENDBRANCH   8   9
ENDBRANCH   7   8
ENDBRANCH   6   7
ENDBRANCH   5   6
ENDBRANCH   4   5
ENDBRANCH   3   4
ENDBRANCH   2   3
ENDBRANCH   1   2
BRANCH   1  17
HETATM   17  O6  UNL     1      41.339  20.676   3.390  1.00  0.00    -0.346 OA
BRANCH  17  18
HETATM   18  C12 UNL     1      40.559  21.655   2.803  1.00  0.00     0.102 A 
HETATM   19  C13 UNL     1      40.485  21.758   1.418  1.00  0.00     0.040 A 
HETATM   20  C14 UNL     1      39.717  22.722   0.853  1.00  0.00     0.010 A 
HETATM   21  C15 UNL     1      38.977  23.644   1.574  1.00  0.00    -0.051 A 
HETATM   22  C22 UNL     1      39.059  23.531   2.946  1.00  0.00     0.047 A 
HETATM   23  C23 UNL     1      39.827  22.566   3.560  1.00  0.00     0.112 A 
BRANCH  21  24
HETATM   24  C16 UNL     1      38.150  24.677   0.902  1.00  0.00     0.018 C 
HETATM   25  C17 UNL     1      37.260  25.287   1.968  1.00  0.00     0.009 C 
HETATM   26  C18 UNL     1      36.264  26.179   1.304  1.00  0.00     0.001 C 
HETATM   27  C19 UNL     1      36.628  26.499  -0.123  1.00  0.00     0.000 C 
HETATM   28  C20 UNL     1      36.770  25.305  -1.006  1.00  0.00     0.001 C 
HETATM   29  C21 UNL     1      37.363  24.136  -0.246  1.00  0.00     0.009 C 
ENDBRANCH  21  24
BRANCH  23  30
HETATM   30  O7  UNL     1      39.904  22.461   4.950  1.00  0.00    -0.283 OA
BRANCH  30  31
HETATM   31  C24 UNL     1      40.901  23.102   5.691  1.00  0.00     0.403 C 
HETATM   32  O8  UNL     1      41.090  22.694   6.866  1.00  0.00    -0.276 OA
ENDBRANCH  30  31
ENDBRANCH  23  30
ENDBRANCH  17  18
ENDBRANCH   1  17
TORSDOF 19
ENDMDL
MODEL 2
REMARK VINA RESULT: -7.062752221      0.990      1.429
REMARK  19 active torsions:
REMARK  status: ('A' for Active; 'I' for Inactive)
REMARK    1  A    between atoms: O1_2  and  C2_3 
REMARK    2  A    between atoms: C2_3  and  C3_4 
REMARK    3  A    between atoms: C3_4  and  O2_5 
REMARK    4  A    between atoms: O2_5  and  C4_6 
REMARK    5  A    between atoms: C4_6  and  C5_7 
REMARK    6  A    between atoms: C5_7  and  O3_8 
REMARK    7  A    between atoms: O3_8  and  C6_9 
REMARK    8  A    between atoms: C6_9  and  C7_10 
REMARK    9  A    between atoms: C7_10  and  O4_11 
REMARK   10  A    between atoms: O4_11  and  C8_12 
REMARK   11  A    between atoms: C8_12  and  C9_13 
REMARK   12  A    between atoms: C9_13  and  O5_14 
REMARK   13  A    between atoms: O5_14  and  C10_15 
REMARK   14  A    between atoms: C10_15  and  C11_16 
REMARK   15  A    between atoms: C11_16  and  O6_17 
REMARK   16  A    between atoms: O6_17  and  C12_18 
REMARK   17  A    between atoms: C15_21  and  C16_22 
REMARK   18  A    between atoms: C23_29  and  O7_30 
REMARK   19  A    between atoms: O7_30  and  C24_31 
ROOT
HETATM    1  C11 UNL     1      42.854  20.172   2.991  1.00  0.00     0.201 C 
ENDROOT
BRANCH   1   2
HETATM    2  C10 UNL     1      43.629  20.910   4.046  1.00  0.00     0.194 C 
BRANCH   2   3
HETATM    3  O5  UNL     1      44.308  21.990   3.575  1.00  0.00    -0.387 OA
BRANCH   3   4
HETATM    4  C9  UNL     1      45.337  21.683   2.730  1.00  0.00     0.193 C 
BRANCH   4   5
HETATM    5  C8  UNL     1      45.455  22.735   1.641  1.00  0.00     0.193 C 
BRANCH   5   6
HETATM    6  O4  UNL     1      45.957  22.207   0.479  1.00  0.00    -0.387 OA
BRANCH   6   7
HETATM    7  C7  UNL     1      45.146  21.263  -0.091  1.00  0.00     0.193 C 
BRANCH   7   8
HETATM    8  C6  UNL     1      45.453  21.048  -1.528  1.00  0.00     0.193 C 
BRANCH   8   9
HETATM    9  O3  UNL     1      44.361  21.297  -2.364  1.00  0.00    -0.387 OA
BRANCH   9  10
HETATM   10  C5  UNL     1      43.182  21.555  -1.708  1.00  0.00     0.193 C 
BRANCH  10  11
HETATM   11  C4  UNL     1      42.089  20.585  -2.018  1.00  0.00     0.193 C 
BRANCH  11  12
HETATM   12  O2  UNL     1      42.315  19.286  -1.647  1.00  0.00    -0.387 OA
BRANCH  12  13
HETATM   13  C3  UNL     1      41.206  18.621  -1.132  1.00  0.00     0.193 C 
BRANCH  13  14
HETATM   14  C2  UNL     1      41.660  17.970   0.152  1.00  0.00     0.193 C 
BRANCH  14  15
HETATM   15  O1  UNL     1      40.681  17.756   1.080  1.00  0.00    -0.394 OA
HETATM   16  C1  UNL     1      39.534  17.267   0.505  1.00  0.00     0.201 C 
ENDBRANCH  14  15
ENDBRANCH  13  14
ENDBRANCH  12  13
ENDBRANCH  11  12
ENDBRANCH  10  11
ENDBRANCH   9  10
ENDBRANCH   8   9
ENDBRANCH   7   8
ENDBRANCH   6   7
ENDBRANCH   5   6
ENDBRANCH   4   5
ENDBRANCH   3   4
ENDBRANCH   2   3
ENDBRANCH   1   2
BRANCH   1  17
HETATM   17  O6  UNL     1      41.471  20.180   3.213  1.00  0.00    -0.346 OA
BRANCH  17  18
HETATM   18  C12 UNL     1      40.719  21.225   2.708  1.00  0.00     0.102 A 
HETATM   19  C13 UNL     1      40.435  21.295   1.349  1.00  0.00     0.040 A 
HETATM   20  C14 UNL     1      39.697  22.325   0.865  1.00  0.00     0.010 A 
HETATM   21  C15 UNL     1      39.188  23.347   1.649  1.00  0.00    -0.051 A 
HETATM   22  C22 UNL     1      39.476  23.266   2.995  1.00  0.00     0.047 A 
HETATM   23  C23 UNL     1      40.222  22.237   3.526  1.00  0.00     0.112 A 
BRANCH  21  24
HETATM   24  C16 UNL     1      38.383  24.449   1.066  1.00  0.00     0.018 C 
HETATM   25  C17 UNL     1      37.527  25.007   2.187  1.00  0.00     0.009 C 
HETATM   26  C18 UNL     1      36.549  25.973   1.605  1.00  0.00     0.001 C 
HETATM   27  C19 UNL     1      36.900  26.383   0.198  1.00  0.00     0.000 C 
HETATM   28  C20 UNL     1      36.994  25.250  -0.770  1.00  0.00     0.001 C 
HETATM   29  C21 UNL     1      37.563  24.014  -0.104  1.00  0.00     0.009 C 
ENDBRANCH  21  24
BRANCH  23  30
HETATM   30  O7  UNL     1      40.509  22.165   4.891  1.00  0.00    -0.283 OA
BRANCH  30  31
HETATM   31  C24 UNL     1      40.591  23.305   5.696  1.00  0.00     0.403 C 
HETATM   32  O8  UNL     1      41.738  23.650   6.080  1.00  0.00    -0.276 OA
ENDBRANCH  30  31
ENDBRANCH  23  30
ENDBRANCH  17  18
ENDBRANCH   1  17
TORSDOF 19
ENDMDL
MODEL 3
REMARK VINA RESULT: -7.028812131      2.692      4.875
REMARK  19 active torsions:
REMARK  status: ('A' for Active; 'I' for Inactive)
REMARK    1  A    between atoms: O1_2  and  C2_3 
REMARK    2  A    between atoms: C2_3  and  C3_4 
REMARK    3  A    between atoms: C3_4  and  O2_5 
REMARK    4  A    between atoms: O2_5  and  C4_6 
REMARK    5  A    between atoms: C4_6  and  C5_7 
REMARK    6  A    between atoms: C5_7  and  O3_8 
REMARK    7  A    between atoms: O3_8  and  C6_9 
REMARK    8  A    between atoms: C6_9  and  C7_10 
REMARK    9  A    between atoms: C7_10  and  O4_11 
REMARK   10  A    between atoms: O4_11  and  C8_12 
REMARK   11  A    between atoms: C8_12  and  C9_13 
REMARK   12  A    between atoms: C9_13  and  O5_14 
REMARK   13  A    between atoms: O5_14  and  C10_15 
REMARK   14  A    between atoms: C10_15  and  C11_16 
REMARK   15  A    between atoms: C11_16  and  O6_17 
REMARK   16  A    between atoms: O6_17  and  C12_18 
REMARK   17  A    between atoms: C15_21  and  C16_22 
REMARK   18  A    between atoms: C23_29  and  O7_30 
REMARK   19  A    between atoms: O7_30  and  C24_31 
ROOT
HETATM    1  C11 UNL     1      42.745  20.069   2.740  1.00  0.00     0.201 C 
ENDROOT
BRANCH   1   2
HETATM    2  C10 UNL     1      43.622  20.665   3.804  1.00  0.00     0.194 C 
BRANCH   2   3
HETATM    3  O5  UNL     1      44.258  21.804   3.418  1.00  0.00    -0.387 OA
BRANCH   3   4
HETATM    4  C9  UNL     1      45.362  21.597   2.640  1.00  0.00     0.193 C 
BRANCH   4   5
HETATM    5  C8  UNL     1      45.607  22.799   1.744  1.00  0.00     0.193 C 
BRANCH   5   6
HETATM    6  O4  UNL     1      45.880  22.420   0.454  1.00  0.00    -0.387 OA
BRANCH   6   7
HETATM    7  C7  UNL     1      45.494  21.141   0.162  1.00  0.00     0.193 C 
BRANCH   7   8
HETATM    8  C6  UNL     1      44.899  21.025  -1.193  1.00  0.00     0.193 C 
BRANCH   8   9
HETATM    9  O3  UNL     1      45.407  21.963  -2.095  1.00  0.00    -0.387 OA
BRANCH   9  10
HETATM   10  C5  UNL     1      45.008  21.785  -3.398  1.00  0.00     0.193 C 
BRANCH  10  11
HETATM   11  C4  UNL     1      45.930  22.388  -4.405  1.00  0.00     0.193 C 
BRANCH  11  12
HETATM   12  O2  UNL     1      46.855  23.273  -3.919  1.00  0.00    -0.387 OA
BRANCH  12  13
HETATM   13  C3  UNL     1      47.432  24.105  -4.876  1.00  0.00     0.193 C 
BRANCH  13  14
HETATM   14  C2  UNL     1      46.336  24.450  -5.854  1.00  0.00     0.193 C 
BRANCH  14  15
HETATM   15  O1  UNL     1      45.733  25.660  -5.658  1.00  0.00    -0.394 OA
HETATM   16  C1  UNL     1      44.419  25.642  -6.055  1.00  0.00     0.201 C 
ENDBRANCH  14  15
ENDBRANCH  13  14
ENDBRANCH  12  13
ENDBRANCH  11  12
ENDBRANCH  10  11
ENDBRANCH   9  10
ENDBRANCH   8   9
ENDBRANCH   7   8
ENDBRANCH   6   7
ENDBRANCH   5   6
ENDBRANCH   4   5
ENDBRANCH   3   4
ENDBRANCH   2   3
ENDBRANCH   1   2
BRANCH   1  17
HETATM   17  O6  UNL     1      41.379  20.144   3.043  1.00  0.00    -0.346 OA
BRANCH  17  18
HETATM   18  C12 UNL     1      40.643  21.208   2.555  1.00  0.00     0.102 A 
HETATM   19  C13 UNL     1      40.371  21.310   1.195  1.00  0.00     0.040 A 
HETATM   20  C14 UNL     1      39.648  22.358   0.728  1.00  0.00     0.010 A 
HETATM   21  C15 UNL     1      39.144  23.369   1.529  1.00  0.00    -0.051 A 
HETATM   22  C22 UNL     1      39.421  23.256   2.876  1.00  0.00     0.047 A 
HETATM   23  C23 UNL     1      40.151  22.208   3.391  1.00  0.00     0.112 A 
BRANCH  21  24
HETATM   24  C16 UNL     1      38.355  24.492   0.964  1.00  0.00     0.018 C 
HETATM   25  C17 UNL     1      37.466  25.008   2.079  1.00  0.00     0.009 C 
HETATM   26  C18 UNL     1      36.505  25.995   1.504  1.00  0.00     0.001 C 
HETATM   27  C19 UNL     1      36.898  26.457   0.125  1.00  0.00     0.000 C 
HETATM   28  C20 UNL     1      37.022  25.361  -0.881  1.00  0.00     0.001 C 
HETATM   29  C21 UNL     1      37.572  24.101  -0.246  1.00  0.00     0.009 C 
ENDBRANCH  21  24
BRANCH  23  30
HETATM   30  O7  UNL     1      40.426  22.103   4.755  1.00  0.00    -0.283 OA
BRANCH  30  31
HETATM   31  C24 UNL     1      40.832  23.201   5.519  1.00  0.00     0.403 C 
HETATM   32  O8  UNL     1      40.878  23.043   6.766  1.00  0.00    -0.276 OA
ENDBRANCH  30  31
ENDBRANCH  23  30
ENDBRANCH  17  18
ENDBRANCH   1  17
TORSDOF 19
ENDMDL
MODEL 4
REMARK VINA RESULT: -7.022152124      1.155      2.070
REMARK  19 active torsions:
REMARK  status: ('A' for Active; 'I' for Inactive)
REMARK    1  A    between atoms: O1_2  and  C2_3 
REMARK    2  A    between atoms: C2_3  and  C3_4 
REMARK    3  A    between atoms: C3_4  and  O2_5 
REMARK    4  A    between atoms: O2_5  and  C4_6 
REMARK    5  A    between atoms: C4_6  and  C5_7 
REMARK    6  A    between atoms: C5_7  and  O3_8 
REMARK    7  A    between atoms: O3_8  and  C6_9 
REMARK    8  A    between atoms: C6_9  and  C7_10 
REMARK    9  A    between atoms: C7_10  and  O4_11 
REMARK   10  A    between atoms: O4_11  and  C8_12 
REMARK   11  A    between atoms: C8_12  and  C9_13 
REMARK   12  A    between atoms: C9_13  and  O5_14 
REMARK   13  A    between atoms: O5_14  and  C10_15 
REMARK   14  A    between atoms: C10_15  and  C11_16 
REMARK   15  A    between atoms: C11_16  and  O6_17 
REMARK   16  A    between atoms: O6_17  and  C12_18 
REMARK   17  A    between atoms: C15_21  and  C16_22 
REMARK   18  A    between atoms: C23_29  and  O7_30 
REMARK   19  A    between atoms: O7_30  and  C24_31 
ROOT
HETATM    1  C11 UNL     1      42.805  20.728   3.192  1.00  0.00     0.201 C 
ENDROOT
BRANCH   1   2
HETATM    2  C10 UNL     1      43.871  21.776   3.032  1.00  0.00     0.194 C 
BRANCH   2   3
HETATM    3  O5  UNL     1      43.950  22.292   1.775  1.00  0.00    -0.387 OA
BRANCH   3   4
HETATM    4  C9  UNL     1      44.344  21.394   0.823  1.00  0.00     0.193 C 
BRANCH   4   5
HETATM    5  C8  UNL     1      43.376  21.413  -0.348  1.00  0.00     0.193 C 
BRANCH   5   6
HETATM    6  O4  UNL     1      42.621  20.268  -0.398  1.00  0.00    -0.387 OA
BRANCH   6   7
HETATM    7  C7  UNL     1      43.337  19.127  -0.158  1.00  0.00     0.193 C 
BRANCH   7   8
HETATM    8  C6  UNL     1      42.463  17.968   0.156  1.00  0.00     0.193 C 
BRANCH   8   9
HETATM    9  O3  UNL     1      42.043  17.944   1.489  1.00  0.00    -0.387 OA
BRANCH   9  10
HETATM   10  C5  UNL     1      40.684  18.039   1.666  1.00  0.00     0.193 C 
BRANCH  10  11
HETATM   11  C4  UNL     1      39.888  17.757   0.434  1.00  0.00     0.193 C 
BRANCH  11  12
HETATM   12  O2  UNL     1      39.114  16.629   0.464  1.00  0.00    -0.387 OA
BRANCH  12  13
HETATM   13  C3  UNL     1      38.354  16.406  -0.682  1.00  0.00     0.193 C 
BRANCH  13  14
HETATM   14  C2  UNL     1      37.219  17.399  -0.637  1.00  0.00     0.193 C 
BRANCH  14  15
HETATM   15  O1  UNL     1      36.128  17.078  -1.393  1.00  0.00    -0.394 OA
HETATM   16  C1  UNL     1      36.476  16.348  -2.503  1.00  0.00     0.201 C 
ENDBRANCH  14  15
ENDBRANCH  13  14
ENDBRANCH  12  13
ENDBRANCH  11  12
ENDBRANCH  10  11
ENDBRANCH   9  10
ENDBRANCH   8   9
ENDBRANCH   7   8
ENDBRANCH   6   7
ENDBRANCH   5   6
ENDBRANCH   4   5
ENDBRANCH   3   4
ENDBRANCH   2   3
ENDBRANCH   1   2
BRANCH   1  17
HETATM   17  O6  UNL     1      41.654  21.204   3.833  1.00  0.00    -0.346 OA
BRANCH  17  18
HETATM   18  C12 UNL     1      40.822  22.076   3.154  1.00  0.00     0.102 A 
HETATM   19  C13 UNL     1      40.304  21.729   1.911  1.00  0.00     0.040 A 
HETATM   20  C14 UNL     1      39.490  22.592   1.254  1.00  0.00     0.010 A 
HETATM   21  C15 UNL     1      39.123  23.835   1.744  1.00  0.00    -0.051 A 
HETATM   22  C22 UNL     1      39.644  24.167   2.977  1.00  0.00     0.047 A 
HETATM   23  C23 UNL     1      40.475  23.319   3.677  1.00  0.00     0.112 A 
BRANCH  21  24
HETATM   24  C16 UNL     1      38.226  24.739   0.983  1.00  0.00     0.018 C 
HETATM   25  C17 UNL     1      37.246  25.326   1.981  1.00  0.00     0.009 C 
HETATM   26  C18 UNL     1      36.194  26.074   1.232  1.00  0.00     0.001 C 
HETATM   27  C19 UNL     1      36.573  26.336  -0.202  1.00  0.00     0.000 C 
HETATM   28  C20 UNL     1      36.858  25.108  -1.000  1.00  0.00     0.001 C 
HETATM   29  C21 UNL     1      37.533  24.052  -0.148  1.00  0.00     0.009 C 
ENDBRANCH  21  24
BRANCH  23  30
HETATM   30  O7  UNL     1      40.997  23.665   4.924  1.00  0.00    -0.283 OA
BRANCH  30  31
HETATM   31  C24 UNL     1      40.381  23.284   6.120  1.00  0.00     0.403 C 
HETATM   32  O8  UNL     1      41.024  22.505   6.870  1.00  0.00    -0.276 OA
ENDBRANCH  30  31
ENDBRANCH  23  30
ENDBRANCH  17  18
ENDBRANCH   1  17
TORSDOF 19
ENDMDL
MODEL 5
REMARK VINA RESULT: -6.884169143      1.224      1.488
REMARK  19 active torsions:
REMARK  status: ('A' for Active; 'I' for Inactive)
REMARK    1  A    between atoms: O1_2  and  C2_3 
REMARK    2  A    between atoms: C2_3  and  C3_4 
REMARK    3  A    between atoms: C3_4  and  O2_5 
REMARK    4  A    between atoms: O2_5  and  C4_6 
REMARK    5  A    between atoms: C4_6  and  C5_7 
REMARK    6  A    between atoms: C5_7  and  O3_8 
REMARK    7  A    between atoms: O3_8  and  C6_9 
REMARK    8  A    between atoms: C6_9  and  C7_10 
REMARK    9  A    between atoms: C7_10  and  O4_11 
REMARK   10  A    between atoms: O4_11  and  C8_12 
REMARK   11  A    between atoms: C8_12  and  C9_13 
REMARK   12  A    between atoms: C9_13  and  O5_14 
REMARK   13  A    between atoms: O5_14  and  C10_15 
REMARK   14  A    between atoms: C10_15  and  C11_16 
REMARK   15  A    between atoms: C11_16  and  O6_17 
REMARK   16  A    between atoms: O6_17  and  C12_18 
REMARK   17  A    between atoms: C15_21  and  C16_22 
REMARK   18  A    between atoms: C23_29  and  O7_30 
REMARK   19  A    between atoms: O7_30  and  C24_31 
ROOT
HETATM    1  C11 UNL     1      42.939  20.176   3.091  1.00  0.00     0.201 C 
ENDROOT
BRANCH   1   2
HETATM    2  C10 UNL     1      43.776  21.317   3.596  1.00  0.00     0.194 C 
BRANCH   2   3
HETATM    3  O5  UNL     1      44.231  22.142   2.614  1.00  0.00    -0.387 OA
BRANCH   3   4
HETATM    4  C9  UNL     1      45.464  21.810   2.127  1.00  0.00     0.193 C 
BRANCH   4   5
HETATM    5  C8  UNL     1      45.430  21.747   0.610  1.00  0.00     0.193 C 
BRANCH   5   6
HETATM    6  O4  UNL     1      44.165  21.493   0.143  1.00  0.00    -0.387 OA
BRANCH   6   7
HETATM    7  C7  UNL     1      44.141  20.962  -1.118  1.00  0.00     0.193 C 
BRANCH   7   8
HETATM    8  C6  UNL     1      43.661  19.556  -1.130  1.00  0.00     0.193 C 
BRANCH   8   9
HETATM    9  O3  UNL     1      42.484  19.374  -0.401  1.00  0.00    -0.387 OA
BRANCH   9  10
HETATM   10  C5  UNL     1      42.053  18.072  -0.320  1.00  0.00     0.193 C 
BRANCH  10  11
HETATM   11  C4  UNL     1      41.223  17.779   0.886  1.00  0.00     0.193 C 
BRANCH  11  12
HETATM   12  O2  UNL     1      39.867  17.776   0.695  1.00  0.00    -0.387 OA
BRANCH  12  13
HETATM   13  C3  UNL     1      39.450  17.312  -0.550  1.00  0.00     0.193 C 
BRANCH  13  14
HETATM   14  C2  UNL     1      38.428  18.302  -1.051  1.00  0.00     0.193 C 
BRANCH  14  15
HETATM   15  O1  UNL     1      38.808  19.612  -1.006  1.00  0.00    -0.394 OA
HETATM   16  C1  UNL     1      39.429  20.001  -2.169  1.00  0.00     0.201 C 
ENDBRANCH  14  15
ENDBRANCH  13  14
ENDBRANCH  12  13
ENDBRANCH  11  12
ENDBRANCH  10  11
ENDBRANCH   9  10
ENDBRANCH   8   9
ENDBRANCH   7   8
ENDBRANCH   6   7
ENDBRANCH   5   6
ENDBRANCH   4   5
ENDBRANCH   3   4
ENDBRANCH   2   3
ENDBRANCH   1   2
BRANCH   1  17
HETATM   17  O6  UNL     1      41.590  20.274   3.457  1.00  0.00    -0.346 OA
BRANCH  17  18
HETATM   18  C12 UNL     1      40.822  21.286   2.911  1.00  0.00     0.102 A 
HETATM   19  C13 UNL     1      40.619  21.351   1.536  1.00  0.00     0.040 A 
HETATM   20  C14 UNL     1      39.864  22.349   1.013  1.00  0.00     0.010 A 
HETATM   21  C15 UNL     1      39.258  23.339   1.767  1.00  0.00    -0.051 A 
HETATM   22  C22 UNL     1      39.467  23.263   3.128  1.00  0.00     0.047 A 
HETATM   23  C23 UNL     1      40.227  22.267   3.701  1.00  0.00     0.112 A 
BRANCH  21  24
HETATM   24  C16 UNL     1      38.438  24.406   1.140  1.00  0.00     0.018 C 
HETATM   25  C17 UNL     1      37.587  25.008   2.241  1.00  0.00     0.009 C 
HETATM   26  C18 UNL     1      36.596  25.937   1.622  1.00  0.00     0.001 C 
HETATM   27  C19 UNL     1      36.932  26.284   0.196  1.00  0.00     0.000 C 
HETATM   28  C20 UNL     1      37.028  25.108  -0.719  1.00  0.00     0.001 C 
HETATM   29  C21 UNL     1      37.613  23.909  -0.001  1.00  0.00     0.009 C 
ENDBRANCH  21  24
BRANCH  23  30
HETATM   30  O7  UNL     1      40.433  22.199   5.080  1.00  0.00    -0.283 OA
BRANCH  30  31
HETATM   31  C24 UNL     1      40.610  23.343   5.864  1.00  0.00     0.403 C 
HETATM   32  O8  UNL     1      41.794  23.696   6.098  1.00  0.00    -0.276 OA
ENDBRANCH  30  31
ENDBRANCH  23  30
ENDBRANCH  17  18
ENDBRANCH   1  17
TORSDOF 19
ENDMDL
