MODEL 1
REMARK VINA RESULT: -6.651621539      0.000      0.000
REMARK  18 active torsions:
REMARK  status: ('A' for Active; 'I' for Inactive)
REMARK    1  A    between atoms: C4_4  and  C5_5 
REMARK    2  A    between atoms: C5_5  and  C6_6 
REMARK    3  A    between atoms: C6_6  and  O1_7 
REMARK    4  A    between atoms: O1_7  and  C7_8 
REMARK    5  A    between atoms: C7_8  and  C8_9 
REMARK    6  A    between atoms: C8_9  and  O2_10 
REMARK    7  A    between atoms: O2_10  and  C9_11 
REMARK    8  A    between atoms: C9_11  and  C10_12 
REMARK    9  A    between atoms: C10_12  and  O3_13 
REMARK   10  A    between atoms: O3_13  and  C11_14 
REMARK   11  A    between atoms: C11_14  and  C12_15 
REMARK   12  A    between atoms: C12_15  and  O4_16 
REMARK   13  A    between atoms: O4_16  and  C13_17 
REMARK   14  A    between atoms: C13_17  and  C14_18 
REMARK   15  A    between atoms: C14_18  and  O5_19 
REMARK   16  A    between atoms: O5_19  and  C15_20 
REMARK   17  A    between atoms: C15_20  and  C16_21 
REMARK   18  A    between atoms: C16_21  and  C17_22 
ROOT
HETATM    1  C8  UNL     1      41.307  23.261   5.505  1.00  0.00     0.193 C 
ENDROOT
BRANCH   1   2
HETATM    2  C7  UNL     1      39.858  23.266   4.997  1.00  0.00     0.193 C 
BRANCH   2   3
HETATM    3  O1  UNL     1      39.797  23.827   3.745  1.00  0.00    -0.388 OA
BRANCH   3   4
HETATM    4  C6  UNL     1      39.428  22.960   2.754  1.00  0.00     0.182 C 
BRANCH   4   5
HETATM    5  C5  UNL     1      39.456  23.592   1.385  1.00  0.00     0.012 C 
HETATM    6  C20 UNL     1      39.647  22.467   0.396  1.00  0.00     0.043 C 
HETATM    7  C21 UNL     1      41.006  22.464  -0.244  1.00  0.00     0.168 C 
HETATM    8  O7  UNL     1      41.928  22.645   0.814  1.00  0.00    -0.391 OA
HETATM    9  C22 UNL     1      41.927  24.020   1.031  1.00  0.00     0.168 C 
HETATM   10  C23 UNL     1      40.601  24.574   1.381  1.00  0.00     0.043 C 
BRANCH   5  11
HETATM   11  C4  UNL     1      38.208  24.271   1.001  1.00  0.00    -0.047 A 
HETATM   12  C3  UNL     1      37.701  25.192   1.867  1.00  0.00     0.008 A 
HETATM   13  C2  UNL     1      36.518  25.902   1.606  1.00  0.00     0.001 A 
HETATM   14  C1  UNL     1      35.834  25.656   0.411  1.00  0.00     0.000 A 
HETATM   15  C25 UNL     1      36.363  24.720  -0.454  1.00  0.00     0.001 A 
HETATM   16  C24 UNL     1      37.529  24.042  -0.163  1.00  0.00     0.008 A 
ENDBRANCH   5  11
ENDBRANCH   4   5
ENDBRANCH   3   4
ENDBRANCH   2   3
ENDBRANCH   1   2
BRANCH   1  17
HETATM   17  O2  UNL     1      41.950  22.109   5.136  1.00  0.00    -0.387 OA
BRANCH  17  18
HETATM   18  C9  UNL     1      42.765  22.191   4.037  1.00  0.00     0.193 C 
BRANCH  18  19
HETATM   19  C10 UNL     1      43.562  20.946   3.861  1.00  0.00     0.193 C 
BRANCH  19  20
HETATM   20  O3  UNL     1      44.480  20.996   2.831  1.00  0.00    -0.387 OA
BRANCH  20  21
HETATM   21  C11 UNL     1      45.149  22.169   2.673  1.00  0.00     0.193 C 
BRANCH  21  22
HETATM   22  C12 UNL     1      45.427  22.440   1.223  1.00  0.00     0.193 C 
BRANCH  22  23
HETATM   23  O4  UNL     1      45.991  21.440   0.509  1.00  0.00    -0.387 OA
BRANCH  23  24
HETATM   24  C13 UNL     1      45.810  21.398  -0.840  1.00  0.00     0.193 C 
BRANCH  24  25
HETATM   25  C14 UNL     1      44.390  21.141  -1.260  1.00  0.00     0.193 C 
BRANCH  25  26
HETATM   26  O5  UNL     1      44.115  19.869  -1.682  1.00  0.00    -0.389 OA
BRANCH  26  27
HETATM   27  C15 UNL     1      42.933  19.320  -1.219  1.00  0.00     0.170 C 
BRANCH  27  28
HETATM   28  C16 UNL     1      43.041  19.303   0.298  1.00  0.00     0.058 C 
BRANCH  28  29
HETATM   29  C17 UNL     1      42.094  18.272   0.902  1.00  0.00     0.125 C 
HETATM   30  C18 UNL     1      40.720  18.862   1.058  1.00  0.00     0.058 C 
HETATM   31  C19 UNL     1      40.968  18.543   2.481  1.00  0.00     0.170 C 
HETATM   32  O6  UNL     1      42.268  18.170   2.254  1.00  0.00    -0.386 OA
ENDBRANCH  28  29
ENDBRANCH  27  28
ENDBRANCH  26  27
ENDBRANCH  25  26
ENDBRANCH  24  25
ENDBRANCH  23  24
ENDBRANCH  22  23
ENDBRANCH  21  22
ENDBRANCH  20  21
ENDBRANCH  19  20
ENDBRANCH  18  19
ENDBRANCH  17  18
ENDBRANCH   1  17
TORSDOF 18
ENDMDL
MODEL 2
REMARK VINA RESULT: -6.424321362      1.980      4.482
REMARK  18 active torsions:
REMARK  status: ('A' for Active; 'I' for Inactive)
REMARK    1  A    between atoms: C4_4  and  C5_5 
REMARK    2  A    between atoms: C5_5  and  C6_6 
REMARK    3  A    between atoms: C6_6  and  O1_7 
REMARK    4  A    between atoms: O1_7  and  C7_8 
REMARK    5  A    between atoms: C7_8  and  C8_9 
REMARK    6  A    between atoms: C8_9  and  O2_10 
REMARK    7  A    between atoms: O2_10  and  C9_11 
REMARK    8  A    between atoms: C9_11  and  C10_12 
REMARK    9  A    between atoms: C10_12  and  O3_13 
REMARK   10  A    between atoms: O3_13  and  C11_14 
REMARK   11  A    between atoms: C11_14  and  C12_15 
REMARK   12  A    between atoms: C12_15  and  O4_16 
REMARK   13  A    between atoms: O4_16  and  C13_17 
REMARK   14  A    between atoms: C13_17  and  C14_18 
REMARK   15  A    between atoms: C14_18  and  O5_19 
REMARK   16  A    between atoms: O5_19  and  C15_20 
REMARK   17  A    between atoms: C15_20  and  C16_21 
REMARK   18  A    between atoms: C16_21  and  C17_22 
ROOT
HETATM    1  C8  UNL     1      42.843  22.866   1.058  1.00  0.00     0.193 C 
ENDROOT
BRANCH   1   2
HETATM    2  C7  UNL     1      42.402  24.337   1.092  1.00  0.00     0.193 C 
BRANCH   2   3
HETATM    3  O1  UNL     1      41.221  24.493   0.409  1.00  0.00    -0.388 OA
BRANCH   3   4
HETATM    4  C6  UNL     1      40.292  25.264   1.051  1.00  0.00     0.182 C 
BRANCH   4   5
HETATM    5  C5  UNL     1      39.086  24.476   1.497  1.00  0.00     0.012 C 
HETATM    6  C20 UNL     1      39.015  23.259   0.605  1.00  0.00     0.043 C 
HETATM    7  C21 UNL     1      37.871  23.302  -0.367  1.00  0.00     0.168 C 
HETATM    8  O7  UNL     1      37.899  24.598  -0.934  1.00  0.00    -0.391 OA
HETATM    9  C22 UNL     1      37.254  25.393   0.009  1.00  0.00     0.168 C 
HETATM   10  C23 UNL     1      37.891  25.383   1.344  1.00  0.00     0.043 C 
BRANCH   5  11
HETATM   11  C4  UNL     1      39.163  23.972   2.878  1.00  0.00    -0.047 A 
HETATM   12  C3  UNL     1      39.870  22.828   3.091  1.00  0.00     0.008 A 
HETATM   13  C2  UNL     1      40.012  22.256   4.366  1.00  0.00     0.001 A 
HETATM   14  C1  UNL     1      39.405  22.884   5.458  1.00  0.00     0.000 A 
HETATM   15  C25 UNL     1      38.693  24.042   5.222  1.00  0.00     0.001 A 
HETATM   16  C24 UNL     1      38.576  24.575   3.954  1.00  0.00     0.008 A 
ENDBRANCH   5  11
ENDBRANCH   4   5
ENDBRANCH   3   4
ENDBRANCH   2   3
ENDBRANCH   1   2
BRANCH   1  17
HETATM   17  O2  UNL     1      44.030  22.697   1.721  1.00  0.00    -0.387 OA
BRANCH  17  18
HETATM   18  C9  UNL     1      44.250  21.460   2.270  1.00  0.00     0.193 C 
BRANCH  18  19
HETATM   19  C10 UNL     1      43.585  21.332   3.596  1.00  0.00     0.193 C 
BRANCH  19  20
HETATM   20  O3  UNL     1      42.800  20.204   3.735  1.00  0.00    -0.387 OA
BRANCH  20  21
HETATM   21  C11 UNL     1      42.442  19.571   2.586  1.00  0.00     0.193 C 
BRANCH  21  22
HETATM   22  C12 UNL     1      41.041  19.039   2.677  1.00  0.00     0.193 C 
BRANCH  22  23
HETATM   23  O4  UNL     1      40.731  17.990   1.884  1.00  0.00    -0.387 OA
BRANCH  23  24
HETATM   24  C13 UNL     1      41.128  17.997   0.582  1.00  0.00     0.193 C 
BRANCH  24  25
HETATM   25  C14 UNL     1      40.016  18.257  -0.397  1.00  0.00     0.193 C 
BRANCH  25  26
HETATM   26  O5  UNL     1      39.548  19.541  -0.439  1.00  0.00    -0.389 OA
BRANCH  26  27
HETATM   27  C15 UNL     1      38.912  19.914  -1.609  1.00  0.00     0.170 C 
BRANCH  27  28
HETATM   28  C16 UNL     1      40.003  20.422  -2.539  1.00  0.00     0.058 C 
BRANCH  28  29
HETATM   29  C17 UNL     1      40.891  21.442  -1.834  1.00  0.00     0.125 C 
HETATM   30  C18 UNL     1      40.949  22.714  -2.631  1.00  0.00     0.058 C 
HETATM   31  C19 UNL     1      42.395  22.399  -2.643  1.00  0.00     0.170 C 
HETATM   32  O6  UNL     1      42.215  21.178  -2.046  1.00  0.00    -0.386 OA
ENDBRANCH  28  29
ENDBRANCH  27  28
ENDBRANCH  26  27
ENDBRANCH  25  26
ENDBRANCH  24  25
ENDBRANCH  23  24
ENDBRANCH  22  23
ENDBRANCH  21  22
ENDBRANCH  20  21
ENDBRANCH  19  20
ENDBRANCH  18  19
ENDBRANCH  17  18
ENDBRANCH   1  17
TORSDOF 18
ENDMDL
MODEL 3
REMARK VINA RESULT: -6.372339847      1.523      2.265
REMARK  18 active torsions:
REMARK  status: ('A' for Active; 'I' for Inactive)
REMARK    1  A    between atoms: C4_4  and  C5_5 
REMARK    2  A    between atoms: C5_5  and  C6_6 
REMARK    3  A    between atoms: C6_6  and  O1_7 
REMARK    4  A    between atoms: O1_7  and  C7_8 
REMARK    5  A    between atoms: C7_8  and  C8_9 
REMARK    6  A    between atoms: C8_9  and  O2_10 
REMARK    7  A    between atoms: O2_10  and  C9_11 
REMARK    8  A    between atoms: C9_11  and  C10_12 
REMARK    9  A    between atoms: C10_12  and  O3_13 
REMARK   10  A    between atoms: O3_13  and  C11_14 
REMARK   11  A    between atoms: C11_14  and  C12_15 
REMARK   12  A    between atoms: C12_15  and  O4_16 
REMARK   13  A    between atoms: O4_16  and  C13_17 
REMARK   14  A    between atoms: C13_17  and  C14_18 
REMARK   15  A    between atoms: C14_18  and  O5_19 
REMARK   16  A    between atoms: O5_19  and  C15_20 
REMARK   17  A    between atoms: C15_20  and  C16_21 
REMARK   18  A    between atoms: C16_21  and  C17_22 
ROOT
HETATM    1  C8  UNL     1      41.646  22.907   4.288  1.00  0.00     0.193 C 
ENDROOT
BRANCH   1   2
HETATM    2  C7  UNL     1      40.166  22.549   4.485  1.00  0.00     0.193 C 
BRANCH   2   3
HETATM    3  O1  UNL     1      39.454  22.834   3.345  1.00  0.00    -0.388 OA
BRANCH   3   4
HETATM    4  C6  UNL     1      39.597  24.117   2.894  1.00  0.00     0.182 C 
BRANCH   4   5
HETATM    5  C5  UNL     1      39.377  24.241   1.408  1.00  0.00     0.012 C 
HETATM    6  C20 UNL     1      39.193  22.838   0.882  1.00  0.00     0.043 C 
HETATM    7  C21 UNL     1      40.351  22.357   0.056  1.00  0.00     0.168 C 
HETATM    8  O7  UNL     1      41.512  22.693   0.791  1.00  0.00    -0.391 OA
HETATM    9  C22 UNL     1      41.727  24.035   0.488  1.00  0.00     0.168 C 
HETATM   10  C23 UNL     1      40.598  24.922   0.841  1.00  0.00     0.043 C 
BRANCH   5  11
HETATM   11  C4  UNL     1      38.164  24.986   1.031  1.00  0.00    -0.047 A 
HETATM   12  C3  UNL     1      37.918  25.156  -0.298  1.00  0.00     0.008 A 
HETATM   13  C2  UNL     1      36.792  25.848  -0.774  1.00  0.00     0.001 A 
HETATM   14  C1  UNL     1      35.889  26.382   0.150  1.00  0.00     0.000 A 
HETATM   15  C25 UNL     1      36.155  26.200   1.491  1.00  0.00     0.001 A 
HETATM   16  C24 UNL     1      37.273  25.514   1.922  1.00  0.00     0.008 A 
ENDBRANCH   5  11
ENDBRANCH   4   5
ENDBRANCH   3   4
ENDBRANCH   2   3
ENDBRANCH   1   2
BRANCH   1  17
HETATM   17  O2  UNL     1      42.447  21.825   4.540  1.00  0.00    -0.387 OA
BRANCH  17  18
HETATM   18  C9  UNL     1      42.900  21.134   3.446  1.00  0.00     0.193 C 
BRANCH  18  19
HETATM   19  C10 UNL     1      44.297  21.518   3.104  1.00  0.00     0.193 C 
BRANCH  19  20
HETATM   20  O3  UNL     1      44.400  22.472   2.110  1.00  0.00    -0.387 OA
BRANCH  20  21
HETATM   21  C11 UNL     1      45.175  22.150   1.040  1.00  0.00     0.193 C 
BRANCH  21  22
HETATM   22  C12 UNL     1      44.784  20.816   0.472  1.00  0.00     0.193 C 
BRANCH  22  23
HETATM   23  O4  UNL     1      43.771  20.804  -0.423  1.00  0.00    -0.387 OA
BRANCH  23  24
HETATM   24  C13 UNL     1      42.926  19.738  -0.460  1.00  0.00     0.193 C 
BRANCH  24  25
HETATM   25  C14 UNL     1      43.358  18.582   0.399  1.00  0.00     0.193 C 
BRANCH  25  26
HETATM   26  O5  UNL     1      42.511  18.248   1.419  1.00  0.00    -0.389 OA
BRANCH  26  27
HETATM   27  C15 UNL     1      41.254  18.824   1.376  1.00  0.00     0.170 C 
BRANCH  27  28
HETATM   28  C16 UNL     1      40.262  17.672   1.388  1.00  0.00     0.058 C 
BRANCH  28  29
HETATM   29  C17 UNL     1      39.658  17.455   0.005  1.00  0.00     0.125 C 
HETATM   30  C18 UNL     1      38.381  16.672   0.115  1.00  0.00     0.058 C 
HETATM   31  C19 UNL     1      39.123  15.729  -0.750  1.00  0.00     0.170 C 
HETATM   32  O6  UNL     1      40.292  16.442  -0.660  1.00  0.00    -0.386 OA
ENDBRANCH  28  29
ENDBRANCH  27  28
ENDBRANCH  26  27
ENDBRANCH  25  26
ENDBRANCH  24  25
ENDBRANCH  23  24
ENDBRANCH  22  23
ENDBRANCH  21  22
ENDBRANCH  20  21
ENDBRANCH  19  20
ENDBRANCH  18  19
ENDBRANCH  17  18
ENDBRANCH   1  17
TORSDOF 18
ENDMDL
MODEL 4
REMARK VINA RESULT: -6.352466091      2.827      6.833
REMARK  18 active torsions:
REMARK  status: ('A' for Active; 'I' for Inactive)
REMARK    1  A    between atoms: C4_4  and  C5_5 
REMARK    2  A    between atoms: C5_5  and  C6_6 
REMARK    3  A    between atoms: C6_6  and  O1_7 
REMARK    4  A    between atoms: O1_7  and  C7_8 
REMARK    5  A    between atoms: C7_8  and  C8_9 
REMARK    6  A    between atoms: C8_9  and  O2_10 
REMARK    7  A    between atoms: O2_10  and  C9_11 
REMARK    8  A    between atoms: C9_11  and  C10_12 
REMARK    9  A    between atoms: C10_12  and  O3_13 
REMARK   10  A    between atoms: O3_13  and  C11_14 
REMARK   11  A    between atoms: C11_14  and  C12_15 
REMARK   12  A    between atoms: C12_15  and  O4_16 
REMARK   13  A    between atoms: O4_16  and  C13_17 
REMARK   14  A    between atoms: C13_17  and  C14_18 
REMARK   15  A    between atoms: C14_18  and  O5_19 
REMARK   16  A    between atoms: O5_19  and  C15_20 
REMARK   17  A    between atoms: C15_20  and  C16_21 
REMARK   18  A    between atoms: C16_21  and  C17_22 
ROOT
HETATM    1  C8  UNL     1      41.759  18.633   1.027  1.00  0.00     0.193 C 
ENDROOT
BRANCH   1   2
HETATM    2  C7  UNL     1      41.398  18.424   2.504  1.00  0.00     0.193 C 
BRANCH   2   3
HETATM    3  O1  UNL     1      41.051  19.621   3.081  1.00  0.00    -0.388 OA
BRANCH   3   4
HETATM    4  C6  UNL     1      40.902  20.653   2.197  1.00  0.00     0.182 C 
BRANCH   4   5
HETATM    5  C5  UNL     1      41.406  21.966   2.742  1.00  0.00     0.012 C 
HETATM    6  C20 UNL     1      41.830  22.791   1.550  1.00  0.00     0.043 C 
HETATM    7  C21 UNL     1      43.318  22.958   1.443  1.00  0.00     0.168 C 
HETATM    8  O7  UNL     1      43.865  21.669   1.645  1.00  0.00    -0.391 OA
HETATM    9  C22 UNL     1      43.883  21.523   3.029  1.00  0.00     0.168 C 
HETATM   10  C23 UNL     1      42.553  21.643   3.666  1.00  0.00     0.043 C 
BRANCH   5  11
HETATM   11  C4  UNL     1      40.392  22.761   3.454  1.00  0.00    -0.047 A 
HETATM   12  C3  UNL     1      40.221  22.516   4.783  1.00  0.00     0.008 A 
HETATM   13  C2  UNL     1      39.286  23.213   5.564  1.00  0.00     0.001 A 
HETATM   14  C1  UNL     1      38.499  24.196   4.956  1.00  0.00     0.000 A 
HETATM   15  C25 UNL     1      38.686  24.430   3.610  1.00  0.00     0.001 A 
HETATM   16  C24 UNL     1      39.617  23.725   2.874  1.00  0.00     0.008 A 
ENDBRANCH   5  11
ENDBRANCH   4   5
ENDBRANCH   3   4
ENDBRANCH   2   3
ENDBRANCH   1   2
BRANCH   1  17
HETATM   17  O2  UNL     1      41.412  17.539   0.280  1.00  0.00    -0.387 OA
BRANCH  17  18
HETATM   18  C9  UNL     1      40.070  17.312   0.117  1.00  0.00     0.193 C 
BRANCH  18  19
HETATM   19  C10 UNL     1      39.433  18.393  -0.684  1.00  0.00     0.193 C 
BRANCH  19  20
HETATM   20  O3  UNL     1      38.166  18.092  -1.144  1.00  0.00    -0.387 OA
BRANCH  20  21
HETATM   21  C11 UNL     1      37.753  18.753  -2.258  1.00  0.00     0.193 C 
BRANCH  21  22
HETATM   22  C12 UNL     1      36.532  19.579  -1.974  1.00  0.00     0.193 C 
BRANCH  22  23
HETATM   23  O4  UNL     1      36.598  20.894  -2.276  1.00  0.00    -0.387 OA
BRANCH  23  24
HETATM   24  C13 UNL     1      37.682  21.617  -1.881  1.00  0.00     0.193 C 
BRANCH  24  25
HETATM   25  C14 UNL     1      37.359  23.017  -1.440  1.00  0.00     0.193 C 
BRANCH  25  26
HETATM   26  O5  UNL     1      36.028  23.313  -1.325  1.00  0.00    -0.389 OA
BRANCH  26  27
HETATM   27  C15 UNL     1      35.644  24.560  -1.783  1.00  0.00     0.170 C 
BRANCH  27  28
HETATM   28  C16 UNL     1      36.873  25.449  -1.669  1.00  0.00     0.058 C 
BRANCH  28  29
HETATM   29  C17 UNL     1      36.685  26.505  -0.585  1.00  0.00     0.125 C 
HETATM   30  C18 UNL     1      37.587  26.215   0.581  1.00  0.00     0.058 C 
HETATM   31  C19 UNL     1      36.296  26.150   1.301  1.00  0.00     0.170 C 
HETATM   32  O6  UNL     1      35.558  26.267   0.151  1.00  0.00    -0.386 OA
ENDBRANCH  28  29
ENDBRANCH  27  28
ENDBRANCH  26  27
ENDBRANCH  25  26
ENDBRANCH  24  25
ENDBRANCH  23  24
ENDBRANCH  22  23
ENDBRANCH  21  22
ENDBRANCH  20  21
ENDBRANCH  19  20
ENDBRANCH  18  19
ENDBRANCH  17  18
ENDBRANCH   1  17
TORSDOF 18
ENDMDL
MODEL 5
REMARK VINA RESULT: -6.344838394      2.740      4.864
REMARK  18 active torsions:
REMARK  status: ('A' for Active; 'I' for Inactive)
REMARK    1  A    between atoms: C4_4  and  C5_5 
REMARK    2  A    between atoms: C5_5  and  C6_6 
REMARK    3  A    between atoms: C6_6  and  O1_7 
REMARK    4  A    between atoms: O1_7  and  C7_8 
REMARK    5  A    between atoms: C7_8  and  C8_9 
REMARK    6  A    between atoms: C8_9  and  O2_10 
REMARK    7  A    between atoms: O2_10  and  C9_11 
REMARK    8  A    between atoms: C9_11  and  C10_12 
REMARK    9  A    between atoms: C10_12  and  O3_13 
REMARK   10  A    between atoms: O3_13  and  C11_14 
REMARK   11  A    between atoms: C11_14  and  C12_15 
REMARK   12  A    between atoms: C12_15  and  O4_16 
REMARK   13  A    between atoms: O4_16  and  C13_17 
REMARK   14  A    between atoms: C13_17  and  C14_18 
REMARK   15  A    between atoms: C14_18  and  O5_19 
REMARK   16  A    between atoms: O5_19  and  C15_20 
REMARK   17  A    between atoms: C15_20  and  C16_21 
REMARK   18  A    between atoms: C16_21  and  C17_22 
ROOT
HETATM    1  C8  UNL     1      42.981  22.744   0.902  1.00  0.00     0.193 C 
ENDROOT
BRANCH   1   2
HETATM    2  C7  UNL     1      42.505  24.191   1.092  1.00  0.00     0.193 C 
BRANCH   2   3
HETATM    3  O1  UNL     1      41.362  24.413   0.364  1.00  0.00    -0.388 OA
BRANCH   3   4
HETATM    4  C6  UNL     1      40.419  25.167   1.005  1.00  0.00     0.182 C 
BRANCH   4   5
HETATM    5  C5  UNL     1      39.214  24.364   1.423  1.00  0.00     0.012 C 
HETATM    6  C20 UNL     1      39.228  23.104   0.593  1.00  0.00     0.043 C 
HETATM    7  C21 UNL     1      38.141  23.062  -0.442  1.00  0.00     0.168 C 
HETATM    8  O7  UNL     1      38.163  24.329  -1.073  1.00  0.00    -0.391 OA
HETATM    9  C22 UNL     1      37.443  25.149  -0.208  1.00  0.00     0.168 C 
HETATM   10  C23 UNL     1      38.003  25.225   1.159  1.00  0.00     0.043 C 
BRANCH   5  11
HETATM   11  C4  UNL     1      39.227  23.932   2.830  1.00  0.00    -0.047 A 
HETATM   12  C3  UNL     1      39.946  22.818   3.139  1.00  0.00     0.008 A 
HETATM   13  C2  UNL     1      40.031  22.313   4.447  1.00  0.00     0.001 A 
HETATM   14  C1  UNL     1      39.353  22.980   5.472  1.00  0.00     0.000 A 
HETATM   15  C25 UNL     1      38.629  24.107   5.140  1.00  0.00     0.001 A 
HETATM   16  C24 UNL     1      38.569  24.573   3.842  1.00  0.00     0.008 A 
ENDBRANCH   5  11
ENDBRANCH   4   5
ENDBRANCH   3   4
ENDBRANCH   2   3
ENDBRANCH   1   2
BRANCH   1  17
HETATM   17  O2  UNL     1      44.202  22.549   1.493  1.00  0.00    -0.387 OA
BRANCH  17  18
HETATM   18  C9  UNL     1      44.376  21.361   2.155  1.00  0.00     0.193 C 
BRANCH  18  19
HETATM   19  C10 UNL     1      43.732  21.391   3.497  1.00  0.00     0.193 C 
BRANCH  19  20
HETATM   20  O3  UNL     1      42.856  20.350   3.733  1.00  0.00    -0.387 OA
BRANCH  20  21
HETATM   21  C11 UNL     1      42.520  19.586   2.660  1.00  0.00     0.193 C 
BRANCH  21  22
HETATM   22  C12 UNL     1      41.056  19.252   2.673  1.00  0.00     0.193 C 
BRANCH  22  23
HETATM   23  O4  UNL     1      40.692  18.075   2.116  1.00  0.00    -0.387 OA
BRANCH  23  24
HETATM   24  C13 UNL     1      41.063  17.798   0.836  1.00  0.00     0.193 C 
BRANCH  24  25
HETATM   25  C14 UNL     1      39.913  17.527  -0.092  1.00  0.00     0.193 C 
BRANCH  25  26
HETATM   26  O5  UNL     1      38.866  16.828   0.445  1.00  0.00    -0.389 OA
BRANCH  26  27
HETATM   27  C15 UNL     1      37.674  16.892  -0.253  1.00  0.00     0.170 C 
BRANCH  27  28
HETATM   28  C16 UNL     1      37.881  17.928  -1.347  1.00  0.00     0.058 C 
BRANCH  28  29
HETATM   29  C17 UNL     1      36.576  18.650  -1.669  1.00  0.00     0.125 C 
HETATM   30  C18 UNL     1      36.229  18.466  -3.119  1.00  0.00     0.058 C 
HETATM   31  C19 UNL     1      36.314  19.943  -3.116  1.00  0.00     0.170 C 
HETATM   32  O6  UNL     1      36.778  19.993  -1.826  1.00  0.00    -0.386 OA
ENDBRANCH  28  29
ENDBRANCH  27  28
ENDBRANCH  26  27
ENDBRANCH  25  26
ENDBRANCH  24  25
ENDBRANCH  23  24
ENDBRANCH  22  23
ENDBRANCH  21  22
ENDBRANCH  20  21
ENDBRANCH  19  20
ENDBRANCH  18  19
ENDBRANCH  17  18
ENDBRANCH   1  17
TORSDOF 18
ENDMDL
