MODEL 1
REMARK VINA RESULT: -6.081909370      0.000      0.000
REMARK  18 active torsions:
REMARK  status: ('A' for Active; 'I' for Inactive)
REMARK    1  A    between atoms: C3_3  and  O1_4 
REMARK    2  A    between atoms: O1_4  and  C4_5 
REMARK    3  A    between atoms: C4_5  and  C5_6 
REMARK    4  A    between atoms: C5_6  and  O2_7 
REMARK    5  A    between atoms: O2_7  and  C6_8 
REMARK    6  A    between atoms: C6_8  and  C7_9 
REMARK    7  A    between atoms: C7_9  and  O3_10 
REMARK    8  A    between atoms: O3_10  and  C8_11 
REMARK    9  A    between atoms: C8_11  and  C9_12 
REMARK   10  A    between atoms: C9_12  and  O4_13 
REMARK   11  A    between atoms: O4_13  and  C10_14 
REMARK   12  A    between atoms: C10_14  and  C11_15 
REMARK   13  A    between atoms: C11_15  and  N1_16 
REMARK   14  A    between atoms: N1_16  and  C13_18 
REMARK   15  A    between atoms: C13_18  and  C14_19 
REMARK   16  A    between atoms: C18_23  and  C19_24 
REMARK   17  A    between atoms: C19_24  and  O5_25 
REMARK   18  A    between atoms: O5_25  and  C20_26 
ROOT
HETATM    1  N1  UNL     1      38.993  22.993  -1.723  1.00  0.00     0.088 N 
HETATM    2  C12 UNL     1      40.225  23.028  -2.471  1.00  0.00     0.310 C 
ENDROOT
BRANCH   1   3
HETATM    3  C11 UNL     1      38.520  21.649  -1.488  1.00  0.00     0.298 C 
BRANCH   3   4
HETATM    4  C10 UNL     1      39.557  20.864  -0.715  1.00  0.00     0.198 C 
BRANCH   4   5
HETATM    5  O4  UNL     1      39.197  19.539  -0.709  1.00  0.00    -0.387 OA
BRANCH   5   6
HETATM    6  C9  UNL     1      40.192  18.658  -0.397  1.00  0.00     0.193 C 
BRANCH   6   7
HETATM    7  C8  UNL     1      40.495  18.535   1.080  1.00  0.00     0.193 C 
BRANCH   7   8
HETATM    8  O3  UNL     1      41.723  19.105   1.327  1.00  0.00    -0.387 OA
BRANCH   8   9
HETATM    9  C7  UNL     1      42.778  18.593   0.636  1.00  0.00     0.193 C 
BRANCH   9  10
HETATM   10  C6  UNL     1      43.679  19.529  -0.081  1.00  0.00     0.193 C 
BRANCH  10  11
HETATM   11  O2  UNL     1      43.142  20.521  -0.817  1.00  0.00    -0.387 OA
BRANCH  11  12
HETATM   12  C5  UNL     1      43.585  21.801  -0.658  1.00  0.00     0.194 C 
BRANCH  12  13
HETATM   13  C4  UNL     1      42.659  22.531   0.317  1.00  0.00     0.200 C 
BRANCH  13  14
HETATM   14  O1  UNL     1      43.381  22.980   1.421  1.00  0.00    -0.361 OA
BRANCH  14  15
HETATM   15  C3  UNL     1      44.678  22.567   1.644  1.00  0.00     0.130 C 
HETATM   16  C2  UNL     1      44.947  21.792   2.671  1.00  0.00    -0.007 C 
HETATM   17  C1  UNL     1      43.849  21.371   3.578  1.00  0.00     0.038 C 
ENDBRANCH  14  15
ENDBRANCH  13  14
ENDBRANCH  12  13
ENDBRANCH  11  12
ENDBRANCH  10  11
ENDBRANCH   9  10
ENDBRANCH   8   9
ENDBRANCH   7   8
ENDBRANCH   6   7
ENDBRANCH   5   6
ENDBRANCH   4   5
ENDBRANCH   3   4
ENDBRANCH   1   3
BRANCH   1  18
HETATM   18  C13 UNL     1      37.976  23.850  -2.285  1.00  0.00     0.303 C 
BRANCH  18  19
HETATM   19  C14 UNL     1      37.260  24.517  -1.127  1.00  0.00     0.150 C 
HETATM   20  C15 UNL     1      36.720  25.833  -1.707  1.00  0.00     0.034 C 
HETATM   21  C16 UNL     1      35.801  26.453  -0.695  1.00  0.00     0.005 C 
HETATM   22  C17 UNL     1      36.455  26.278   0.660  1.00  0.00     0.034 C 
HETATM   23  C18 UNL     1      37.953  26.097   0.421  1.00  0.00     0.146 C 
HETATM   24  O6  UNL     1      38.174  24.850  -0.129  1.00  0.00    -0.377 OA
BRANCH  23  25
HETATM   25  C19 UNL     1      38.600  26.163   1.792  1.00  0.00     0.207 C 
BRANCH  25  26
HETATM   26  O5  UNL     1      37.959  25.203   2.640  1.00  0.00    -0.349 OA
BRANCH  26  27
HETATM   27  C20 UNL     1      38.735  24.199   3.253  1.00  0.00     0.068 A 
HETATM   28  C21 UNL     1      39.429  23.282   2.496  1.00  0.00     0.037 A 
HETATM   29  C22 UNL     1      40.207  22.276   3.060  1.00  0.00     0.003 A 
HETATM   30  C23 UNL     1      40.296  22.182   4.433  1.00  0.00     0.000 A 
HETATM   31  C24 UNL     1      39.604  23.097   5.195  1.00  0.00     0.003 A 
HETATM   32  C25 UNL     1      38.826  24.103   4.623  1.00  0.00     0.037 A 
ENDBRANCH  26  27
ENDBRANCH  25  26
ENDBRANCH  23  25
ENDBRANCH  18  19
ENDBRANCH   1  18
TORSDOF 18
ENDMDL
MODEL 2
REMARK VINA RESULT: -6.036353928      1.079      1.894
REMARK  18 active torsions:
REMARK  status: ('A' for Active; 'I' for Inactive)
REMARK    1  A    between atoms: C3_3  and  O1_4 
REMARK    2  A    between atoms: O1_4  and  C4_5 
REMARK    3  A    between atoms: C4_5  and  C5_6 
REMARK    4  A    between atoms: C5_6  and  O2_7 
REMARK    5  A    between atoms: O2_7  and  C6_8 
REMARK    6  A    between atoms: C6_8  and  C7_9 
REMARK    7  A    between atoms: C7_9  and  O3_10 
REMARK    8  A    between atoms: O3_10  and  C8_11 
REMARK    9  A    between atoms: C8_11  and  C9_12 
REMARK   10  A    between atoms: C9_12  and  O4_13 
REMARK   11  A    between atoms: O4_13  and  C10_14 
REMARK   12  A    between atoms: C10_14  and  C11_15 
REMARK   13  A    between atoms: C11_15  and  N1_16 
REMARK   14  A    between atoms: N1_16  and  C13_18 
REMARK   15  A    between atoms: C13_18  and  C14_19 
REMARK   16  A    between atoms: C18_23  and  C19_24 
REMARK   17  A    between atoms: C19_24  and  O5_25 
REMARK   18  A    between atoms: O5_25  and  C20_26 
ROOT
HETATM    1  N1  UNL     1      38.291  22.611  -2.772  1.00  0.00     0.088 N 
HETATM    2  C12 UNL     1      37.154  22.064  -2.073  1.00  0.00     0.310 C 
ENDROOT
BRANCH   1   3
HETATM    3  C11 UNL     1      39.531  21.962  -2.415  1.00  0.00     0.298 C 
BRANCH   3   4
HETATM    4  C10 UNL     1      39.432  21.388  -1.019  1.00  0.00     0.198 C 
BRANCH   4   5
HETATM    5  O4  UNL     1      40.002  20.140  -1.011  1.00  0.00    -0.387 OA
BRANCH   5   6
HETATM    6  C9  UNL     1      39.162  19.108  -0.709  1.00  0.00     0.193 C 
BRANCH   6   7
HETATM    7  C8  UNL     1      39.819  17.926  -0.030  1.00  0.00     0.193 C 
BRANCH   7   8
HETATM    8  O3  UNL     1      40.957  18.362   0.610  1.00  0.00    -0.387 OA
BRANCH   8   9
HETATM    9  C7  UNL     1      40.875  18.507   1.960  1.00  0.00     0.193 C 
BRANCH   9  10
HETATM   10  C6  UNL     1      42.127  18.715   2.729  1.00  0.00     0.193 C 
BRANCH  10  11
HETATM   11  O2  UNL     1      42.301  19.870   3.399  1.00  0.00    -0.387 OA
BRANCH  11  12
HETATM   12  C5  UNL     1      43.537  20.204   3.866  1.00  0.00     0.194 C 
BRANCH  12  13
HETATM   13  C4  UNL     1      43.727  21.717   3.737  1.00  0.00     0.200 C 
BRANCH  13  14
HETATM   14  O1  UNL     1      43.736  22.087   2.393  1.00  0.00    -0.361 OA
BRANCH  14  15
HETATM   15  C3  UNL     1      44.891  22.022   1.641  1.00  0.00     0.130 C 
HETATM   16  C2  UNL     1      44.888  21.365   0.503  1.00  0.00    -0.007 C 
HETATM   17  C1  UNL     1      43.642  20.703   0.041  1.00  0.00     0.038 C 
ENDBRANCH  14  15
ENDBRANCH  13  14
ENDBRANCH  12  13
ENDBRANCH  11  12
ENDBRANCH  10  11
ENDBRANCH   9  10
ENDBRANCH   8   9
ENDBRANCH   7   8
ENDBRANCH   6   7
ENDBRANCH   5   6
ENDBRANCH   4   5
ENDBRANCH   3   4
ENDBRANCH   1   3
BRANCH   1  18
HETATM   18  C13 UNL     1      38.366  24.049  -2.672  1.00  0.00     0.303 C 
BRANCH  18  19
HETATM   19  C14 UNL     1      37.506  24.463  -1.494  1.00  0.00     0.150 C 
HETATM   20  C15 UNL     1      36.676  25.647  -2.014  1.00  0.00     0.034 C 
HETATM   21  C16 UNL     1      35.631  25.976  -0.988  1.00  0.00     0.005 C 
HETATM   22  C17 UNL     1      36.298  25.883   0.368  1.00  0.00     0.034 C 
HETATM   23  C18 UNL     1      37.798  26.071   0.150  1.00  0.00     0.146 C 
HETATM   24  O6  UNL     1      38.309  24.944  -0.462  1.00  0.00    -0.377 OA
BRANCH  23  25
HETATM   25  C19 UNL     1      38.403  26.209   1.534  1.00  0.00     0.207 C 
BRANCH  25  26
HETATM   26  O5  UNL     1      37.779  25.250   2.396  1.00  0.00    -0.349 OA
BRANCH  26  27
HETATM   27  C20 UNL     1      38.579  24.293   3.054  1.00  0.00     0.068 A 
HETATM   28  C21 UNL     1      39.255  23.328   2.343  1.00  0.00     0.037 A 
HETATM   29  C22 UNL     1      40.055  22.366   2.952  1.00  0.00     0.003 A 
HETATM   30  C23 UNL     1      40.185  22.369   4.325  1.00  0.00     0.000 A 
HETATM   31  C24 UNL     1      39.511  23.333   5.042  1.00  0.00     0.003 A 
HETATM   32  C25 UNL     1      38.711  24.294   4.424  1.00  0.00     0.037 A 
ENDBRANCH  26  27
ENDBRANCH  25  26
ENDBRANCH  23  25
ENDBRANCH  18  19
ENDBRANCH   1  18
TORSDOF 18
ENDMDL
MODEL 3
REMARK VINA RESULT: -6.025829730      1.540      2.665
REMARK  18 active torsions:
REMARK  status: ('A' for Active; 'I' for Inactive)
REMARK    1  A    between atoms: C3_3  and  O1_4 
REMARK    2  A    between atoms: O1_4  and  C4_5 
REMARK    3  A    between atoms: C4_5  and  C5_6 
REMARK    4  A    between atoms: C5_6  and  O2_7 
REMARK    5  A    between atoms: O2_7  and  C6_8 
REMARK    6  A    between atoms: C6_8  and  C7_9 
REMARK    7  A    between atoms: C7_9  and  O3_10 
REMARK    8  A    between atoms: O3_10  and  C8_11 
REMARK    9  A    between atoms: C8_11  and  C9_12 
REMARK   10  A    between atoms: C9_12  and  O4_13 
REMARK   11  A    between atoms: O4_13  and  C10_14 
REMARK   12  A    between atoms: C10_14  and  C11_15 
REMARK   13  A    between atoms: C11_15  and  N1_16 
REMARK   14  A    between atoms: N1_16  and  C13_18 
REMARK   15  A    between atoms: C13_18  and  C14_19 
REMARK   16  A    between atoms: C18_23  and  C19_24 
REMARK   17  A    between atoms: C19_24  and  O5_25 
REMARK   18  A    between atoms: O5_25  and  C20_26 
ROOT
HETATM    1  N1  UNL     1      38.733  22.974  -1.872  1.00  0.00     0.088 N 
HETATM    2  C12 UNL     1      39.919  22.980  -2.692  1.00  0.00     0.310 C 
ENDROOT
BRANCH   1   3
HETATM    3  C11 UNL     1      38.275  21.639  -1.563  1.00  0.00     0.298 C 
BRANCH   3   4
HETATM    4  C10 UNL     1      37.384  21.128  -2.673  1.00  0.00     0.198 C 
BRANCH   4   5
HETATM    5  O4  UNL     1      36.538  20.176  -2.160  1.00  0.00    -0.387 OA
BRANCH   5   6
HETATM    6  C9  UNL     1      36.804  18.889  -2.528  1.00  0.00     0.193 C 
BRANCH   6   7
HETATM    7  C8  UNL     1      36.803  17.886  -1.395  1.00  0.00     0.193 C 
BRANCH   7   8
HETATM    8  O3  UNL     1      37.947  18.061  -0.651  1.00  0.00    -0.387 OA
BRANCH   8   9
HETATM    9  C7  UNL     1      39.120  17.731  -1.257  1.00  0.00     0.193 C 
BRANCH   9  10
HETATM   10  C6  UNL     1      40.269  17.328  -0.407  1.00  0.00     0.193 C 
BRANCH  10  11
HETATM   11  O2  UNL     1      40.212  17.547   0.920  1.00  0.00    -0.387 OA
BRANCH  11  12
HETATM   12  C5  UNL     1      40.633  18.738   1.431  1.00  0.00     0.194 C 
BRANCH  12  13
HETATM   13  C4  UNL     1      41.256  18.498   2.808  1.00  0.00     0.200 C 
BRANCH  13  14
HETATM   14  O1  UNL     1      42.325  19.368   3.010  1.00  0.00    -0.361 OA
BRANCH  14  15
HETATM   15  C3  UNL     1      42.910  20.040   1.957  1.00  0.00     0.130 C 
HETATM   16  C2  UNL     1      43.659  21.093   2.194  1.00  0.00    -0.007 C 
HETATM   17  C1  UNL     1      43.868  21.545   3.594  1.00  0.00     0.038 C 
ENDBRANCH  14  15
ENDBRANCH  13  14
ENDBRANCH  12  13
ENDBRANCH  11  12
ENDBRANCH  10  11
ENDBRANCH   9  10
ENDBRANCH   8   9
ENDBRANCH   7   8
ENDBRANCH   6   7
ENDBRANCH   5   6
ENDBRANCH   4   5
ENDBRANCH   3   4
ENDBRANCH   1   3
BRANCH   1  18
HETATM   18  C13 UNL     1      37.685  23.813  -2.403  1.00  0.00     0.303 C 
BRANCH  18  19
HETATM   19  C14 UNL     1      37.033  24.515  -1.229  1.00  0.00     0.150 C 
HETATM   20  C15 UNL     1      36.499  25.833  -1.810  1.00  0.00     0.034 C 
HETATM   21  C16 UNL     1      35.637  26.491  -0.771  1.00  0.00     0.005 C 
HETATM   22  C17 UNL     1      36.342  26.324   0.559  1.00  0.00     0.034 C 
HETATM   23  C18 UNL     1      37.824  26.104   0.262  1.00  0.00     0.146 C 
HETATM   24  O6  UNL     1      37.994  24.843  -0.275  1.00  0.00    -0.377 OA
BRANCH  23  25
HETATM   25  C19 UNL     1      38.529  26.178   1.603  1.00  0.00     0.207 C 
BRANCH  25  26
HETATM   26  O5  UNL     1      37.909  25.240   2.491  1.00  0.00    -0.349 OA
BRANCH  26  27
HETATM   27  C20 UNL     1      38.693  24.230   3.082  1.00  0.00     0.068 A 
HETATM   28  C21 UNL     1      38.856  24.169   4.448  1.00  0.00     0.037 A 
HETATM   29  C22 UNL     1      39.620  23.188   5.072  1.00  0.00     0.003 A 
HETATM   30  C23 UNL     1      40.246  22.230   4.302  1.00  0.00     0.000 A 
HETATM   31  C24 UNL     1      40.087  22.286   2.935  1.00  0.00     0.003 A 
HETATM   32  C25 UNL     1      39.319  23.272   2.316  1.00  0.00     0.037 A 
ENDBRANCH  26  27
ENDBRANCH  25  26
ENDBRANCH  23  25
ENDBRANCH  18  19
ENDBRANCH   1  18
TORSDOF 18
ENDMDL
MODEL 4
REMARK VINA RESULT: -6.013939448      2.129      6.678
REMARK  18 active torsions:
REMARK  status: ('A' for Active; 'I' for Inactive)
REMARK    1  A    between atoms: C3_3  and  O1_4 
REMARK    2  A    between atoms: O1_4  and  C4_5 
REMARK    3  A    between atoms: C4_5  and  C5_6 
REMARK    4  A    between atoms: C5_6  and  O2_7 
REMARK    5  A    between atoms: O2_7  and  C6_8 
REMARK    6  A    between atoms: C6_8  and  C7_9 
REMARK    7  A    between atoms: C7_9  and  O3_10 
REMARK    8  A    between atoms: O3_10  and  C8_11 
REMARK    9  A    between atoms: C8_11  and  C9_12 
REMARK   10  A    between atoms: C9_12  and  O4_13 
REMARK   11  A    between atoms: O4_13  and  C10_14 
REMARK   12  A    between atoms: C10_14  and  C11_15 
REMARK   13  A    between atoms: C11_15  and  N1_16 
REMARK   14  A    between atoms: N1_16  and  C13_18 
REMARK   15  A    between atoms: C13_18  and  C14_19 
REMARK   16  A    between atoms: C18_23  and  C19_24 
REMARK   17  A    between atoms: C19_24  and  O5_25 
REMARK   18  A    between atoms: O5_25  and  C20_26 
ROOT
HETATM    1  N1  UNL     1      38.411  24.994   0.854  1.00  0.00     0.088 N 
HETATM    2  C12 UNL     1      38.808  24.225  -0.300  1.00  0.00     0.310 C 
ENDROOT
BRANCH   1   3
HETATM    3  C11 UNL     1      37.715  26.210   0.502  1.00  0.00     0.298 C 
BRANCH   3   4
HETATM    4  C10 UNL     1      36.333  26.211   1.118  1.00  0.00     0.198 C 
BRANCH   4   5
HETATM    5  O4  UNL     1      35.419  26.559   0.155  1.00  0.00    -0.387 OA
BRANCH   5   6
HETATM    6  C9  UNL     1      35.803  26.331  -1.135  1.00  0.00     0.193 C 
BRANCH   6   7
HETATM    7  C8  UNL     1      34.965  25.315  -1.880  1.00  0.00     0.193 C 
BRANCH   7   8
HETATM    8  O3  UNL     1      35.549  24.077  -1.744  1.00  0.00    -0.387 OA
BRANCH   8   9
HETATM    9  C7  UNL     1      35.746  23.370  -2.890  1.00  0.00     0.193 C 
BRANCH   9  10
HETATM   10  C6  UNL     1      36.815  22.341  -2.916  1.00  0.00     0.193 C 
BRANCH  10  11
HETATM   11  O2  UNL     1      36.948  21.507  -1.867  1.00  0.00    -0.387 OA
BRANCH  11  12
HETATM   12  C5  UNL     1      37.586  20.314  -2.024  1.00  0.00     0.194 C 
BRANCH  12  13
HETATM   13  C4  UNL     1      36.553  19.185  -1.979  1.00  0.00     0.200 C 
BRANCH  13  14
HETATM   14  O1  UNL     1      37.006  18.152  -1.160  1.00  0.00    -0.361 OA
BRANCH  14  15
HETATM   15  C3  UNL     1      38.348  17.996  -0.882  1.00  0.00     0.130 C 
HETATM   16  C2  UNL     1      38.752  16.949  -0.198  1.00  0.00    -0.007 C 
HETATM   17  C1  UNL     1      37.757  15.948   0.266  1.00  0.00     0.038 C 
ENDBRANCH  14  15
ENDBRANCH  13  14
ENDBRANCH  12  13
ENDBRANCH  11  12
ENDBRANCH  10  11
ENDBRANCH   9  10
ENDBRANCH   8   9
ENDBRANCH   7   8
ENDBRANCH   6   7
ENDBRANCH   5   6
ENDBRANCH   4   5
ENDBRANCH   3   4
ENDBRANCH   1   3
BRANCH   1  18
HETATM   18  C13 UNL     1      39.501  25.222   1.773  1.00  0.00     0.303 C 
BRANCH  18  19
HETATM   19  C14 UNL     1      39.488  24.086   2.776  1.00  0.00     0.150 C 
HETATM   20  C15 UNL     1      39.158  24.755   4.119  1.00  0.00     0.034 C 
HETATM   21  C16 UNL     1      38.898  23.677   5.131  1.00  0.00     0.005 C 
HETATM   22  C17 UNL     1      39.936  22.598   4.904  1.00  0.00     0.034 C 
HETATM   23  C18 UNL     1      41.121  23.250   4.193  1.00  0.00     0.146 C 
HETATM   24  O6  UNL     1      40.763  23.536   2.891  1.00  0.00    -0.377 OA
BRANCH  23  25
HETATM   25  C19 UNL     1      42.226  22.211   4.195  1.00  0.00     0.207 C 
BRANCH  25  26
HETATM   26  O5  UNL     1      42.585  21.933   2.836  1.00  0.00    -0.349 OA
BRANCH  26  27
HETATM   27  C20 UNL     1      42.340  20.649   2.308  1.00  0.00     0.068 A 
HETATM   28  C21 UNL     1      41.259  19.908   2.727  1.00  0.00     0.037 A 
HETATM   29  C22 UNL     1      40.980  18.638   2.231  1.00  0.00     0.003 A 
HETATM   30  C23 UNL     1      41.814  18.087   1.281  1.00  0.00     0.000 A 
HETATM   31  C24 UNL     1      42.899  18.824   0.859  1.00  0.00     0.003 A 
HETATM   32  C25 UNL     1      43.172  20.097   1.360  1.00  0.00     0.037 A 
ENDBRANCH  26  27
ENDBRANCH  25  26
ENDBRANCH  23  25
ENDBRANCH  18  19
ENDBRANCH   1  18
TORSDOF 18
ENDMDL
MODEL 5
REMARK VINA RESULT: -5.991869061      1.788      5.569
REMARK  18 active torsions:
REMARK  status: ('A' for Active; 'I' for Inactive)
REMARK    1  A    between atoms: C3_3  and  O1_4 
REMARK    2  A    between atoms: O1_4  and  C4_5 
REMARK    3  A    between atoms: C4_5  and  C5_6 
REMARK    4  A    between atoms: C5_6  and  O2_7 
REMARK    5  A    between atoms: O2_7  and  C6_8 
REMARK    6  A    between atoms: C6_8  and  C7_9 
REMARK    7  A    between atoms: C7_9  and  O3_10 
REMARK    8  A    between atoms: O3_10  and  C8_11 
REMARK    9  A    between atoms: C8_11  and  C9_12 
REMARK   10  A    between atoms: C9_12  and  O4_13 
REMARK   11  A    between atoms: O4_13  and  C10_14 
REMARK   12  A    between atoms: C10_14  and  C11_15 
REMARK   13  A    between atoms: C11_15  and  N1_16 
REMARK   14  A    between atoms: N1_16  and  C13_18 
REMARK   15  A    between atoms: C13_18  and  C14_19 
REMARK   16  A    between atoms: C18_23  and  C19_24 
REMARK   17  A    between atoms: C19_24  and  O5_25 
REMARK   18  A    between atoms: O5_25  and  C20_26 
ROOT
HETATM    1  N1  UNL     1      42.052  22.908   0.254  1.00  0.00     0.088 N 
HETATM    2  C12 UNL     1      42.656  21.892  -0.571  1.00  0.00     0.310 C 
ENDROOT
BRANCH   1   3
HETATM    3  C11 UNL     1      42.941  23.390   1.286  1.00  0.00     0.298 C 
BRANCH   3   4
HETATM    4  C10 UNL     1      44.272  22.678   1.196  1.00  0.00     0.198 C 
BRANCH   4   5
HETATM    5  O4  UNL     1      44.670  22.320   2.460  1.00  0.00    -0.387 OA
BRANCH   5   6
HETATM    6  C9  UNL     1      44.281  21.078   2.872  1.00  0.00     0.193 C 
BRANCH   6   7
HETATM    7  C8  UNL     1      43.288  21.065   4.013  1.00  0.00     0.193 C 
BRANCH   7   8
HETATM    8  O3  UNL     1      42.096  20.553   3.554  1.00  0.00    -0.387 OA
BRANCH   8   9
HETATM    9  C7  UNL     1      42.179  19.563   2.625  1.00  0.00     0.193 C 
BRANCH   9  10
HETATM   10  C6  UNL     1      41.084  18.564   2.552  1.00  0.00     0.193 C 
BRANCH  10  11
HETATM   11  O2  UNL     1      40.826  17.958   1.377  1.00  0.00    -0.387 OA
BRANCH  11  12
HETATM   12  C5  UNL     1      41.238  18.533   0.212  1.00  0.00     0.194 C 
BRANCH  12  13
HETATM   13  C4  UNL     1      40.024  19.127  -0.507  1.00  0.00     0.200 C 
BRANCH  13  14
HETATM   14  O1  UNL     1      39.268  18.112  -1.092  1.00  0.00    -0.361 OA
BRANCH  14  15
HETATM   15  C3  UNL     1      37.890  18.116  -1.023  1.00  0.00     0.130 C 
HETATM   16  C2  UNL     1      37.268  17.143  -0.397  1.00  0.00    -0.007 C 
HETATM   17  C1  UNL     1      38.057  16.053   0.232  1.00  0.00     0.038 C 
ENDBRANCH  14  15
ENDBRANCH  13  14
ENDBRANCH  12  13
ENDBRANCH  11  12
ENDBRANCH  10  11
ENDBRANCH   9  10
ENDBRANCH   8   9
ENDBRANCH   7   8
ENDBRANCH   6   7
ENDBRANCH   5   6
ENDBRANCH   4   5
ENDBRANCH   3   4
ENDBRANCH   1   3
BRANCH   1  18
HETATM   18  C13 UNL     1      40.763  22.513   0.771  1.00  0.00     0.303 C 
BRANCH  18  19
HETATM   19  C14 UNL     1      40.340  23.565   1.776  1.00  0.00     0.150 C 
HETATM   20  C15 UNL     1      39.595  22.783   2.870  1.00  0.00     0.034 C 
HETATM   21  C16 UNL     1      39.339  23.711   4.021  1.00  0.00     0.005 C 
HETATM   22  C17 UNL     1      38.916  25.040   3.432  1.00  0.00     0.034 C 
HETATM   23  C18 UNL     1      38.372  24.763   2.032  1.00  0.00     0.146 C 
HETATM   24  O6  UNL     1      39.422  24.438   1.197  1.00  0.00    -0.377 OA
BRANCH  23  25
HETATM   25  C19 UNL     1      37.745  26.064   1.569  1.00  0.00     0.207 C 
BRANCH  25  26
HETATM   26  O5  UNL     1      37.937  26.179   0.153  1.00  0.00    -0.349 OA
BRANCH  26  27
HETATM   27  C20 UNL     1      36.966  25.648  -0.718  1.00  0.00     0.068 A 
HETATM   28  C21 UNL     1      37.199  25.568  -2.073  1.00  0.00     0.037 A 
HETATM   29  C22 UNL     1      36.267  25.050  -2.967  1.00  0.00     0.003 A 
HETATM   30  C23 UNL     1      35.056  24.595  -2.491  1.00  0.00     0.000 A 
HETATM   31  C24 UNL     1      34.817  24.672  -1.137  1.00  0.00     0.003 A 
HETATM   32  C25 UNL     1      35.756  25.192  -0.245  1.00  0.00     0.037 A 
ENDBRANCH  26  27
ENDBRANCH  25  26
ENDBRANCH  23  25
ENDBRANCH  18  19
ENDBRANCH   1  18
TORSDOF 18
ENDMDL
