MODEL 1
REMARK VINA RESULT: -8.000218481      0.000      0.000
REMARK  10 active torsions:
REMARK  status: ('A' for Active; 'I' for Inactive)
REMARK    1  A    between atoms: O1_2  and  C2_3 
REMARK    2  A    between atoms: C2_3  and  C3_4 
REMARK    3  A    between atoms: C3_4  and  N1_5 
REMARK    4  A    between atoms: C5_11  and  N4_12 
REMARK    5  A    between atoms: C6_17  and  C7_18 
REMARK    6  A    between atoms: C7_18  and  C8_19 
REMARK    7  A    between atoms: C8_19  and  N6_20 
REMARK    8  A    between atoms: N6_20  and  C9_22 
REMARK    9  A    between atoms: C10_25  and  N8_26 
REMARK   10  A    between atoms: C13_31  and  O2_32 
ROOT
HETATM    1  N1  UNL     1      34.391  44.071  39.904  1.00  0.00    -0.258 N 
HETATM    2  N2  UNL     1      35.261  44.263  38.944  1.00  0.00    -0.238 N 
ATOM      3  H2  UNL     1      35.220  45.037  38.280  1.00  0.00     0.208 HD
HETATM    4  N3  UNL     1      36.196  43.334  38.941  1.00  0.00    -0.279 N 
ATOM      5  H3  UNL     1      36.978  43.271  38.290  1.00  0.00     0.189 HD
HETATM    6  C4  UNL     1      35.937  42.488  39.943  1.00  0.00     0.139 A 
HETATM    7  C5  UNL     1      36.491  41.345  40.479  1.00  0.00     0.132 A 
HETATM    8  N5  UNL     1      35.918  40.755  41.532  1.00  0.00    -0.330 N 
ATOM      9  H5  UNL     1      36.348  39.911  41.910  1.00  0.00     0.168 HD
HETATM   10  C6  UNL     1      34.801  41.222  42.119  1.00  0.00     0.085 A 
HETATM   11  N11 UNL     1      34.237  42.335  41.620  1.00  0.00    -0.329 N 
ATOM     12  H11 UNL     1      33.390  42.710  42.046  1.00  0.00     0.168 HD
HETATM   13  C14 UNL     1      34.789  42.960  40.552  1.00  0.00     0.157 A 
ENDROOT
BRANCH  10  14
HETATM   14  C7  UNL     1      34.234  40.490  43.297  1.00  0.00     0.097 C 
BRANCH  14  15
HETATM   15  C8  UNL     1      35.011  39.235  43.570  1.00  0.00     0.145 C 
BRANCH  15  16
HETATM   16  N6  UNL     1      35.476  39.282  44.935  1.00  0.00    -0.225 N 
ATOM     17  H6  UNL     1      36.261  39.897  45.153  1.00  0.00     0.177 HD
BRANCH  16  18
HETATM   18  C9  UNL     1      34.964  38.599  45.891  1.00  0.00     0.695 A 
HETATM   19  N7  UNL     1      33.844  37.887  45.674  1.00  0.00    -0.022 N 
HETATM   20  C10 UNL     1      33.261  37.152  46.639  1.00  0.00     0.697 A 
ATOM     21  H7  UNL     1      33.421  37.906  44.747  1.00  0.00     0.203 HD
HETATM   22  N9  UNL     1      33.849  37.153  47.843  1.00  0.00    -0.154 N 
HETATM   23  C13 UNL     1      34.966  37.846  48.110  1.00  0.00     0.250 A 
ATOM     24  H9  UNL     1      33.427  36.602  48.591  1.00  0.00     0.188 HD
HETATM   25  N10 UNL     1      35.525  38.579  47.104  1.00  0.00    -0.154 N 
ATOM     26  H10 UNL     1      36.375  39.115  47.278  1.00  0.00     0.188 HD
BRANCH  20  27
HETATM   27  N8  UNL     1      32.080  36.407  46.400  1.00  0.00    -0.226 N 
HETATM   28  C11 UNL     1      30.781  36.997  46.645  1.00  0.00     0.168 C 
HETATM   29  C12 UNL     1      32.188  35.048  45.906  1.00  0.00     0.168 C 
ENDBRANCH  20  27
BRANCH  23  30
HETATM   30  O2  UNL     1      35.561  37.833  49.371  1.00  0.00    -0.332 OA
ATOM     31  H2  UNL     1      35.114  38.159  50.144  1.00  0.00     0.221 HD
ENDBRANCH  23  30
ENDBRANCH  16  18
ENDBRANCH  15  16
ENDBRANCH  14  15
ENDBRANCH  10  14
BRANCH   7  32
HETATM   32  N4  UNL     1      37.570  40.882  39.922  1.00  0.00    -0.383 N 
ATOM     33  H42 UNL     1      38.133  41.434  39.276  1.00  0.00     0.157 HD
ATOM     34  H41 UNL     1      37.848  39.928  40.152  1.00  0.00     0.157 HD
ENDBRANCH   7  32
BRANCH   1  35
HETATM   35  C3  UNL     1      33.217  44.893  40.220  1.00  0.00     0.178 C 
BRANCH  35  36
HETATM   36  C2  UNL     1      32.114  44.548  39.222  1.00  0.00     0.189 C 
BRANCH  36  37
HETATM   37  O1  UNL     1      32.598  44.238  37.977  1.00  0.00    -0.394 OA
HETATM   38  C1  UNL     1      31.776  43.454  37.203  1.00  0.00     0.201 C 
ENDBRANCH  36  37
ENDBRANCH  35  36
ENDBRANCH   1  35
TORSDOF 10
ENDMDL
MODEL 2
REMARK VINA RESULT: -7.859212897      1.568      2.419
REMARK  10 active torsions:
REMARK  status: ('A' for Active; 'I' for Inactive)
REMARK    1  A    between atoms: O1_2  and  C2_3 
REMARK    2  A    between atoms: C2_3  and  C3_4 
REMARK    3  A    between atoms: C3_4  and  N1_5 
REMARK    4  A    between atoms: C5_11  and  N4_12 
REMARK    5  A    between atoms: C6_17  and  C7_18 
REMARK    6  A    between atoms: C7_18  and  C8_19 
REMARK    7  A    between atoms: C8_19  and  N6_20 
REMARK    8  A    between atoms: N6_20  and  C9_22 
REMARK    9  A    between atoms: C10_25  and  N8_26 
REMARK   10  A    between atoms: C13_31  and  O2_32 
ROOT
HETATM    1  N1  UNL     1      35.329  43.689  39.923  1.00  0.00    -0.258 N 
HETATM    2  N2  UNL     1      36.246  43.950  39.025  1.00  0.00    -0.238 N 
ATOM      3  H2  UNL     1      36.302  44.823  38.499  1.00  0.00     0.208 HD
HETATM    4  N3  UNL     1      37.089  42.946  38.885  1.00  0.00    -0.279 N 
ATOM      5  H3  UNL     1      37.884  42.915  38.247  1.00  0.00     0.189 HD
HETATM    6  C4  UNL     1      36.717  41.977  39.725  1.00  0.00     0.139 A 
HETATM    7  C5  UNL     1      37.141  40.711  40.072  1.00  0.00     0.132 A 
HETATM    8  N5  UNL     1      36.478  40.016  41.001  1.00  0.00    -0.330 N 
ATOM      9  H5  UNL     1      36.813  39.083  41.239  1.00  0.00     0.168 HD
HETATM   10  C6  UNL     1      35.390  40.487  41.636  1.00  0.00     0.085 A 
HETATM   11  N11 UNL     1      34.952  41.718  41.320  1.00  0.00    -0.329 N 
ATOM     12  H11 UNL     1      34.129  42.099  41.787  1.00  0.00     0.168 HD
HETATM   13  C14 UNL     1      35.598  42.453  40.383  1.00  0.00     0.157 A 
ENDROOT
BRANCH  10  14
HETATM   14  C7  UNL     1      34.716  39.630  42.663  1.00  0.00     0.097 C 
BRANCH  14  15
HETATM   15  C8  UNL     1      33.781  40.445  43.508  1.00  0.00     0.145 C 
BRANCH  15  16
HETATM   16  N6  UNL     1      34.274  40.435  44.864  1.00  0.00    -0.225 N 
ATOM     17  H6  UNL     1      34.845  41.222  45.172  1.00  0.00     0.177 HD
BRANCH  16  18
HETATM   18  C9  UNL     1      34.038  39.497  45.705  1.00  0.00     0.695 A 
HETATM   19  N7  UNL     1      35.040  39.015  46.463  1.00  0.00    -0.022 N 
HETATM   20  C10 UNL     1      34.852  38.033  47.362  1.00  0.00     0.697 A 
ATOM     21  H7  UNL     1      35.974  39.409  46.352  1.00  0.00     0.203 HD
HETATM   22  N9  UNL     1      33.610  37.544  47.478  1.00  0.00    -0.154 N 
HETATM   23  C13 UNL     1      32.578  37.989  46.747  1.00  0.00     0.250 A 
ATOM     24  H9  UNL     1      33.442  36.798  48.154  1.00  0.00     0.188 HD
HETATM   25  N10 UNL     1      32.811  38.987  45.846  1.00  0.00    -0.154 N 
ATOM     26  H10 UNL     1      32.045  39.345  45.276  1.00  0.00     0.188 HD
BRANCH  20  27
HETATM   27  N8  UNL     1      35.915  37.532  48.154  1.00  0.00    -0.226 N 
HETATM   28  C11 UNL     1      35.636  36.796  49.370  1.00  0.00     0.168 C 
HETATM   29  C12 UNL     1      37.282  37.765  47.733  1.00  0.00     0.168 C 
ENDBRANCH  20  27
BRANCH  23  30
HETATM   30  O2  UNL     1      31.293  37.465  46.884  1.00  0.00    -0.332 OA
ATOM     31  H2  UNL     1      30.854  37.010  46.174  1.00  0.00     0.221 HD
ENDBRANCH  23  30
ENDBRANCH  16  18
ENDBRANCH  15  16
ENDBRANCH  14  15
ENDBRANCH  10  14
BRANCH   7  32
HETATM   32  N4  UNL     1      38.191  40.242  39.466  1.00  0.00    -0.383 N 
ATOM     33  H42 UNL     1      38.551  40.647  38.603  1.00  0.00     0.157 HD
ATOM     34  H41 UNL     1      38.658  39.439  39.886  1.00  0.00     0.157 HD
ENDBRANCH   7  32
BRANCH   1  35
HETATM   35  C3  UNL     1      34.228  44.560  40.350  1.00  0.00     0.178 C 
BRANCH  35  36
HETATM   36  C2  UNL     1      33.080  44.393  39.356  1.00  0.00     0.189 C 
BRANCH  36  37
HETATM   37  O1  UNL     1      33.502  44.004  38.111  1.00  0.00    -0.394 OA
HETATM   38  C1  UNL     1      32.506  43.632  37.240  1.00  0.00     0.201 C 
ENDBRANCH  36  37
ENDBRANCH  35  36
ENDBRANCH   1  35
TORSDOF 10
ENDMDL
MODEL 3
REMARK VINA RESULT: -7.822115202      3.246      8.549
REMARK  10 active torsions:
REMARK  status: ('A' for Active; 'I' for Inactive)
REMARK    1  A    between atoms: O1_2  and  C2_3 
REMARK    2  A    between atoms: C2_3  and  C3_4 
REMARK    3  A    between atoms: C3_4  and  N1_5 
REMARK    4  A    between atoms: C5_11  and  N4_12 
REMARK    5  A    between atoms: C6_17  and  C7_18 
REMARK    6  A    between atoms: C7_18  and  C8_19 
REMARK    7  A    between atoms: C8_19  and  N6_20 
REMARK    8  A    between atoms: N6_20  and  C9_22 
REMARK    9  A    between atoms: C10_25  and  N8_26 
REMARK   10  A    between atoms: C13_31  and  O2_32 
ROOT
HETATM    1  N1  UNL     1      35.834  37.097  41.989  1.00  0.00    -0.258 N 
HETATM    2  N2  UNL     1      35.301  36.947  43.176  1.00  0.00    -0.238 N 
ATOM      3  H2  UNL     1      35.286  36.066  43.691  1.00  0.00     0.208 HD
HETATM    4  N3  UNL     1      34.786  38.074  43.623  1.00  0.00    -0.279 N 
ATOM      5  H3  UNL     1      34.317  38.206  44.519  1.00  0.00     0.189 HD
HETATM    6  C4  UNL     1      34.985  39.014  42.695  1.00  0.00     0.139 A 
HETATM    7  C5  UNL     1      34.710  40.355  42.528  1.00  0.00     0.132 A 
HETATM    8  N5  UNL     1      35.087  40.980  41.408  1.00  0.00    -0.330 N 
ATOM      9  H5  UNL     1      34.871  41.972  41.309  1.00  0.00     0.168 HD
HETATM   10  C6  UNL     1      35.735  40.363  40.404  1.00  0.00     0.085 A 
HETATM   11  N11 UNL     1      36.018  39.055  40.537  1.00  0.00    -0.329 N 
ATOM     12  H11 UNL     1      36.509  38.564  39.790  1.00  0.00     0.168 HD
HETATM   13  C14 UNL     1      35.652  38.389  41.658  1.00  0.00     0.157 A 
ENDROOT
BRANCH  10  14
HETATM   14  C7  UNL     1      36.115  41.150  39.187  1.00  0.00     0.097 C 
BRANCH  14  15
HETATM   15  C8  UNL     1      36.668  42.491  39.570  1.00  0.00     0.145 C 
BRANCH  15  16
HETATM   16  N6  UNL     1      35.941  43.502  38.841  1.00  0.00    -0.225 N 
ATOM     17  H6  UNL     1      36.403  43.944  38.046  1.00  0.00     0.177 HD
BRANCH  16  18
HETATM   18  C9  UNL     1      34.751  43.880  39.131  1.00  0.00     0.695 A 
HETATM   19  N7  UNL     1      33.729  43.533  38.329  1.00  0.00    -0.022 N 
HETATM   20  C10 UNL     1      32.460  43.900  38.582  1.00  0.00     0.697 A 
ATOM     21  H7  UNL     1      33.923  42.971  37.500  1.00  0.00     0.203 HD
HETATM   22  N9  UNL     1      32.248  44.635  39.681  1.00  0.00    -0.154 N 
HETATM   23  C13 UNL     1      33.232  45.008  40.513  1.00  0.00     0.250 A 
ATOM     24  H9  UNL     1      31.293  44.925  39.896  1.00  0.00     0.188 HD
HETATM   25  N10 UNL     1      34.505  44.615  40.219  1.00  0.00    -0.154 N 
ATOM     26  H10 UNL     1      35.273  44.883  40.834  1.00  0.00     0.188 HD
BRANCH  20  27
HETATM   27  N8  UNL     1      31.391  43.529  37.730  1.00  0.00    -0.226 N 
HETATM   28  C11 UNL     1      31.656  42.865  36.470  1.00  0.00     0.168 C 
HETATM   29  C12 UNL     1      30.029  43.821  38.134  1.00  0.00     0.168 C 
ENDBRANCH  20  27
BRANCH  23  30
HETATM   30  O2  UNL     1      32.988  45.775  41.652  1.00  0.00    -0.332 OA
ATOM     31  H2  UNL     1      33.688  46.200  42.134  1.00  0.00     0.221 HD
ENDBRANCH  23  30
ENDBRANCH  16  18
ENDBRANCH  15  16
ENDBRANCH  14  15
ENDBRANCH  10  14
BRANCH   7  32
HETATM   32  N4  UNL     1      34.084  40.965  43.489  1.00  0.00    -0.383 N 
ATOM     33  H42 UNL     1      34.073  40.612  44.446  1.00  0.00     0.157 HD
ATOM     34  H41 UNL     1      33.590  41.827  43.259  1.00  0.00     0.157 HD
ENDBRANCH   7  32
BRANCH   1  35
HETATM   35  C3  UNL     1      36.499  36.071  41.176  1.00  0.00     0.178 C 
BRANCH  35  36
HETATM   36  C2  UNL     1      37.825  35.721  41.847  1.00  0.00     0.189 C 
BRANCH  36  37
HETATM   37  O1  UNL     1      38.327  36.746  42.608  1.00  0.00    -0.394 OA
HETATM   38  C1  UNL     1      39.235  36.376  43.571  1.00  0.00     0.201 C 
ENDBRANCH  36  37
ENDBRANCH  35  36
ENDBRANCH   1  35
TORSDOF 10
ENDMDL
MODEL 4
REMARK VINA RESULT: -7.808404032      2.455      3.475
REMARK  10 active torsions:
REMARK  status: ('A' for Active; 'I' for Inactive)
REMARK    1  A    between atoms: O1_2  and  C2_3 
REMARK    2  A    between atoms: C2_3  and  C3_4 
REMARK    3  A    between atoms: C3_4  and  N1_5 
REMARK    4  A    between atoms: C5_11  and  N4_12 
REMARK    5  A    between atoms: C6_17  and  C7_18 
REMARK    6  A    between atoms: C7_18  and  C8_19 
REMARK    7  A    between atoms: C8_19  and  N6_20 
REMARK    8  A    between atoms: N6_20  and  C9_22 
REMARK    9  A    between atoms: C10_25  and  N8_26 
REMARK   10  A    between atoms: C13_31  and  O2_32 
ROOT
HETATM    1  N1  UNL     1      32.946  44.039  38.386  1.00  0.00    -0.258 N 
HETATM    2  N2  UNL     1      32.562  45.014  39.172  1.00  0.00    -0.238 N 
ATOM      3  H2  UNL     1      31.852  45.704  38.925  1.00  0.00     0.208 HD
HETATM    4  N3  UNL     1      33.206  44.994  40.322  1.00  0.00    -0.279 N 
ATOM      5  H3  UNL     1      33.080  45.650  41.092  1.00  0.00     0.189 HD
HETATM    6  C4  UNL     1      34.053  43.961  40.300  1.00  0.00     0.139 A 
HETATM    7  C5  UNL     1      34.986  43.391  41.140  1.00  0.00     0.132 A 
HETATM    8  N5  UNL     1      35.670  42.312  40.746  1.00  0.00    -0.330 N 
ATOM      9  H5  UNL     1      36.354  41.910  41.387  1.00  0.00     0.168 HD
HETATM   10  C6  UNL     1      35.499  41.731  39.545  1.00  0.00     0.085 A 
HETATM   11  N11 UNL     1      34.596  42.263  38.703  1.00  0.00    -0.329 N 
ATOM     12  H11 UNL     1      34.447  41.842  37.786  1.00  0.00     0.168 HD
HETATM   13  C14 UNL     1      33.885  43.357  39.067  1.00  0.00     0.157 A 
ENDROOT
BRANCH  10  14
HETATM   14  C7  UNL     1      36.313  40.523  39.196  1.00  0.00     0.097 C 
BRANCH  14  15
HETATM   15  C8  UNL     1      36.643  39.728  40.425  1.00  0.00     0.145 C 
BRANCH  15  16
HETATM   16  N6  UNL     1      35.414  39.190  40.956  1.00  0.00    -0.225 N 
ATOM     17  H6  UNL     1      34.659  38.984  40.302  1.00  0.00     0.177 HD
BRANCH  16  18
HETATM   18  C9  UNL     1      35.213  38.955  42.200  1.00  0.00     0.695 A 
HETATM   19  N7  UNL     1      35.216  37.686  42.646  1.00  0.00    -0.022 N 
HETATM   20  C10 UNL     1      35.011  37.378  43.940  1.00  0.00     0.697 A 
ATOM     21  H7  UNL     1      35.380  36.931  41.981  1.00  0.00     0.203 HD
HETATM   22  N9  UNL     1      34.801  38.399  44.782  1.00  0.00    -0.154 N 
HETATM   23  C13 UNL     1      34.788  39.681  44.388  1.00  0.00     0.250 A 
ATOM     24  H9  UNL     1      34.644  38.192  45.768  1.00  0.00     0.188 HD
HETATM   25  N10 UNL     1      35.001  39.950  43.066  1.00  0.00    -0.154 N 
ATOM     26  H10 UNL     1      34.997  40.915  42.738  1.00  0.00     0.188 HD
BRANCH  20  27
HETATM   27  N8  UNL     1      35.015  36.038  44.399  1.00  0.00    -0.226 N 
HETATM   28  C11 UNL     1      34.614  34.962  43.517  1.00  0.00     0.168 C 
HETATM   29  C12 UNL     1      35.427  35.757  45.760  1.00  0.00     0.168 C 
ENDBRANCH  20  27
BRANCH  23  30
HETATM   30  O2  UNL     1      34.567  40.729  45.281  1.00  0.00    -0.332 OA
ATOM     31  H2  UNL     1      33.792  41.276  45.236  1.00  0.00     0.221 HD
ENDBRANCH  23  30
ENDBRANCH  16  18
ENDBRANCH  15  16
ENDBRANCH  14  15
ENDBRANCH  10  14
BRANCH   7  32
HETATM   32  N4  UNL     1      35.163  43.942  42.304  1.00  0.00    -0.383 N 
ATOM     33  H42 UNL     1      34.610  44.737  42.622  1.00  0.00     0.157 HD
ATOM     34  H41 UNL     1      35.886  43.550  42.907  1.00  0.00     0.157 HD
ENDBRANCH   7  32
BRANCH   1  35
HETATM   35  C3  UNL     1      32.457  43.740  37.034  1.00  0.00     0.178 C 
BRANCH  35  36
HETATM   36  C2  UNL     1      31.075  43.104  37.160  1.00  0.00     0.189 C 
BRANCH  36  37
HETATM   37  O1  UNL     1      30.402  43.504  38.286  1.00  0.00    -0.394 OA
HETATM   38  C1  UNL     1      29.082  43.838  38.098  1.00  0.00     0.201 C 
ENDBRANCH  36  37
ENDBRANCH  35  36
ENDBRANCH   1  35
TORSDOF 10
ENDMDL
MODEL 5
REMARK VINA RESULT: -7.806181635      1.807      2.913
REMARK  10 active torsions:
REMARK  status: ('A' for Active; 'I' for Inactive)
REMARK    1  A    between atoms: O1_2  and  C2_3 
REMARK    2  A    between atoms: C2_3  and  C3_4 
REMARK    3  A    between atoms: C3_4  and  N1_5 
REMARK    4  A    between atoms: C5_11  and  N4_12 
REMARK    5  A    between atoms: C6_17  and  C7_18 
REMARK    6  A    between atoms: C7_18  and  C8_19 
REMARK    7  A    between atoms: C8_19  and  N6_20 
REMARK    8  A    between atoms: N6_20  and  C9_22 
REMARK    9  A    between atoms: C10_25  and  N8_26 
REMARK   10  A    between atoms: C13_31  and  O2_32 
ROOT
HETATM    1  N1  UNL     1      34.417  43.916  39.844  1.00  0.00    -0.258 N 
HETATM    2  N2  UNL     1      35.327  44.059  38.912  1.00  0.00    -0.238 N 
ATOM      3  H2  UNL     1      35.329  44.811  38.223  1.00  0.00     0.208 HD
HETATM    4  N3  UNL     1      36.239  43.109  38.975  1.00  0.00    -0.279 N 
ATOM      5  H3  UNL     1      37.044  43.008  38.357  1.00  0.00     0.189 HD
HETATM    6  C4  UNL     1      35.923  42.302  39.992  1.00  0.00     0.139 A 
HETATM    7  C5  UNL     1      36.429  41.164  40.584  1.00  0.00     0.132 A 
HETATM    8  N5  UNL     1      35.803  40.622  41.633  1.00  0.00    -0.330 N 
ATOM      9  H5  UNL     1      36.198  39.781  42.053  1.00  0.00     0.168 HD
HETATM   10  C6  UNL     1      34.676  41.132  42.160  1.00  0.00     0.085 A 
HETATM   11  N11 UNL     1      34.157  42.240  41.605  1.00  0.00    -0.329 N 
ATOM     12  H11 UNL     1      33.303  42.648  41.987  1.00  0.00     0.168 HD
HETATM   13  C14 UNL     1      34.764  42.819  40.541  1.00  0.00     0.157 A 
ENDROOT
BRANCH  10  14
HETATM   14  C7  UNL     1      34.047  40.450  43.338  1.00  0.00     0.097 C 
BRANCH  14  15
HETATM   15  C8  UNL     1      34.950  39.382  43.881  1.00  0.00     0.145 C 
BRANCH  15  16
HETATM   16  N6  UNL     1      35.360  39.770  45.209  1.00  0.00    -0.225 N 
ATOM     17  H6  UNL     1      35.244  40.747  45.479  1.00  0.00     0.177 HD
BRANCH  16  18
HETATM   18  C9  UNL     1      35.860  38.963  46.069  1.00  0.00     0.695 A 
HETATM   19  N7  UNL     1      37.080  38.438  45.859  1.00  0.00    -0.022 N 
HETATM   20  C10 UNL     1      37.655  37.586  46.727  1.00  0.00     0.697 A 
ATOM     21  H7  UNL     1      37.587  38.695  45.013  1.00  0.00     0.203 HD
HETATM   22  N9  UNL     1      36.957  37.275  47.827  1.00  0.00    -0.154 N 
HETATM   23  C13 UNL     1      35.737  37.770  48.083  1.00  0.00     0.250 A 
ATOM     24  H9  UNL     1      37.373  36.631  48.501  1.00  0.00     0.188 HD
HETATM   25  N10 UNL     1      35.190  38.631  47.177  1.00  0.00    -0.154 N 
ATOM     26  H10 UNL     1      34.264  39.024  47.346  1.00  0.00     0.188 HD
BRANCH  20  27
HETATM   27  N8  UNL     1      38.941  37.039  46.495  1.00  0.00    -0.226 N 
HETATM   28  C11 UNL     1      39.746  36.567  47.602  1.00  0.00     0.168 C 
HETATM   29  C12 UNL     1      39.441  36.956  45.136  1.00  0.00     0.168 C 
ENDBRANCH  20  27
BRANCH  23  30
HETATM   30  O2  UNL     1      35.028  37.432  49.235  1.00  0.00    -0.332 OA
ATOM     31  H2  UNL     1      34.255  36.881  49.209  1.00  0.00     0.221 HD
ENDBRANCH  23  30
ENDBRANCH  16  18
ENDBRANCH  15  16
ENDBRANCH  14  15
ENDBRANCH  10  14
BRANCH   7  32
HETATM   32  N4  UNL     1      37.517  40.660  40.085  1.00  0.00    -0.383 N 
ATOM     33  H42 UNL     1      37.568  39.702  39.739  1.00  0.00     0.157 HD
ATOM     34  H41 UNL     1      38.341  41.260  40.045  1.00  0.00     0.157 HD
ENDBRANCH   7  32
BRANCH   1  35
HETATM   35  C3  UNL     1      33.251  44.774  40.088  1.00  0.00     0.178 C 
BRANCH  35  36
HETATM   36  C2  UNL     1      32.157  44.380  39.098  1.00  0.00     0.189 C 
BRANCH  36  37
HETATM   37  O1  UNL     1      32.611  44.292  37.807  1.00  0.00    -0.394 OA
HETATM   38  C1  UNL     1      32.141  43.219  37.088  1.00  0.00     0.201 C 
ENDBRANCH  36  37
ENDBRANCH  35  36
ENDBRANCH   1  35
TORSDOF 10
ENDMDL
