MODEL 1
REMARK VINA RESULT: -8.271282741      0.000      0.000
REMARK  12 active torsions:
REMARK  status: ('A' for Active; 'I' for Inactive)
REMARK    1  A    between atoms: C2_2  and  O1_3 
REMARK    2  A    between atoms: O1_3  and  C3_4 
REMARK    3  A    between atoms: C3_4  and  C4_6 
REMARK    4  A    between atoms: C4_6  and  N1_7 
REMARK    5  A    between atoms: N1_7  and  C6_9 
REMARK    6  A    between atoms: C6_9  and  O3_10 
REMARK    7  A    between atoms: C6_9  and  C7_12 
REMARK    8  A    between atoms: C7_12  and  N3_16 
REMARK    9  A    between atoms: N3_16  and  C8_18 
REMARK   10  A    between atoms: C8_18  and  C10_23 
REMARK   11  A    between atoms: C11_26  and  N7_27 
REMARK   12  A    between atoms: C13_34  and  O7_35 
ROOT
HETATM    1  C8  UNL     1      35.439  41.931  41.134  1.00  0.00     0.146 C 
HETATM    2  N4  UNL     1      36.555  42.562  41.323  1.00  0.00    -0.277 N 
ATOM      3  H4  UNL     1      37.243  42.192  41.979  1.00  0.00     0.179 HD
HETATM    4  C9  UNL     1      36.818  43.735  40.637  1.00  0.00     0.183 C 
HETATM    5  N5  UNL     1      37.060  44.709  40.065  1.00  0.00    -0.172 NA
ENDROOT
BRANCH   1   6
HETATM    6  N3  UNL     1      34.505  42.451  40.231  1.00  0.00    -0.326 N 
ATOM      7  H3  UNL     1      34.462  42.084  39.280  1.00  0.00     0.169 HD
BRANCH   6   8
HETATM    8  C7  UNL     1      33.600  43.508  40.636  1.00  0.00     0.126 C 
HETATM    9  N2  UNL     1      33.185  43.524  41.833  1.00  0.00    -0.385 N 
ATOM     10  H22 UNL     1      32.548  44.268  42.118  1.00  0.00     0.157 HD
ATOM     11  H21 UNL     1      33.496  42.826  42.509  1.00  0.00     0.157 HD
BRANCH   8  12
HETATM   12  C6  UNL     1      33.150  44.517  39.661  1.00  0.00     0.288 C 
BRANCH  12  13
HETATM   13  N1  UNL     1      32.250  44.131  38.685  1.00  0.00    -0.357 N 
HETATM   14  C5  UNL     1      30.904  44.586  38.882  1.00  0.00     0.152 C 
BRANCH  13  15
HETATM   15  C4  UNL     1      32.552  43.974  37.336  1.00  0.00     0.170 C 
BRANCH  15  16
HETATM   16  C3  UNL     1      32.571  42.626  36.758  1.00  0.00     0.298 C 
HETATM   17  O2  UNL     1      33.518  41.859  37.153  1.00  0.00    -0.259 OA
BRANCH  16  18
HETATM   18  O1  UNL     1      31.709  42.081  35.848  1.00  0.00    -0.317 OA
BRANCH  18  19
HETATM   19  C2  UNL     1      30.449  42.620  35.508  1.00  0.00     0.174 C 
HETATM   20  C1  UNL     1      29.367  42.203  36.475  1.00  0.00     0.034 C 
ENDBRANCH  18  19
ENDBRANCH  16  18
ENDBRANCH  15  16
ENDBRANCH  13  15
ENDBRANCH  12  13
BRANCH  12  21
HETATM   21  O3  UNL     1      34.305  45.027  38.969  1.00  0.00    -0.369 OA
ATOM     22  H3  UNL     1      34.330  45.961  39.142  1.00  0.00     0.212 HD
ENDBRANCH  12  21
ENDBRANCH   8  12
ENDBRANCH   6   8
ENDBRANCH   1   6
BRANCH   1  23
HETATM   23  C10 UNL     1      35.278  40.698  41.899  1.00  0.00     0.119 A 
HETATM   24  N6  UNL     1      35.090  40.742  43.238  1.00  0.00    -0.317 N 
HETATM   25  C11 UNL     1      34.938  39.658  44.016  1.00  0.00     0.253 A 
ATOM     26  H6  UNL     1      35.062  41.658  43.685  1.00  0.00     0.169 HD
HETATM   27  N8  UNL     1      34.973  38.433  43.429  1.00  0.00    -0.288 N 
HETATM   28  C12 UNL     1      35.158  38.354  42.102  1.00  0.00     0.283 A 
ATOM     29  H8  UNL     1      34.861  37.588  43.988  1.00  0.00     0.172 HD
HETATM   30  O6  UNL     1      35.197  37.227  41.515  1.00  0.00    -0.265 OA
HETATM   31  C13 UNL     1      35.316  39.476  41.295  1.00  0.00     0.165 A 
BRANCH  25  32
HETATM   32  N7  UNL     1      34.748  39.811  45.407  1.00  0.00    -0.079 N 
HETATM   33  O4  UNL     1      34.432  40.907  45.867  1.00  0.00    -0.529 OA
HETATM   34  O5  UNL     1      34.912  38.743  46.232  1.00  0.00    -0.529 OA
ENDBRANCH  25  32
BRANCH  31  35
HETATM   35  O7  UNL     1      35.506  39.374  39.934  1.00  0.00    -0.354 OA
ATOM     36  H7  UNL     1      35.818  38.563  39.550  1.00  0.00     0.218 HD
ENDBRANCH  31  35
ENDBRANCH   1  23
TORSDOF 12
ENDMDL
MODEL 2
REMARK VINA RESULT: -7.893469090      1.970      2.459
REMARK  12 active torsions:
REMARK  status: ('A' for Active; 'I' for Inactive)
REMARK    1  A    between atoms: C2_2  and  O1_3 
REMARK    2  A    between atoms: O1_3  and  C3_4 
REMARK    3  A    between atoms: C3_4  and  C4_6 
REMARK    4  A    between atoms: C4_6  and  N1_7 
REMARK    5  A    between atoms: N1_7  and  C6_9 
REMARK    6  A    between atoms: C6_9  and  O3_10 
REMARK    7  A    between atoms: C6_9  and  C7_12 
REMARK    8  A    between atoms: C7_12  and  N3_16 
REMARK    9  A    between atoms: N3_16  and  C8_18 
REMARK   10  A    between atoms: C8_18  and  C10_23 
REMARK   11  A    between atoms: C11_26  and  N7_27 
REMARK   12  A    between atoms: C13_34  and  O7_35 
ROOT
HETATM    1  C8  UNL     1      36.698  40.863  39.593  1.00  0.00     0.146 C 
HETATM    2  N4  UNL     1      37.902  40.546  39.234  1.00  0.00    -0.277 N 
ATOM      3  H4  UNL     1      38.360  39.736  39.651  1.00  0.00     0.179 HD
HETATM    4  C9  UNL     1      38.570  41.304  38.287  1.00  0.00     0.183 C 
HETATM    5  N5  UNL     1      39.137  41.916  37.490  1.00  0.00    -0.172 NA
ENDROOT
BRANCH   1   6
HETATM    6  N3  UNL     1      36.084  41.977  39.013  1.00  0.00    -0.326 N 
ATOM      7  H3  UNL     1      35.668  41.900  38.084  1.00  0.00     0.169 HD
BRANCH   6   8
HETATM    8  C7  UNL     1      36.033  43.241  39.721  1.00  0.00     0.126 C 
HETATM    9  N2  UNL     1      36.920  43.483  40.593  1.00  0.00    -0.385 N 
ATOM     10  H22 UNL     1      36.884  44.372  41.091  1.00  0.00     0.157 HD
ATOM     11  H21 UNL     1      37.669  42.817  40.781  1.00  0.00     0.157 HD
BRANCH   8  12
HETATM   12  C6  UNL     1      34.951  44.203  39.449  1.00  0.00     0.288 C 
BRANCH  12  13
HETATM   13  N1  UNL     1      33.689  43.929  39.943  1.00  0.00    -0.357 N 
HETATM   14  C5  UNL     1      33.658  43.367  41.262  1.00  0.00     0.152 C 
BRANCH  13  15
HETATM   15  C4  UNL     1      32.545  44.671  39.668  1.00  0.00     0.170 C 
BRANCH  15  16
HETATM   16  C3  UNL     1      31.658  44.246  38.579  1.00  0.00     0.298 C 
HETATM   17  O2  UNL     1      30.409  44.189  38.862  1.00  0.00    -0.259 OA
BRANCH  16  18
HETATM   18  O1  UNL     1      31.992  43.897  37.301  1.00  0.00    -0.317 OA
BRANCH  18  19
HETATM   19  C2  UNL     1      31.702  42.651  36.704  1.00  0.00     0.174 C 
HETATM   20  C1  UNL     1      30.591  42.746  35.687  1.00  0.00     0.034 C 
ENDBRANCH  18  19
ENDBRANCH  16  18
ENDBRANCH  15  16
ENDBRANCH  13  15
ENDBRANCH  12  13
BRANCH  12  21
HETATM   21  O3  UNL     1      34.808  44.337  38.022  1.00  0.00    -0.369 OA
ATOM     22  H3  UNL     1      35.538  43.866  37.635  1.00  0.00     0.212 HD
ENDBRANCH  12  21
ENDBRANCH   8  12
ENDBRANCH   6   8
ENDBRANCH   1   6
BRANCH   1  23
HETATM   23  C10 UNL     1      36.088  39.984  40.586  1.00  0.00     0.119 A 
HETATM   24  N6  UNL     1      35.516  40.500  41.699  1.00  0.00    -0.317 N 
HETATM   25  C11 UNL     1      34.938  39.764  42.663  1.00  0.00     0.253 A 
ATOM     26  H6  UNL     1      35.525  41.513  41.813  1.00  0.00     0.169 HD
HETATM   27  N8  UNL     1      34.922  38.413  42.520  1.00  0.00    -0.288 N 
HETATM   28  C12 UNL     1      35.480  37.868  41.427  1.00  0.00     0.283 A 
ATOM     29  H8  UNL     1      34.492  37.823  43.231  1.00  0.00     0.172 HD
HETATM   30  O6  UNL     1      35.485  36.608  41.257  1.00  0.00    -0.265 OA
HETATM   31  C13 UNL     1      36.079  38.629  40.429  1.00  0.00     0.165 A 
BRANCH  25  32
HETATM   32  N7  UNL     1      34.370  40.400  43.788  1.00  0.00    -0.079 N 
HETATM   33  O4  UNL     1      33.209  40.806  43.744  1.00  0.00    -0.529 OA
HETATM   34  O5  UNL     1      35.109  40.559  44.918  1.00  0.00    -0.529 OA
ENDBRANCH  25  32
BRANCH  31  35
HETATM   35  O7  UNL     1      36.648  38.051  39.315  1.00  0.00    -0.354 OA
ATOM     36  H7  UNL     1      37.574  37.838  39.302  1.00  0.00     0.218 HD
ENDBRANCH  31  35
ENDBRANCH   1  23
TORSDOF 12
ENDMDL
MODEL 3
REMARK VINA RESULT: -7.628667157      2.064      3.070
REMARK  12 active torsions:
REMARK  status: ('A' for Active; 'I' for Inactive)
REMARK    1  A    between atoms: C2_2  and  O1_3 
REMARK    2  A    between atoms: O1_3  and  C3_4 
REMARK    3  A    between atoms: C3_4  and  C4_6 
REMARK    4  A    between atoms: C4_6  and  N1_7 
REMARK    5  A    between atoms: N1_7  and  C6_9 
REMARK    6  A    between atoms: C6_9  and  O3_10 
REMARK    7  A    between atoms: C6_9  and  C7_12 
REMARK    8  A    between atoms: C7_12  and  N3_16 
REMARK    9  A    between atoms: N3_16  and  C8_18 
REMARK   10  A    between atoms: C8_18  and  C10_23 
REMARK   11  A    between atoms: C11_26  and  N7_27 
REMARK   12  A    between atoms: C13_34  and  O7_35 
ROOT
HETATM    1  C8  UNL     1      36.498  41.228  40.218  1.00  0.00     0.146 C 
HETATM    2  N4  UNL     1      37.456  40.648  39.566  1.00  0.00    -0.277 N 
ATOM      3  H4  UNL     1      37.733  39.697  39.808  1.00  0.00     0.179 HD
HETATM    4  C9  UNL     1      38.106  41.315  38.541  1.00  0.00     0.183 C 
HETATM    5  N5  UNL     1      38.650  41.850  37.675  1.00  0.00    -0.172 NA
ENDROOT
BRANCH   1   6
HETATM    6  N3  UNL     1      36.131  42.533  39.874  1.00  0.00    -0.326 N 
ATOM      7  H3  UNL     1      36.670  43.322  40.233  1.00  0.00     0.169 HD
BRANCH   6   8
HETATM    8  C7  UNL     1      34.991  42.775  39.013  1.00  0.00     0.126 C 
HETATM    9  N2  UNL     1      34.508  41.801  38.361  1.00  0.00    -0.385 N 
ATOM     10  H22 UNL     1      33.705  41.971  37.755  1.00  0.00     0.157 HD
ATOM     11  H21 UNL     1      34.893  40.862  38.454  1.00  0.00     0.157 HD
BRANCH   8  12
HETATM   12  C6  UNL     1      34.434  44.132  38.879  1.00  0.00     0.288 C 
BRANCH  12  13
HETATM   13  N1  UNL     1      33.318  44.461  39.628  1.00  0.00    -0.357 N 
HETATM   14  C5  UNL     1      33.592  44.981  40.936  1.00  0.00     0.152 C 
BRANCH  13  15
HETATM   15  C4  UNL     1      32.128  44.960  39.110  1.00  0.00     0.170 C 
BRANCH  15  16
HETATM   16  C3  UNL     1      31.184  44.039  38.465  1.00  0.00     0.298 C 
HETATM   17  O2  UNL     1      29.956  44.163  38.808  1.00  0.00    -0.259 OA
BRANCH  16  18
HETATM   18  O1  UNL     1      31.447  43.062  37.547  1.00  0.00    -0.317 OA
BRANCH  18  19
HETATM   19  C2  UNL     1      30.884  42.999  36.254  1.00  0.00     0.174 C 
HETATM   20  C1  UNL     1      29.784  41.970  36.156  1.00  0.00     0.034 C 
ENDBRANCH  18  19
ENDBRANCH  16  18
ENDBRANCH  15  16
ENDBRANCH  13  15
ENDBRANCH  12  13
BRANCH  12  21
HETATM   21  O3  UNL     1      34.074  44.343  37.501  1.00  0.00    -0.369 OA
ATOM     22  H3  UNL     1      34.815  44.049  36.983  1.00  0.00     0.212 HD
ENDBRANCH  12  21
ENDBRANCH   8  12
ENDBRANCH   6   8
ENDBRANCH   1   6
BRANCH   1  23
HETATM   23  C10 UNL     1      35.876  40.424  41.266  1.00  0.00     0.119 A 
HETATM   24  N6  UNL     1      35.993  39.077  41.257  1.00  0.00    -0.317 N 
HETATM   25  C11 UNL     1      35.450  38.264  42.178  1.00  0.00     0.253 A 
ATOM     26  H6  UNL     1      36.530  38.650  40.501  1.00  0.00     0.169 HD
HETATM   27  N8  UNL     1      34.734  38.823  43.188  1.00  0.00    -0.288 N 
HETATM   28  C12 UNL     1      34.598  40.158  43.228  1.00  0.00     0.283 A 
ATOM     29  H8  UNL     1      34.307  38.238  43.906  1.00  0.00     0.172 HD
HETATM   30  O6  UNL     1      33.937  40.719  44.157  1.00  0.00    -0.265 OA
HETATM   31  C13 UNL     1      35.160  41.000  42.274  1.00  0.00     0.165 A 
BRANCH  25  32
HETATM   32  N7  UNL     1      35.630  36.867  42.078  1.00  0.00    -0.079 N 
HETATM   33  O4  UNL     1      34.986  36.110  42.801  1.00  0.00    -0.529 OA
HETATM   34  O5  UNL     1      36.516  36.365  41.176  1.00  0.00    -0.529 OA
ENDBRANCH  25  32
BRANCH  31  35
HETATM   35  O7  UNL     1      35.009  42.369  42.331  1.00  0.00    -0.354 OA
ATOM     36  H7  UNL     1      34.162  42.752  42.528  1.00  0.00     0.218 HD
ENDBRANCH  31  35
ENDBRANCH   1  23
TORSDOF 12
ENDMDL
MODEL 4
REMARK VINA RESULT: -7.562859743      2.142      2.552
REMARK  12 active torsions:
REMARK  status: ('A' for Active; 'I' for Inactive)
REMARK    1  A    between atoms: C2_2  and  O1_3 
REMARK    2  A    between atoms: O1_3  and  C3_4 
REMARK    3  A    between atoms: C3_4  and  C4_6 
REMARK    4  A    between atoms: C4_6  and  N1_7 
REMARK    5  A    between atoms: N1_7  and  C6_9 
REMARK    6  A    between atoms: C6_9  and  O3_10 
REMARK    7  A    between atoms: C6_9  and  C7_12 
REMARK    8  A    between atoms: C7_12  and  N3_16 
REMARK    9  A    between atoms: N3_16  and  C8_18 
REMARK   10  A    between atoms: C8_18  and  C10_23 
REMARK   11  A    between atoms: C11_26  and  N7_27 
REMARK   12  A    between atoms: C13_34  and  O7_35 
ROOT
HETATM    1  C8  UNL     1      36.958  40.521  39.476  1.00  0.00     0.146 C 
HETATM    2  N4  UNL     1      38.148  40.140  39.133  1.00  0.00    -0.277 N 
ATOM      3  H4  UNL     1      38.554  39.303  39.551  1.00  0.00     0.179 HD
HETATM    4  C9  UNL     1      38.871  40.866  38.202  1.00  0.00     0.183 C 
HETATM    5  N5  UNL     1      39.484  41.451  37.417  1.00  0.00    -0.172 NA
ENDROOT
BRANCH   1   6
HETATM    6  N3  UNL     1      36.415  41.671  38.894  1.00  0.00    -0.326 N 
ATOM      7  H3  UNL     1      36.259  41.703  37.887  1.00  0.00     0.169 HD
BRANCH   6   8
HETATM    8  C7  UNL     1      36.072  42.817  39.712  1.00  0.00     0.126 C 
HETATM    9  N2  UNL     1      36.959  43.696  39.925  1.00  0.00    -0.385 N 
ATOM     10  H22 UNL     1      36.718  44.503  40.500  1.00  0.00     0.157 HD
ATOM     11  H21 UNL     1      37.890  43.617  39.514  1.00  0.00     0.157 HD
BRANCH   8  12
HETATM   12  C6  UNL     1      34.728  42.933  40.305  1.00  0.00     0.288 C 
BRANCH  12  13
HETATM   13  N1  UNL     1      33.853  43.861  39.771  1.00  0.00    -0.357 N 
HETATM   14  C5  UNL     1      33.625  45.023  40.582  1.00  0.00     0.152 C 
BRANCH  13  15
HETATM   15  C4  UNL     1      33.712  44.139  38.416  1.00  0.00     0.170 C 
BRANCH  15  16
HETATM   16  C3  UNL     1      32.748  43.369  37.622  1.00  0.00     0.298 C 
HETATM   17  O2  UNL     1      33.210  42.331  37.030  1.00  0.00    -0.259 OA
BRANCH  16  18
HETATM   18  O1  UNL     1      31.417  43.617  37.429  1.00  0.00    -0.317 OA
BRANCH  18  19
HETATM   19  C2  UNL     1      30.521  44.036  38.437  1.00  0.00     0.174 C 
HETATM   20  C1  UNL     1      29.082  43.757  38.077  1.00  0.00     0.034 C 
ENDBRANCH  18  19
ENDBRANCH  16  18
ENDBRANCH  15  16
ENDBRANCH  13  15
ENDBRANCH  12  13
BRANCH  12  21
HETATM   21  O3  UNL     1      34.872  43.265  41.698  1.00  0.00    -0.369 OA
ATOM     22  H3  UNL     1      35.796  43.168  41.903  1.00  0.00     0.212 HD
ENDBRANCH  12  21
ENDBRANCH   8  12
ENDBRANCH   6   8
ENDBRANCH   1   6
BRANCH   1  23
HETATM   23  C10 UNL     1      36.285  39.671  40.454  1.00  0.00     0.119 A 
HETATM   24  N6  UNL     1      35.754  40.206  41.577  1.00  0.00    -0.317 N 
HETATM   25  C11 UNL     1      35.124  39.498  42.529  1.00  0.00     0.253 A 
ATOM     26  H6  UNL     1      35.838  41.215  41.710  1.00  0.00     0.169 HD
HETATM   27  N8  UNL     1      35.007  38.155  42.360  1.00  0.00    -0.288 N 
HETATM   28  C12 UNL     1      35.523  37.591  41.257  1.00  0.00     0.283 A 
ATOM     29  H8  UNL     1      34.535  37.584  43.061  1.00  0.00     0.172 HD
HETATM   30  O6  UNL     1      35.434  36.337  41.062  1.00  0.00    -0.265 OA
HETATM   31  C13 UNL     1      36.176  38.323  40.271  1.00  0.00     0.165 A 
BRANCH  25  32
HETATM   32  N7  UNL     1      34.605  40.153  43.666  1.00  0.00    -0.079 N 
HETATM   33  O4  UNL     1      33.746  41.024  43.536  1.00  0.00    -0.529 OA
HETATM   34  O5  UNL     1      35.056  39.816  44.904  1.00  0.00    -0.529 OA
ENDBRANCH  25  32
BRANCH  31  35
HETATM   35  O7  UNL     1      36.700  37.726  39.145  1.00  0.00    -0.354 OA
ATOM     36  H7  UNL     1      37.362  37.049  39.223  1.00  0.00     0.218 HD
ENDBRANCH  31  35
ENDBRANCH   1  23
TORSDOF 12
ENDMDL
MODEL 5
REMARK VINA RESULT: -7.541442712      1.342      2.668
REMARK  12 active torsions:
REMARK  status: ('A' for Active; 'I' for Inactive)
REMARK    1  A    between atoms: C2_2  and  O1_3 
REMARK    2  A    between atoms: O1_3  and  C3_4 
REMARK    3  A    between atoms: C3_4  and  C4_6 
REMARK    4  A    between atoms: C4_6  and  N1_7 
REMARK    5  A    between atoms: N1_7  and  C6_9 
REMARK    6  A    between atoms: C6_9  and  O3_10 
REMARK    7  A    between atoms: C6_9  and  C7_12 
REMARK    8  A    between atoms: C7_12  and  N3_16 
REMARK    9  A    between atoms: N3_16  and  C8_18 
REMARK   10  A    between atoms: C8_18  and  C10_23 
REMARK   11  A    between atoms: C11_26  and  N7_27 
REMARK   12  A    between atoms: C13_34  and  O7_35 
ROOT
HETATM    1  C8  UNL     1      35.468  41.700  40.838  1.00  0.00     0.146 C 
HETATM    2  N4  UNL     1      36.578  42.327  41.071  1.00  0.00    -0.277 N 
ATOM      3  H4  UNL     1      37.302  41.886  41.638  1.00  0.00     0.179 HD
HETATM    4  C9  UNL     1      36.784  43.594  40.553  1.00  0.00     0.183 C 
HETATM    5  N5  UNL     1      36.980  44.647  40.119  1.00  0.00    -0.172 NA
ENDROOT
BRANCH   1   6
HETATM    6  N3  UNL     1      34.484  42.319  40.059  1.00  0.00    -0.326 N 
ATOM      7  H3  UNL     1      34.383  42.065  39.076  1.00  0.00     0.169 HD
BRANCH   6   8
HETATM    8  C7  UNL     1      33.608  43.318  40.638  1.00  0.00     0.126 C 
HETATM    9  N2  UNL     1      33.282  43.204  41.857  1.00  0.00    -0.385 N 
ATOM     10  H22 UNL     1      32.666  43.907  42.264  1.00  0.00     0.157 HD
ATOM     11  H21 UNL     1      33.643  42.442  42.430  1.00  0.00     0.157 HD
BRANCH   8  12
HETATM   12  C6  UNL     1      33.087  44.419  39.810  1.00  0.00     0.288 C 
BRANCH  12  13
HETATM   13  N1  UNL     1      32.244  44.108  38.759  1.00  0.00    -0.357 N 
HETATM   14  C5  UNL     1      30.903  44.601  38.885  1.00  0.00     0.152 C 
BRANCH  13  15
HETATM   15  C4  UNL     1      32.634  44.001  37.427  1.00  0.00     0.170 C 
BRANCH  15  16
HETATM   16  C3  UNL     1      32.552  42.696  36.760  1.00  0.00     0.298 C 
HETATM   17  O2  UNL     1      33.356  41.795  37.189  1.00  0.00    -0.259 OA
BRANCH  16  18
HETATM   18  O1  UNL     1      31.731  42.318  35.735  1.00  0.00    -0.317 OA
BRANCH  18  19
HETATM   19  C2  UNL     1      30.402  42.762  35.562  1.00  0.00     0.174 C 
HETATM   20  C1  UNL     1      29.474  42.226  36.624  1.00  0.00     0.034 C 
ENDBRANCH  18  19
ENDBRANCH  16  18
ENDBRANCH  15  16
ENDBRANCH  13  15
ENDBRANCH  12  13
BRANCH  12  21
HETATM   21  O3  UNL     1      34.203  45.128  39.240  1.00  0.00    -0.369 OA
ATOM     22  H3  UNL     1      34.796  45.317  39.958  1.00  0.00     0.212 HD
ENDBRANCH  12  21
ENDBRANCH   8  12
ENDBRANCH   6   8
ENDBRANCH   1   6
BRANCH   1  23
HETATM   23  C10 UNL     1      35.367  40.365  41.421  1.00  0.00     0.119 A 
HETATM   24  N6  UNL     1      35.589  39.267  40.662  1.00  0.00    -0.317 N 
HETATM   25  C11 UNL     1      35.513  38.005  41.117  1.00  0.00     0.253 A 
ATOM     26  H6  UNL     1      35.831  39.407  39.681  1.00  0.00     0.169 HD
HETATM   27  N8  UNL     1      35.193  37.810  42.422  1.00  0.00    -0.288 N 
HETATM   28  C12 UNL     1      34.965  38.878  43.203  1.00  0.00     0.283 A 
ATOM     29  H8  UNL     1      35.126  36.866  42.803  1.00  0.00     0.172 HD
HETATM   30  O6  UNL     1      34.663  38.736  44.430  1.00  0.00    -0.265 OA
HETATM   31  C13 UNL     1      35.044  40.184  42.734  1.00  0.00     0.165 A 
BRANCH  25  32
HETATM   32  N7  UNL     1      35.763  36.926  40.242  1.00  0.00    -0.079 N 
HETATM   33  O4  UNL     1      36.910  36.695  39.861  1.00  0.00    -0.529 OA
HETATM   34  O5  UNL     1      34.732  36.143  39.825  1.00  0.00    -0.529 OA
ENDBRANCH  25  32
BRANCH  31  35
HETATM   35  O7  UNL     1      34.807  41.268  43.551  1.00  0.00    -0.354 OA
ATOM     36  H7  UNL     1      34.654  42.129  43.177  1.00  0.00     0.218 HD
ENDBRANCH  31  35
ENDBRANCH   1  23
TORSDOF 12
ENDMDL
