MODEL 1
REMARK VINA RESULT: -5.408689867      0.000      0.000
REMARK  5 active torsions:
REMARK  status: ('A' for Active; 'I' for Inactive)
REMARK    1  A    between atoms: C3_10  and  C4_11 
REMARK    2  A    between atoms: C4_11  and  C5_12 
REMARK    3  A    between atoms: C5_12  and  C6_13 
REMARK    4  A    between atoms: C6_13  and  N4_14 
REMARK    5  A    between atoms: C8_20  and  N6_21 
ROOT
HETATM    1  N1  UNL     1      -1.595 -10.588  74.382  1.00  0.00    -0.385 N 
ATOM      2  H11 UNL     1      -2.232 -11.315  74.058  1.00  0.00     0.157 HD
ATOM      3  H12 UNL     1      -2.250  -9.923  74.793  1.00  0.00     0.157 HD
HETATM    4  C1  UNL     1      -0.384 -10.376  74.364  1.00  0.00     0.107 A 
HETATM    5  N2  UNL     1       0.532  -9.331  74.830  1.00  0.00    -0.331 N 
ATOM      6  H2  UNL     1       0.249  -8.481  75.317  1.00  0.00     0.168 HD
HETATM    7  C2  UNL     1       1.651  -9.618  74.556  1.00  0.00     0.107 A 
HETATM    8  N3  UNL     1       3.109  -9.390  74.470  1.00  0.00    -0.360 N 
ATOM      9  H3  UNL     1       3.753  -8.959  75.132  1.00  0.00     0.162 HD
HETATM   10  C3  UNL     1       3.380 -10.042  72.985  1.00  0.00     0.170 C 
HETATM   11  N5  UNL     1       2.513 -10.995  72.427  1.00  0.00    -0.216 NA
HETATM   12  C7  UNL     1       1.255 -12.273  73.206  1.00  0.00     0.144 A 
HETATM   13  C8  UNL     1       1.658 -13.198  72.660  1.00  0.00     0.078 A 
HETATM   14  S1  UNL     1       3.126 -12.323  73.282  1.00  0.00    -0.093 SA
HETATM   15  C9  UNL     1       1.736 -10.913  73.935  1.00  0.00     0.138 A 
HETATM   16  C10 UNL     1       0.610 -11.384  73.740  1.00  0.00     0.033 A 
ENDROOT
BRANCH  10  17
HETATM   17  C4  UNL     1       4.824 -10.084  72.826  1.00  0.00     0.043 C 
BRANCH  17  18
HETATM   18  C5  UNL     1       5.407  -8.938  73.686  1.00  0.00     0.030 C 
BRANCH  18  19
HETATM   19  C6  UNL     1       5.999  -7.920  72.763  1.00  0.00     0.230 C 
BRANCH  19  20
HETATM   20  N4  UNL     1       5.588  -8.147  71.379  1.00  0.00    -0.079 N 
ATOM     21  H43 UNL     1       5.373  -9.130  71.210  1.00  0.00     0.274 HD
ATOM     22  H42 UNL     1       4.667  -7.750  71.193  1.00  0.00     0.274 HD
ATOM     23  H41 UNL     1       6.283  -7.799  70.719  1.00  0.00     0.274 HD
ENDBRANCH  19  20
ENDBRANCH  18  19
ENDBRANCH  17  18
ENDBRANCH  10  17
BRANCH  13  24
HETATM   24  N6  UNL     1       1.726 -14.332  71.897  1.00  0.00    -0.395 N 
ATOM     25  H62 UNL     1       1.458 -14.361  70.913  1.00  0.00     0.156 HD
ATOM     26  H61 UNL     1       1.834 -15.305  71.613  1.00  0.00     0.156 HD
ENDBRANCH  13  24
TORSDOF 5
ENDMDL
MODEL 2
REMARK VINA RESULT: -5.141602181      1.357      1.470
REMARK  5 active torsions:
REMARK  status: ('A' for Active; 'I' for Inactive)
REMARK    1  A    between atoms: C3_10  and  C4_11 
REMARK    2  A    between atoms: C4_11  and  C5_12 
REMARK    3  A    between atoms: C5_12  and  C6_13 
REMARK    4  A    between atoms: C6_13  and  N4_14 
REMARK    5  A    between atoms: C8_20  and  N6_21 
ROOT
HETATM    1  N1  UNL     1      -2.872 -10.143  74.248  1.00  0.00    -0.385 N 
ATOM      2  H11 UNL     1      -3.547 -10.906  74.186  1.00  0.00     0.157 HD
ATOM      3  H12 UNL     1      -3.493  -9.336  74.308  1.00  0.00     0.157 HD
HETATM    4  C1  UNL     1      -1.649 -10.019  74.247  1.00  0.00     0.107 A 
HETATM    5  N2  UNL     1      -0.680  -8.923  74.337  1.00  0.00    -0.331 N 
ATOM      6  H2  UNL     1      -0.920  -7.937  74.425  1.00  0.00     0.168 HD
HETATM    7  C2  UNL     1       0.426  -9.353  74.291  1.00  0.00     0.107 A 
HETATM    8  N3  UNL     1       1.900  -9.255  74.243  1.00  0.00    -0.360 N 
ATOM      9  H3  UNL     1       2.540  -8.629  74.732  1.00  0.00     0.162 HD
HETATM   10  C3  UNL     1       2.199 -10.458  73.163  1.00  0.00     0.170 C 
HETATM   11  N5  UNL     1       1.291 -11.508  72.957  1.00  0.00    -0.216 NA
HETATM   12  C7  UNL     1      -0.106 -12.303  74.070  1.00  0.00     0.144 A 
HETATM   13  C8  UNL     1       0.250 -13.388  73.968  1.00  0.00     0.078 A 
HETATM   14  S1  UNL     1       1.747 -12.415  74.313  1.00  0.00    -0.093 SA
HETATM   15  C9  UNL     1       0.442 -10.791  74.241  1.00  0.00     0.138 A 
HETATM   16  C10 UNL     1      -0.707 -11.242  74.156  1.00  0.00     0.033 A 
ENDROOT
BRANCH  10  17
HETATM   17  C4  UNL     1       3.642 -10.635  73.153  1.00  0.00     0.043 C 
BRANCH  17  18
HETATM   18  C5  UNL     1       4.258  -9.361  73.779  1.00  0.00     0.030 C 
BRANCH  18  19
HETATM   19  C6  UNL     1       5.555  -9.084  73.086  1.00  0.00     0.230 C 
BRANCH  19  20
HETATM   20  N4  UNL     1       5.475  -7.885  72.255  1.00  0.00    -0.079 N 
ATOM     21  H43 UNL     1       5.983  -8.004  71.379  1.00  0.00     0.274 HD
ATOM     22  H42 UNL     1       4.537  -7.755  71.878  1.00  0.00     0.274 HD
ATOM     23  H41 UNL     1       5.792  -7.057  72.760  1.00  0.00     0.274 HD
ENDBRANCH  19  20
ENDBRANCH  18  19
ENDBRANCH  17  18
ENDBRANCH  10  17
BRANCH  13  24
HETATM   24  N6  UNL     1       0.269 -14.734  73.722  1.00  0.00    -0.395 N 
ATOM     25  H62 UNL     1       0.159 -15.438  74.451  1.00  0.00     0.156 HD
ATOM     26  H61 UNL     1       0.377 -15.633  73.252  1.00  0.00     0.156 HD
ENDBRANCH  13  24
TORSDOF 5
ENDMDL
MODEL 3
REMARK VINA RESULT: -4.974723660      1.793      5.286
REMARK  5 active torsions:
REMARK  status: ('A' for Active; 'I' for Inactive)
REMARK    1  A    between atoms: C3_10  and  C4_11 
REMARK    2  A    between atoms: C4_11  and  C5_12 
REMARK    3  A    between atoms: C5_12  and  C6_13 
REMARK    4  A    between atoms: C6_13  and  N4_14 
REMARK    5  A    between atoms: C8_20  and  N6_21 
ROOT
HETATM    1  N1  UNL     1       4.640  -8.651  73.627  1.00  0.00    -0.385 N 
ATOM      2  H11 UNL     1       4.414  -7.734  74.013  1.00  0.00     0.157 HD
ATOM      3  H12 UNL     1       5.630  -8.534  73.412  1.00  0.00     0.157 HD
HETATM    4  C1  UNL     1       4.046  -9.701  73.389  1.00  0.00     0.107 A 
HETATM    5  N2  UNL     1       4.371 -11.018  72.834  1.00  0.00    -0.331 N 
ATOM      6  H2  UNL     1       5.294 -11.302  72.506  1.00  0.00     0.168 HD
HETATM    7  C2  UNL     1       3.402 -11.704  72.821  1.00  0.00     0.107 A 
HETATM    8  N3  UNL     1       2.633 -12.929  72.515  1.00  0.00    -0.360 N 
ATOM      9  H3  UNL     1       2.900 -13.912  72.572  1.00  0.00     0.162 HD
HETATM   10  C3  UNL     1       1.218 -12.231  72.056  1.00  0.00     0.170 C 
HETATM   11  N5  UNL     1       0.859 -10.941  72.478  1.00  0.00    -0.216 NA
HETATM   12  C7  UNL     1       1.362  -9.854  74.023  1.00  0.00     0.144 A 
HETATM   13  C8  UNL     1       0.294  -9.615  74.366  1.00  0.00     0.078 A 
HETATM   14  S1  UNL     1       0.303 -11.398  74.012  1.00  0.00    -0.093 SA
HETATM   15  C9  UNL     1       2.270 -11.047  73.417  1.00  0.00     0.138 A 
HETATM   16  C10 UNL     1       2.544  -9.878  73.714  1.00  0.00     0.033 A 
ENDROOT
BRANCH  10  17
HETATM   17  C4  UNL     1       0.265 -13.320  71.911  1.00  0.00     0.043 C 
BRANCH  17  18
HETATM   18  C5  UNL     1       1.053 -14.637  72.099  1.00  0.00     0.030 C 
BRANCH  18  19
HETATM   19  C6  UNL     1       0.213 -15.568  72.916  1.00  0.00     0.230 C 
BRANCH  19  20
HETATM   20  N4  UNL     1       0.146 -15.145  74.313  1.00  0.00    -0.079 N 
ATOM     21  H43 UNL     1      -0.713 -14.630  74.506  1.00  0.00     0.274 HD
ATOM     22  H42 UNL     1      -0.002 -15.939  74.936  1.00  0.00     0.274 HD
ATOM     23  H41 UNL     1       0.971 -14.609  74.582  1.00  0.00     0.274 HD
ENDBRANCH  19  20
ENDBRANCH  18  19
ENDBRANCH  17  18
ENDBRANCH  10  17
BRANCH  13  24
HETATM   24  N6  UNL     1      -0.827  -8.930  74.747  1.00  0.00    -0.395 N 
ATOM     25  H62 UNL     1      -1.057  -7.997  74.405  1.00  0.00     0.156 HD
ATOM     26  H61 UNL     1      -1.680  -8.661  75.238  1.00  0.00     0.156 HD
ENDBRANCH  13  24
TORSDOF 5
ENDMDL
MODEL 4
REMARK VINA RESULT: -4.899070764      1.997      5.127
REMARK  5 active torsions:
REMARK  status: ('A' for Active; 'I' for Inactive)
REMARK    1  A    between atoms: C3_10  and  C4_11 
REMARK    2  A    between atoms: C4_11  and  C5_12 
REMARK    3  A    between atoms: C5_12  and  C6_13 
REMARK    4  A    between atoms: C6_13  and  N4_14 
REMARK    5  A    between atoms: C8_20  and  N6_21 
ROOT
HETATM    1  N1  UNL     1       2.502 -13.952  72.010  1.00  0.00    -0.385 N 
ATOM      2  H11 UNL     1       3.484 -13.886  71.743  1.00  0.00     0.157 HD
ATOM      3  H12 UNL     1       2.254 -14.862  71.622  1.00  0.00     0.157 HD
HETATM    4  C1  UNL     1       1.678 -13.255  72.600  1.00  0.00     0.107 A 
HETATM    5  N2  UNL     1       0.267 -13.351  72.984  1.00  0.00    -0.331 N 
ATOM      6  H2  UNL     1      -0.341 -14.144  72.780  1.00  0.00     0.168 HD
HETATM    7  C2  UNL     1      -0.064 -12.371  73.566  1.00  0.00     0.107 A 
HETATM    8  N3  UNL     1      -1.026 -11.478  74.245  1.00  0.00    -0.360 N 
ATOM      9  H3  UNL     1      -1.795 -11.690  74.880  1.00  0.00     0.162 HD
HETATM   10  C3  UNL     1      -0.483 -10.037  73.669  1.00  0.00     0.170 C 
HETATM   11  N5  UNL     1       0.833  -9.873  73.209  1.00  0.00    -0.216 NA
HETATM   12  C7  UNL     1       2.505 -10.812  73.587  1.00  0.00     0.144 A 
HETATM   13  C8  UNL     1       3.119  -9.881  73.854  1.00  0.00     0.078 A 
HETATM   14  S1  UNL     1       1.541  -9.693  74.738  1.00  0.00    -0.093 SA
HETATM   15  C9  UNL     1       1.037 -11.466  73.763  1.00  0.00     0.138 A 
HETATM   16  C10 UNL     1       2.053 -11.875  73.190  1.00  0.00     0.033 A 
ENDROOT
BRANCH  10  17
HETATM   17  C4  UNL     1      -1.205  -9.014  74.409  1.00  0.00     0.043 C 
BRANCH  17  18
HETATM   18  C5  UNL     1      -2.297  -8.459  73.465  1.00  0.00     0.030 C 
BRANCH  18  19
HETATM   19  C6  UNL     1      -2.913  -7.264  74.121  1.00  0.00     0.230 C 
BRANCH  19  20
HETATM   20  N4  UNL     1      -1.925  -6.495  74.874  1.00  0.00    -0.079 N 
ATOM     21  H43 UNL     1      -1.148  -7.082  75.179  1.00  0.00     0.274 HD
ATOM     22  H42 UNL     1      -1.411  -5.854  74.270  1.00  0.00     0.274 HD
ATOM     23  H41 UNL     1      -2.351  -6.003  75.660  1.00  0.00     0.274 HD
ENDBRANCH  19  20
ENDBRANCH  18  19
ENDBRANCH  17  18
ENDBRANCH  10  17
BRANCH  13  24
HETATM   24  N6  UNL     1       4.106  -8.934  73.870  1.00  0.00    -0.395 N 
ATOM     25  H62 UNL     1       3.920  -7.931  73.859  1.00  0.00     0.156 HD
ATOM     26  H61 UNL     1       5.022  -8.487  73.837  1.00  0.00     0.156 HD
ENDBRANCH  13  24
TORSDOF 5
ENDMDL
MODEL 5
REMARK VINA RESULT: -4.844454406      2.008      4.909
REMARK  5 active torsions:
REMARK  status: ('A' for Active; 'I' for Inactive)
REMARK    1  A    between atoms: C3_10  and  C4_11 
REMARK    2  A    between atoms: C4_11  and  C5_12 
REMARK    3  A    between atoms: C5_12  and  C6_13 
REMARK    4  A    between atoms: C6_13  and  N4_14 
REMARK    5  A    between atoms: C8_20  and  N6_21 
ROOT
HETATM    1  N1  UNL     1       2.068 -15.229  71.684  1.00  0.00    -0.385 N 
ATOM      2  H11 UNL     1       2.961 -15.360  71.210  1.00  0.00     0.157 HD
ATOM      3  H12 UNL     1       1.603 -16.113  71.474  1.00  0.00     0.157 HD
HETATM    4  C1  UNL     1       1.516 -14.349  72.341  1.00  0.00     0.107 A 
HETATM    5  N2  UNL     1       0.232 -14.161  73.022  1.00  0.00    -0.331 N 
ATOM      6  H2  UNL     1      -0.519 -14.849  73.052  1.00  0.00     0.168 HD
HETATM    7  C2  UNL     1       0.195 -13.090  73.533  1.00  0.00     0.107 A 
HETATM    8  N3  UNL     1      -0.439 -11.984  74.281  1.00  0.00    -0.360 N 
ATOM      9  H3  UNL     1      -1.066 -12.001  75.085  1.00  0.00     0.162 HD
HETATM   10  C3  UNL     1       0.169 -10.718  73.427  1.00  0.00     0.170 C 
HETATM   11  N5  UNL     1       1.354 -10.831  72.683  1.00  0.00    -0.216 NA
HETATM   12  C7  UNL     1       2.907 -12.011  72.817  1.00  0.00     0.144 A 
HETATM   13  C8  UNL     1       3.699 -11.181  72.828  1.00  0.00     0.078 A 
HETATM   14  S1  UNL     1       2.412 -10.641  73.994  1.00  0.00    -0.093 SA
HETATM   15  C9  UNL     1       1.436 -12.378  73.378  1.00  0.00     0.138 A 
HETATM   16  C10 UNL     1       2.220 -13.009  72.660  1.00  0.00     0.033 A 
ENDROOT
BRANCH  10  17
HETATM   17  C4  UNL     1      -0.201  -9.523  74.168  1.00  0.00     0.043 C 
BRANCH  17  18
HETATM   18  C5  UNL     1      -1.658  -9.722  74.648  1.00  0.00     0.030 C 
BRANCH  18  19
HETATM   19  C6  UNL     1      -2.476  -8.581  74.132  1.00  0.00     0.230 C 
BRANCH  19  20
HETATM   20  N4  UNL     1      -1.968  -7.296  74.610  1.00  0.00    -0.079 N 
ATOM     21  H43 UNL     1      -2.727  -6.638  74.788  1.00  0.00     0.274 HD
ATOM     22  H42 UNL     1      -1.598  -7.371  75.557  1.00  0.00     0.274 HD
ATOM     23  H41 UNL     1      -1.278  -6.905  73.970  1.00  0.00     0.274 HD
ENDBRANCH  19  20
ENDBRANCH  18  19
ENDBRANCH  17  18
ENDBRANCH  10  17
BRANCH  13  24
HETATM   24  N6  UNL     1       4.796 -10.425  72.517  1.00  0.00    -0.395 N 
ATOM     25  H62 UNL     1       4.897  -9.921  71.637  1.00  0.00     0.156 HD
ATOM     26  H61 UNL     1       5.722 -10.000  72.550  1.00  0.00     0.156 HD
ENDBRANCH  13  24
TORSDOF 5
ENDMDL
