MODEL 1
REMARK VINA RESULT: -3.968717535      0.000      0.000
REMARK  5 active torsions:
REMARK  status: ('A' for Active; 'I' for Inactive)
REMARK    1  A    between atoms: S1_2  and  C2_3 
REMARK    2  A    between atoms: C2_3  and  C3_7 
REMARK    3  A    between atoms: C3_7  and  C4_8 
REMARK    4  A    between atoms: C4_8  and  S2_9 
REMARK    5  A    between atoms: S2_9  and  C5_10 
ROOT
HETATM    1  C4  UNL     1       2.208 -10.543  74.628  1.00  0.00     0.083 C 
ENDROOT
BRANCH   1   2
HETATM    2  C3  UNL     1       3.075  -9.370  74.238  1.00  0.00     0.074 C 
BRANCH   2   3
HETATM    3  C2  UNL     1       4.199  -9.731  73.349  1.00  0.00     0.040 C 
HETATM    4  N1  UNL     1       4.116 -10.817  72.674  1.00  0.00    -0.397 N 
ATOM      5  H12 UNL     1       4.892 -11.066  72.061  1.00  0.00     0.156 HD
ATOM      6  H11 UNL     1       3.279 -11.392  72.773  1.00  0.00     0.156 HD
BRANCH   3   7
HETATM    7  S1  UNL     1       5.658  -8.727  73.176  1.00  0.00    -0.122 SA
HETATM    8  C1  UNL     1       5.663  -7.733  71.678  1.00  0.00     0.097 C 
ENDBRANCH   3   7
ENDBRANCH   2   3
ENDBRANCH   1   2
BRANCH   1   9
HETATM    9  S2  UNL     1       0.503 -10.138  74.194  1.00  0.00    -0.135 SA
BRANCH   9  10
HETATM   10  C5  UNL     1       0.095 -10.700  72.508  1.00  0.00     0.221 C 
HETATM   11  N2  UNL     1       1.144 -11.548  71.982  1.00  0.00    -0.120 NA
HETATM   12  N3  UNL     1       0.953 -12.888  72.193  1.00  0.00    -0.337 N 
HETATM   13  C6  UNL     1       0.545 -13.289  73.499  1.00  0.00     0.145 C 
ATOM     14  H3  UNL     1       1.097 -13.569  71.449  1.00  0.00     0.175 HD
HETATM   15  C7  UNL     1      -0.941 -13.097  73.747  1.00  0.00     0.097 C 
HETATM   16  S3  UNL     1      -1.436 -11.700  72.672  1.00  0.00    -0.134 SA
ENDBRANCH   9  10
ENDBRANCH   1   9
TORSDOF 5
ENDMDL
MODEL 2
REMARK VINA RESULT: -3.885695960      2.880      3.486
REMARK  5 active torsions:
REMARK  status: ('A' for Active; 'I' for Inactive)
REMARK    1  A    between atoms: S1_2  and  C2_3 
REMARK    2  A    between atoms: C2_3  and  C3_7 
REMARK    3  A    between atoms: C3_7  and  C4_8 
REMARK    4  A    between atoms: C4_8  and  S2_9 
REMARK    5  A    between atoms: S2_9  and  C5_10 
ROOT
HETATM    1  C4  UNL     1       1.146 -11.640  72.986  1.00  0.00     0.083 C 
ENDROOT
BRANCH   1   2
HETATM    2  C3  UNL     1       1.848 -11.198  74.248  1.00  0.00     0.074 C 
BRANCH   2   3
HETATM    3  C2  UNL     1       2.697 -10.002  74.069  1.00  0.00     0.040 C 
HETATM    4  N1  UNL     1       2.305  -8.896  74.584  1.00  0.00    -0.397 N 
ATOM      5  H12 UNL     1       2.890  -8.070  74.461  1.00  0.00     0.156 HD
ATOM      6  H11 UNL     1       1.424  -8.880  75.098  1.00  0.00     0.156 HD
BRANCH   3   7
HETATM    7  S1  UNL     1       4.234 -10.030  73.172  1.00  0.00    -0.122 SA
HETATM    8  C1  UNL     1       5.401  -8.779  73.725  1.00  0.00     0.097 C 
ENDBRANCH   3   7
ENDBRANCH   2   3
ENDBRANCH   1   2
BRANCH   1   9
HETATM    9  S2  UNL     1      -0.396 -10.709  72.859  1.00  0.00    -0.135 SA
BRANCH   9  10
HETATM   10  C5  UNL     1      -1.066 -10.304  74.506  1.00  0.00     0.221 C 
HETATM   11  N2  UNL     1      -0.795  -8.923  74.845  1.00  0.00    -0.120 NA
HETATM   12  N3  UNL     1      -1.795  -8.048  74.512  1.00  0.00    -0.337 N 
HETATM   13  C6  UNL     1      -2.368  -8.178  73.213  1.00  0.00     0.145 C 
ATOM     14  H3  UNL     1      -2.116  -7.334  75.165  1.00  0.00     0.175 HD
HETATM   15  C7  UNL     1      -3.393  -9.295  73.119  1.00  0.00     0.097 C 
HETATM   16  S3  UNL     1      -2.883 -10.526  74.374  1.00  0.00    -0.134 SA
ENDBRANCH   9  10
ENDBRANCH   1   9
TORSDOF 5
ENDMDL
MODEL 3
REMARK VINA RESULT: -3.850790590      2.405      2.944
REMARK  5 active torsions:
REMARK  status: ('A' for Active; 'I' for Inactive)
REMARK    1  A    between atoms: S1_2  and  C2_3 
REMARK    2  A    between atoms: C2_3  and  C3_7 
REMARK    3  A    between atoms: C3_7  and  C4_8 
REMARK    4  A    between atoms: C4_8  and  S2_9 
REMARK    5  A    between atoms: S2_9  and  C5_10 
ROOT
HETATM    1  C4  UNL     1       1.962 -10.883  74.283  1.00  0.00     0.083 C 
ENDROOT
BRANCH   1   2
HETATM    2  C3  UNL     1       2.861  -9.679  74.131  1.00  0.00     0.074 C 
BRANCH   2   3
HETATM    3  C2  UNL     1       4.087  -9.947  73.350  1.00  0.00     0.040 C 
HETATM    4  N1  UNL     1       4.117 -10.988  72.605  1.00  0.00    -0.397 N 
ATOM      5  H12 UNL     1       4.963 -11.174  72.066  1.00  0.00     0.156 HD
ATOM      6  H11 UNL     1       3.297 -11.594  72.576  1.00  0.00     0.156 HD
BRANCH   3   7
HETATM    7  S1  UNL     1       5.518  -8.890  73.400  1.00  0.00    -0.122 SA
HETATM    8  C1  UNL     1       5.687  -7.854  71.941  1.00  0.00     0.097 C 
ENDBRANCH   3   7
ENDBRANCH   2   3
ENDBRANCH   1   2
BRANCH   1   9
HETATM    9  S2  UNL     1       0.402 -10.514  73.450  1.00  0.00    -0.135 SA
BRANCH   9  10
HETATM   10  C5  UNL     1      -0.917 -10.135  74.650  1.00  0.00     0.221 C 
HETATM   11  N2  UNL     1      -1.045  -8.705  74.838  1.00  0.00    -0.120 NA
HETATM   12  N3  UNL     1      -1.970  -8.104  74.025  1.00  0.00    -0.337 N 
HETATM   13  C6  UNL     1      -1.956  -8.463  72.646  1.00  0.00     0.145 C 
ATOM     14  H3  UNL     1      -2.639  -7.428  74.392  1.00  0.00     0.175 HD
HETATM   15  C7  UNL     1      -2.652  -9.784  72.364  1.00  0.00     0.097 C 
HETATM   16  S3  UNL     1      -2.470 -10.765  73.899  1.00  0.00    -0.134 SA
ENDBRANCH   9  10
ENDBRANCH   1   9
TORSDOF 5
ENDMDL
MODEL 4
REMARK VINA RESULT: -3.518257136      2.681      3.159
REMARK  5 active torsions:
REMARK  status: ('A' for Active; 'I' for Inactive)
REMARK    1  A    between atoms: S1_2  and  C2_3 
REMARK    2  A    between atoms: C2_3  and  C3_7 
REMARK    3  A    between atoms: C3_7  and  C4_8 
REMARK    4  A    between atoms: C4_8  and  S2_9 
REMARK    5  A    between atoms: S2_9  and  C5_10 
ROOT
HETATM    1  C4  UNL     1       1.832 -12.151  72.922  1.00  0.00     0.083 C 
ENDROOT
BRANCH   1   2
HETATM    2  C3  UNL     1       1.861 -11.310  74.176  1.00  0.00     0.074 C 
BRANCH   2   3
HETATM    3  C2  UNL     1       2.628 -10.054  74.031  1.00  0.00     0.040 C 
HETATM    4  N1  UNL     1       2.138  -8.982  74.532  1.00  0.00    -0.397 N 
ATOM      5  H12 UNL     1       2.667  -8.115  74.433  1.00  0.00     0.156 HD
ATOM      6  H11 UNL     1       1.239  -9.031  75.011  1.00  0.00     0.156 HD
BRANCH   3   7
HETATM    7  S1  UNL     1       4.198  -9.969  73.196  1.00  0.00    -0.122 SA
HETATM    8  C1  UNL     1       5.301  -8.727  73.884  1.00  0.00     0.097 C 
ENDBRANCH   3   7
ENDBRANCH   2   3
ENDBRANCH   1   2
BRANCH   1   9
HETATM    9  S2  UNL     1       0.651 -13.492  73.186  1.00  0.00    -0.135 SA
BRANCH   9  10
HETATM   10  C5  UNL     1       0.072 -14.188  71.603  1.00  0.00     0.221 C 
HETATM   11  N2  UNL     1       1.103 -14.092  70.592  1.00  0.00    -0.120 NA
HETATM   12  N3  UNL     1       1.902 -15.200  70.487  1.00  0.00    -0.337 N 
HETATM   13  C6  UNL     1       2.392 -15.766  71.700  1.00  0.00     0.145 C 
ATOM     14  H3  UNL     1       2.137 -15.602  69.580  1.00  0.00     0.175 HD
HETATM   15  C7  UNL     1       1.372 -16.641  72.407  1.00  0.00     0.097 C 
HETATM   16  S3  UNL     1      -0.260 -15.963  71.931  1.00  0.00    -0.134 SA
ENDBRANCH   9  10
ENDBRANCH   1   9
TORSDOF 5
ENDMDL
MODEL 5
REMARK VINA RESULT: -3.479399567      3.203      4.098
REMARK  5 active torsions:
REMARK  status: ('A' for Active; 'I' for Inactive)
REMARK    1  A    between atoms: S1_2  and  C2_3 
REMARK    2  A    between atoms: C2_3  and  C3_7 
REMARK    3  A    between atoms: C3_7  and  C4_8 
REMARK    4  A    between atoms: C4_8  and  S2_9 
REMARK    5  A    between atoms: S2_9  and  C5_10 
ROOT
HETATM    1  C4  UNL     1       1.667 -12.055  73.026  1.00  0.00     0.083 C 
ENDROOT
BRANCH   1   2
HETATM    2  C3  UNL     1       1.778 -11.383  74.374  1.00  0.00     0.074 C 
BRANCH   2   3
HETATM    3  C2  UNL     1       1.188 -10.029  74.414  1.00  0.00     0.040 C 
HETATM    4  N1  UNL     1       1.975  -9.026  74.543  1.00  0.00    -0.397 N 
ATOM      5  H12 UNL     1       1.568  -8.092  74.571  1.00  0.00     0.156 HD
ATOM      6  H11 UNL     1       2.978  -9.198  74.614  1.00  0.00     0.156 HD
BRANCH   3   7
HETATM    7  S1  UNL     1      -0.562  -9.731  74.289  1.00  0.00    -0.122 SA
HETATM    8  C1  UNL     1      -1.101  -9.357  72.615  1.00  0.00     0.097 C 
ENDBRANCH   3   7
ENDBRANCH   2   3
ENDBRANCH   1   2
BRANCH   1   9
HETATM    9  S2  UNL     1       0.648 -13.532  73.228  1.00  0.00    -0.135 SA
BRANCH   9  10
HETATM   10  C5  UNL     1       0.101 -14.187  71.617  1.00  0.00     0.221 C 
HETATM   11  N2  UNL     1       1.159 -14.084  70.634  1.00  0.00    -0.120 NA
HETATM   12  N3  UNL     1       1.946 -15.199  70.526  1.00  0.00    -0.337 N 
HETATM   13  C6  UNL     1       2.398 -15.797  71.738  1.00  0.00     0.145 C 
ATOM     14  H3  UNL     1       2.199 -15.585  69.616  1.00  0.00     0.175 HD
HETATM   15  C7  UNL     1       1.349 -16.674  72.401  1.00  0.00     0.097 C 
HETATM   16  S3  UNL     1      -0.262 -15.964  71.899  1.00  0.00    -0.134 SA
ENDBRANCH   9  10
ENDBRANCH   1   9
TORSDOF 5
ENDMDL
