MODEL 1
REMARK VINA RESULT: -4.679274242      0.000      0.000
REMARK  2 active torsions:
REMARK  status: ('A' for Active; 'I' for Inactive)
REMARK    1  A    between atoms: N2_3  and  C2_5 
REMARK    2  A    between atoms: N3_7  and  N4_8 
ROOT
HETATM    1  C2  UNL     1      26.304  38.256  45.941  1.00  0.00     0.191 A 
HETATM    2  C3  UNL     1      27.608  38.710  46.370  1.00  0.00     0.158 A 
HETATM    3  N3  UNL     1      27.408  38.180  44.995  1.00  0.00    -0.210 NA
ENDROOT
BRANCH   1   4
HETATM    4  N2  UNL     1      25.232  39.112  45.537  1.00  0.00    -0.368 N 
HETATM    5  C1  UNL     1      24.479  39.793  46.296  1.00  0.00     0.186 C 
HETATM    6  N1  UNL     1      23.457  40.597  45.749  1.00  0.00    -0.097 NA
ATOM      7  H2  UNL     1      25.056  39.183  44.535  1.00  0.00     0.161 HD
ENDBRANCH   1   4
BRANCH   3   8
HETATM    8  N4  UNL     1      27.938  36.889  44.783  1.00  0.00    -0.361 NA
ATOM      9  H42 UNL     1      28.562  36.815  43.980  1.00  0.00     0.171 HD
ATOM     10  H41 UNL     1      28.947  36.804  44.906  1.00  0.00     0.171 HD
ENDBRANCH   3   8
TORSDOF 2
ENDMDL
MODEL 2
REMARK VINA RESULT: -4.512595750      0.988      3.912
REMARK  2 active torsions:
REMARK  status: ('A' for Active; 'I' for Inactive)
REMARK    1  A    between atoms: N2_3  and  C2_5 
REMARK    2  A    between atoms: N3_7  and  N4_8 
ROOT
HETATM    1  C2  UNL     1      25.823  39.041  45.875  1.00  0.00     0.191 A 
HETATM    2  C3  UNL     1      24.956  38.594  46.942  1.00  0.00     0.158 A 
HETATM    3  N3  UNL     1      24.401  38.896  45.596  1.00  0.00    -0.210 NA
ENDROOT
BRANCH   1   4
HETATM    4  N2  UNL     1      26.671  38.190  45.100  1.00  0.00    -0.368 N 
HETATM    5  C1  UNL     1      27.773  37.682  45.465  1.00  0.00     0.186 C 
HETATM    6  N1  UNL     1      28.504  36.858  44.585  1.00  0.00    -0.097 NA
ATOM      7  H2  UNL     1      26.357  37.969  44.155  1.00  0.00     0.161 HD
ENDBRANCH   1   4
BRANCH   3   8
HETATM    8  N4  UNL     1      23.672  40.103  45.521  1.00  0.00    -0.361 NA
ATOM      9  H42 UNL     1      24.244  40.946  45.566  1.00  0.00     0.171 HD
ATOM     10  H41 UNL     1      23.844  40.668  44.690  1.00  0.00     0.171 HD
ENDBRANCH   3   8
TORSDOF 2
ENDMDL
MODEL 3
REMARK VINA RESULT: -4.085592782      1.849      2.058
REMARK  2 active torsions:
REMARK  status: ('A' for Active; 'I' for Inactive)
REMARK    1  A    between atoms: N2_3  and  C2_5 
REMARK    2  A    between atoms: N3_7  and  N4_8 
ROOT
HETATM    1  C2  UNL     1      27.713  37.981  45.551  1.00  0.00     0.191 A 
HETATM    2  C3  UNL     1      28.530  36.846  45.186  1.00  0.00     0.158 A 
HETATM    3  N3  UNL     1      28.359  37.225  46.614  1.00  0.00    -0.210 NA
ENDROOT
BRANCH   1   4
HETATM    4  N2  UNL     1      26.284  37.978  45.602  1.00  0.00    -0.368 N 
HETATM    5  C1  UNL     1      25.536  38.937  45.959  1.00  0.00     0.186 C 
HETATM    6  N1  UNL     1      24.134  38.785  45.958  1.00  0.00    -0.097 NA
ATOM      7  H2  UNL     1      25.818  37.115  45.323  1.00  0.00     0.161 HD
ENDBRANCH   1   4
BRANCH   3   8
HETATM    8  N4  UNL     1      29.489  37.840  47.195  1.00  0.00    -0.361 NA
ATOM      9  H42 UNL     1      29.386  38.840  47.365  1.00  0.00     0.171 HD
ATOM     10  H41 UNL     1      29.354  38.204  48.139  1.00  0.00     0.171 HD
ENDBRANCH   3   8
TORSDOF 2
ENDMDL
MODEL 4
REMARK VINA RESULT: -4.020307833      1.280      3.954
REMARK  2 active torsions:
REMARK  status: ('A' for Active; 'I' for Inactive)
REMARK    1  A    between atoms: N2_3  and  C2_5 
REMARK    2  A    between atoms: N3_7  and  N4_8 
ROOT
HETATM    1  C2  UNL     1      26.530  38.765  45.250  1.00  0.00     0.191 A 
HETATM    2  C3  UNL     1      26.569  39.693  46.358  1.00  0.00     0.158 A 
HETATM    3  N3  UNL     1      25.429  38.751  46.202  1.00  0.00    -0.210 NA
ENDROOT
BRANCH   1   4
HETATM    4  N2  UNL     1      27.271  37.545  45.179  1.00  0.00    -0.368 N 
HETATM    5  C1  UNL     1      28.397  37.309  45.712  1.00  0.00     0.186 C 
HETATM    6  N1  UNL     1      29.009  36.048  45.554  1.00  0.00    -0.097 NA
ATOM      7  H2  UNL     1      26.850  36.784  44.645  1.00  0.00     0.161 HD
ENDBRANCH   1   4
BRANCH   3   8
HETATM    8  N4  UNL     1      24.232  39.351  45.755  1.00  0.00    -0.361 NA
ATOM      9  H42 UNL     1      24.267  40.369  45.690  1.00  0.00     0.171 HD
ATOM     10  H41 UNL     1      24.288  39.822  44.851  1.00  0.00     0.171 HD
ENDBRANCH   3   8
TORSDOF 2
ENDMDL
MODEL 5
REMARK VINA RESULT: -3.863115543      1.197      3.885
REMARK  2 active torsions:
REMARK  status: ('A' for Active; 'I' for Inactive)
REMARK    1  A    between atoms: N2_3  and  C2_5 
REMARK    2  A    between atoms: N3_7  and  N4_8 
ROOT
HETATM    1  C2  UNL     1      25.332  38.719  46.731  1.00  0.00     0.191 A 
HETATM    2  C3  UNL     1      24.150  38.188  46.091  1.00  0.00     0.158 A 
HETATM    3  N3  UNL     1      24.652  39.544  45.744  1.00  0.00    -0.210 NA
ENDROOT
BRANCH   1   4
HETATM    4  N2  UNL     1      26.675  38.366  46.388  1.00  0.00    -0.368 N 
HETATM    5  C1  UNL     1      27.074  37.882  45.286  1.00  0.00     0.186 C 
HETATM    6  N1  UNL     1      28.439  37.583  45.093  1.00  0.00    -0.097 NA
ATOM      7  H2  UNL     1      27.385  38.520  47.103  1.00  0.00     0.161 HD
ENDBRANCH   1   4
BRANCH   3   8
HETATM    8  N4  UNL     1      23.881  40.605  46.269  1.00  0.00    -0.361 NA
ATOM      9  H42 UNL     1      23.404  41.169  45.565  1.00  0.00     0.171 HD
ATOM     10  H41 UNL     1      22.874  40.528  46.125  1.00  0.00     0.171 HD
ENDBRANCH   3   8
TORSDOF 2
ENDMDL
