MODEL 1
REMARK VINA RESULT: -4.769082623      0.000      0.000
REMARK  2 active torsions:
REMARK  status: ('A' for Active; 'I' for Inactive)
REMARK    1  A    between atoms: N1_1  and  N2_4 
REMARK    2  A    between atoms: N3_6  and  N4_8 
ROOT
HETATM    1  N4  UNL     1      25.400  39.637  46.171  1.00  0.00    -0.269 N 
HETATM    2  C1  UNL     1      26.777  39.615  46.009  1.00  0.00     0.183 A 
HETATM    3  C2  UNL     1      27.709  38.482  46.375  1.00  0.00     0.265 C 
HETATM    4  N5  UNL     1      26.968  37.858  45.248  1.00  0.00    -0.049 N 
ATOM      5  H51 UNL     1      27.082  36.891  44.945  1.00  0.00     0.279 HD
ATOM      6  H52 UNL     1      27.117  38.079  44.263  1.00  0.00     0.279 HD
HETATM    7  C3  UNL     1      25.865  38.345  46.042  1.00  0.00     0.329 A 
ENDROOT
BRANCH   1   8
HETATM    8  N3  UNL     1      24.270  40.442  46.350  1.00  0.00    -0.228 N 
HETATM    9  N2  UNL     1      23.526  40.621  45.335  1.00  0.00    -0.235 N 
ATOM     10  H2  UNL     1      23.753  40.192  44.438  1.00  0.00     0.209 HD
ATOM     11  H3  UNL     1      24.052  40.865  47.252  1.00  0.00     0.209 HD
BRANCH   9  12
HETATM   12  N1  UNL     1      22.405  41.408  45.479  1.00  0.00    -0.330 N 
ATOM     13  H12 UNL     1      22.051  41.623  46.411  1.00  0.00     0.178 HD
ATOM     14  H11 UNL     1      21.952  41.762  44.636  1.00  0.00     0.178 HD
ENDBRANCH   9  12
ENDBRANCH   1   8
TORSDOF 2
ENDMDL
MODEL 2
REMARK VINA RESULT: -4.516887742      1.632      2.170
REMARK  2 active torsions:
REMARK  status: ('A' for Active; 'I' for Inactive)
REMARK    1  A    between atoms: N1_1  and  N2_4 
REMARK    2  A    between atoms: N3_6  and  N4_8 
ROOT
HETATM    1  N4  UNL     1      26.952  38.438  45.831  1.00  0.00    -0.269 N 
HETATM    2  C1  UNL     1      28.160  38.436  46.513  1.00  0.00     0.183 A 
HETATM    3  C2  UNL     1      28.969  37.223  46.909  1.00  0.00     0.265 C 
HETATM    4  N5  UNL     1      29.121  37.167  45.432  1.00  0.00    -0.049 N 
ATOM      5  H51 UNL     1      29.594  36.419  44.926  1.00  0.00     0.279 HD
ATOM      6  H52 UNL     1      29.726  37.782  44.888  1.00  0.00     0.279 HD
HETATM    7  C3  UNL     1      27.688  37.309  45.538  1.00  0.00     0.329 A 
ENDROOT
BRANCH   1   8
HETATM    8  N3  UNL     1      25.760  39.130  45.593  1.00  0.00    -0.228 N 
HETATM    9  N2  UNL     1      24.679  38.489  45.771  1.00  0.00    -0.235 N 
ATOM     10  H2  UNL     1      24.691  37.515  46.074  1.00  0.00     0.209 HD
ATOM     11  H3  UNL     1      25.760  40.104  45.290  1.00  0.00     0.209 HD
BRANCH   9  12
HETATM   12  N1  UNL     1      23.487  39.143  45.544  1.00  0.00    -0.330 N 
ATOM     13  H12 UNL     1      22.688  38.629  45.175  1.00  0.00     0.178 HD
ATOM     14  H11 UNL     1      23.436  40.139  45.756  1.00  0.00     0.178 HD
ENDBRANCH   9  12
ENDBRANCH   1   8
TORSDOF 2
ENDMDL
MODEL 3
REMARK VINA RESULT: -4.468735065      0.776      1.099
REMARK  2 active torsions:
REMARK  status: ('A' for Active; 'I' for Inactive)
REMARK    1  A    between atoms: N1_1  and  N2_4 
REMARK    2  A    between atoms: N3_6  and  N4_8 
ROOT
HETATM    1  N4  UNL     1      25.438  39.674  46.239  1.00  0.00    -0.269 N 
HETATM    2  C1  UNL     1      26.018  38.415  46.197  1.00  0.00     0.183 A 
HETATM    3  C2  UNL     1      27.291  38.033  45.477  1.00  0.00     0.265 C 
HETATM    4  N5  UNL     1      27.846  38.906  46.542  1.00  0.00    -0.049 N 
ATOM      5  H51 UNL     1      28.826  39.175  46.619  1.00  0.00     0.279 HD
ATOM      6  H52 UNL     1      27.947  38.636  47.521  1.00  0.00     0.279 HD
HETATM    7  C3  UNL     1      26.799  39.759  46.031  1.00  0.00     0.329 A 
ENDROOT
BRANCH   1   8
HETATM    8  N3  UNL     1      24.249  40.394  46.393  1.00  0.00    -0.228 N 
HETATM    9  N2  UNL     1      23.587  40.641  45.337  1.00  0.00    -0.235 N 
ATOM     10  H2  UNL     1      23.918  40.323  44.426  1.00  0.00     0.209 HD
ATOM     11  H3  UNL     1      23.928  40.707  47.309  1.00  0.00     0.209 HD
BRANCH   9  12
HETATM   12  N1  UNL     1      22.411  41.349  45.455  1.00  0.00    -0.330 N 
ATOM     13  H12 UNL     1      21.517  40.862  45.399  1.00  0.00     0.178 HD
ATOM     14  H11 UNL     1      22.467  42.357  45.596  1.00  0.00     0.178 HD
ENDBRANCH   9  12
ENDBRANCH   1   8
TORSDOF 2
ENDMDL
MODEL 4
REMARK VINA RESULT: -3.861506871      1.865      4.334
REMARK  2 active torsions:
REMARK  status: ('A' for Active; 'I' for Inactive)
REMARK    1  A    between atoms: N1_1  and  N2_4 
REMARK    2  A    between atoms: N3_6  and  N4_8 
ROOT
HETATM    1  N4  UNL     1      26.319  38.405  46.151  1.00  0.00    -0.269 N 
HETATM    2  C1  UNL     1      25.289  38.899  46.938  1.00  0.00     0.183 A 
HETATM    3  C2  UNL     1      24.337  40.016  46.578  1.00  0.00     0.265 C 
HETATM    4  N5  UNL     1      23.900  38.979  45.609  1.00  0.00    -0.049 N 
ATOM      5  H51 UNL     1      23.195  39.122  44.886  1.00  0.00     0.279 HD
ATOM      6  H52 UNL     1      23.342  38.159  45.849  1.00  0.00     0.279 HD
HETATM    7  C3  UNL     1      25.324  38.963  45.376  1.00  0.00     0.329 A 
ENDROOT
BRANCH   1   8
HETATM    8  N3  UNL     1      27.560  37.760  46.143  1.00  0.00    -0.228 N 
HETATM    9  N2  UNL     1      27.840  37.066  45.117  1.00  0.00    -0.235 N 
ATOM     10  H2  UNL     1      27.183  36.991  44.341  1.00  0.00     0.209 HD
ATOM     11  H3  UNL     1      28.210  37.844  46.925  1.00  0.00     0.209 HD
BRANCH   9  12
HETATM   12  N1  UNL     1      29.056  36.419  45.079  1.00  0.00    -0.330 N 
ATOM     13  H12 UNL     1      29.910  36.951  44.914  1.00  0.00     0.178 HD
ATOM     14  H11 UNL     1      29.069  35.409  45.219  1.00  0.00     0.178 HD
ENDBRANCH   9  12
ENDBRANCH   1   8
TORSDOF 2
ENDMDL
MODEL 5
REMARK VINA RESULT: -3.821261903      1.328      1.782
REMARK  2 active torsions:
REMARK  status: ('A' for Active; 'I' for Inactive)
REMARK    1  A    between atoms: N1_1  and  N2_4 
REMARK    2  A    between atoms: N3_6  and  N4_8 
ROOT
HETATM    1  N4  UNL     1      26.244  38.526  45.943  1.00  0.00    -0.269 N 
HETATM    2  C1  UNL     1      27.288  37.621  46.059  1.00  0.00     0.183 A 
HETATM    3  C2  UNL     1      28.765  37.939  46.009  1.00  0.00     0.265 C 
HETATM    4  N5  UNL     1      28.401  38.592  47.292  1.00  0.00    -0.049 N 
ATOM      5  H51 UNL     1      29.038  39.149  47.860  1.00  0.00     0.279 HD
ATOM      6  H52 UNL     1      28.217  38.096  48.164  1.00  0.00     0.279 HD
HETATM    7  C3  UNL     1      27.381  39.138  46.428  1.00  0.00     0.329 A 
ENDROOT
BRANCH   1   8
HETATM    8  N3  UNL     1      24.907  38.708  45.575  1.00  0.00    -0.228 N 
HETATM    9  N2  UNL     1      24.461  39.897  45.598  1.00  0.00    -0.235 N 
ATOM     10  H2  UNL     1      25.060  40.675  45.873  1.00  0.00     0.209 HD
ATOM     11  H3  UNL     1      24.317  37.922  45.300  1.00  0.00     0.209 HD
BRANCH   9  12
HETATM   12  N1  UNL     1      23.148  40.108  45.240  1.00  0.00    -0.330 N 
ATOM     13  H12 UNL     1      22.905  40.896  44.640  1.00  0.00     0.178 HD
ATOM     14  H11 UNL     1      22.442  39.461  45.590  1.00  0.00     0.178 HD
ENDBRANCH   9  12
ENDBRANCH   1   8
TORSDOF 2
ENDMDL
