MODEL 1
REMARK VINA RESULT: -3.890707985      0.000      0.000
REMARK  1 active torsions:
REMARK  status: ('A' for Active; 'I' for Inactive)
REMARK    1  A    between atoms: C2_5  and  N2_6 
ROOT
HETATM    1  C1  UNL     1      27.733  38.350  46.354  1.00  0.00     0.284 A 
HETATM    2  N1  UNL     1      27.163  37.578  45.259  1.00  0.00    -0.052 N 
ATOM      3  H11 UNL     1      26.877  36.603  45.163  1.00  0.00     0.279 HD
ATOM      4  H12 UNL     1      27.535  37.240  44.372  1.00  0.00     0.279 HD
HETATM    5  C2  UNL     1      26.476  38.768  45.646  1.00  0.00     0.302 A 
ENDROOT
BRANCH   5   6
HETATM    6  N2  UNL     1      25.269  38.755  46.421  1.00  0.00    -0.186 NA
HETATM    7  C3  UNL     1      24.371  39.832  46.302  1.00  0.00     0.240 A 
HETATM    8  N3  UNL     1      24.041  38.617  45.704  1.00  0.00    -0.146 NA
ENDBRANCH   5   6
TORSDOF 1
ENDMDL
MODEL 2
REMARK VINA RESULT: -3.740556426      0.881      2.965
REMARK  1 active torsions:
REMARK  status: ('A' for Active; 'I' for Inactive)
REMARK    1  A    between atoms: C2_5  and  N2_6 
ROOT
HETATM    1  C1  UNL     1      24.395  39.716  46.300  1.00  0.00     0.284 A 
HETATM    2  N1  UNL     1      24.316  38.407  45.667  1.00  0.00    -0.052 N 
ATOM      3  H11 UNL     1      24.149  38.100  44.709  1.00  0.00     0.279 HD
ATOM      4  H12 UNL     1      23.635  37.649  45.706  1.00  0.00     0.279 HD
HETATM    5  C2  UNL     1      25.499  38.704  46.411  1.00  0.00     0.302 A 
ENDROOT
BRANCH   5   6
HETATM    6  N2  UNL     1      26.746  39.044  45.789  1.00  0.00    -0.186 NA
HETATM    7  C3  UNL     1      27.920  38.399  46.219  1.00  0.00     0.240 A 
HETATM    8  N3  UNL     1      27.368  38.035  44.992  1.00  0.00    -0.146 NA
ENDBRANCH   5   6
TORSDOF 1
ENDMDL
MODEL 3
REMARK VINA RESULT: -3.360153976      1.265      3.358
REMARK  1 active torsions:
REMARK  status: ('A' for Active; 'I' for Inactive)
REMARK    1  A    between atoms: C2_5  and  N2_6 
ROOT
HETATM    1  C1  UNL     1      26.249  39.531  45.935  1.00  0.00     0.284 A 
HETATM    2  N1  UNL     1      25.569  38.293  45.580  1.00  0.00    -0.052 N 
ATOM      3  H11 UNL     1      25.131  37.954  44.724  1.00  0.00     0.279 HD
ATOM      4  H12 UNL     1      24.670  37.888  45.840  1.00  0.00     0.279 HD
HETATM    5  C2  UNL     1      26.887  38.183  46.119  1.00  0.00     0.302 A 
ENDROOT
BRANCH   5   6
HETATM    6  N2  UNL     1      28.039  37.903  45.310  1.00  0.00    -0.186 NA
HETATM    7  C3  UNL     1      28.837  36.788  45.625  1.00  0.00     0.240 A 
HETATM    8  N3  UNL     1      27.998  36.718  44.513  1.00  0.00    -0.146 NA
ENDBRANCH   5   6
TORSDOF 1
ENDMDL
MODEL 4
REMARK VINA RESULT: -3.337589365      1.749      2.234
REMARK  1 active torsions:
REMARK  status: ('A' for Active; 'I' for Inactive)
REMARK    1  A    between atoms: C2_5  and  N2_6 
ROOT
HETATM    1  C1  UNL     1      28.545  36.700  44.928  1.00  0.00     0.284 A 
HETATM    2  N1  UNL     1      29.138  37.548  45.953  1.00  0.00    -0.052 N 
ATOM      3  H11 UNL     1      29.835  38.292  45.930  1.00  0.00     0.279 HD
ATOM      4  H12 UNL     1      29.792  37.374  46.715  1.00  0.00     0.279 HD
HETATM    5  C2  UNL     1      27.713  37.535  45.859  1.00  0.00     0.302 A 
ENDROOT
BRANCH   5   6
HETATM    6  N2  UNL     1      26.961  38.602  45.264  1.00  0.00    -0.186 NA
HETATM    7  C3  UNL     1      25.799  39.060  45.911  1.00  0.00     0.240 A 
HETATM    8  N3  UNL     1      26.946  39.850  45.959  1.00  0.00    -0.146 NA
ENDBRANCH   5   6
TORSDOF 1
ENDMDL
MODEL 5
REMARK VINA RESULT: -3.225563831      1.304      1.304
REMARK  1 active torsions:
REMARK  status: ('A' for Active; 'I' for Inactive)
REMARK    1  A    between atoms: C2_5  and  N2_6 
ROOT
HETATM    1  C1  UNL     1      27.774  37.852  45.605  1.00  0.00     0.284 A 
HETATM    2  N1  UNL     1      27.860  39.037  46.448  1.00  0.00    -0.052 N 
ATOM      3  H11 UNL     1      28.147  40.000  46.275  1.00  0.00     0.279 HD
ATOM      4  H12 UNL     1      28.477  39.311  47.212  1.00  0.00     0.279 HD
HETATM    5  C2  UNL     1      26.602  38.363  46.394  1.00  0.00     0.302 A 
ENDROOT
BRANCH   5   6
HETATM    6  N2  UNL     1      25.486  38.854  45.639  1.00  0.00    -0.186 NA
HETATM    7  C3  UNL     1      24.184  38.492  46.032  1.00  0.00     0.240 A 
HETATM    8  N3  UNL     1      24.625  39.790  46.290  1.00  0.00    -0.146 NA
ENDBRANCH   5   6
TORSDOF 1
ENDMDL
