MODEL 1
REMARK VINA RESULT: -4.294141711      0.000      0.000
REMARK  2 active torsions:
REMARK  status: ('A' for Active; 'I' for Inactive)
REMARK    1  A    between atoms: C4_6  and  N3_7 
REMARK    2  A    between atoms: N3_7  and  N4_8 
ROOT
HETATM    1  C1  UNL     1      27.549  40.476  46.285  1.00  0.00     0.300 C 
HETATM    2  N1  UNL     1      27.401  39.079  46.468  1.00  0.00     0.038 N 
HETATM    3  N2  UNL     1      28.521  38.350  46.769  1.00  0.00    -0.042 NA
HETATM    4  C2  UNL     1      28.304  37.260  45.852  1.00  0.00     0.182 C 
HETATM    5  C3  UNL     1      27.242  38.199  45.298  1.00  0.00     0.279 A 
HETATM    6  C4  UNL     1      26.127  38.451  46.224  1.00  0.00     0.357 A 
ENDROOT
BRANCH   6   7
HETATM    7  N3  UNL     1      25.070  39.251  45.683  1.00  0.00    -0.110 NA
BRANCH   7   8
HETATM    8  N4  UNL     1      23.873  38.521  45.713  1.00  0.00    -0.346 N 
ATOM      9  H42 UNL     1      23.809  37.511  45.584  1.00  0.00     0.172 HD
ATOM     10  H41 UNL     1      23.094  39.157  45.881  1.00  0.00     0.172 HD
ENDBRANCH   7   8
ENDBRANCH   6   7
TORSDOF 2
ENDMDL
MODEL 2
REMARK VINA RESULT: -4.021149406      1.193      3.091
REMARK  2 active torsions:
REMARK  status: ('A' for Active; 'I' for Inactive)
REMARK    1  A    between atoms: C4_6  and  N3_7 
REMARK    2  A    between atoms: N3_7  and  N4_8 
ROOT
HETATM    1  C1  UNL     1      27.442  40.427  46.156  1.00  0.00     0.300 C 
HETATM    2  N1  UNL     1      26.564  39.424  45.676  1.00  0.00     0.038 N 
HETATM    3  N2  UNL     1      25.228  39.721  45.611  1.00  0.00    -0.042 NA
HETATM    4  C2  UNL     1      24.722  38.503  46.191  1.00  0.00     0.182 C 
HETATM    5  C3  UNL     1      26.187  38.301  46.550  1.00  0.00     0.279 A 
HETATM    6  C4  UNL     1      27.065  38.105  45.385  1.00  0.00     0.357 A 
ENDROOT
BRANCH   6   7
HETATM    7  N3  UNL     1      28.429  37.812  45.708  1.00  0.00    -0.110 NA
BRANCH   7   8
HETATM    8  N4  UNL     1      28.854  36.701  44.966  1.00  0.00    -0.346 N 
ATOM      9  H42 UNL     1      29.711  36.178  45.147  1.00  0.00     0.172 HD
ATOM     10  H41 UNL     1      28.175  36.507  44.229  1.00  0.00     0.172 HD
ENDBRANCH   7   8
ENDBRANCH   6   7
TORSDOF 2
ENDMDL
MODEL 3
REMARK VINA RESULT: -3.821752440      1.746      3.055
REMARK  2 active torsions:
REMARK  status: ('A' for Active; 'I' for Inactive)
REMARK    1  A    between atoms: C4_6  and  N3_7 
REMARK    2  A    between atoms: N3_7  and  N4_8 
ROOT
HETATM    1  C1  UNL     1      28.743  39.204  47.082  1.00  0.00     0.300 C 
HETATM    2  N1  UNL     1      27.673  39.202  46.153  1.00  0.00     0.038 N 
HETATM    3  N2  UNL     1      26.869  40.310  46.101  1.00  0.00    -0.042 NA
HETATM    4  C2  UNL     1      25.596  39.634  46.074  1.00  0.00     0.182 C 
HETATM    5  C3  UNL     1      26.453  38.431  46.442  1.00  0.00     0.279 A 
HETATM    6  C4  UNL     1      27.388  38.018  45.383  1.00  0.00     0.357 A 
ENDROOT
BRANCH   6   7
HETATM    7  N3  UNL     1      28.129  36.827  45.672  1.00  0.00    -0.110 NA
BRANCH   7   8
HETATM    8  N4  UNL     1      28.943  36.510  44.576  1.00  0.00    -0.346 N 
ATOM      9  H42 UNL     1      28.671  35.889  43.814  1.00  0.00     0.172 HD
ATOM     10  H41 UNL     1      29.836  36.995  44.668  1.00  0.00     0.172 HD
ENDBRANCH   7   8
ENDBRANCH   6   7
TORSDOF 2
ENDMDL
MODEL 4
REMARK VINA RESULT: -3.466819835      1.358      2.041
REMARK  2 active torsions:
REMARK  status: ('A' for Active; 'I' for Inactive)
REMARK    1  A    between atoms: C4_6  and  N3_7 
REMARK    2  A    between atoms: N3_7  and  N4_8 
ROOT
HETATM    1  C1  UNL     1      28.287  36.865  44.910  1.00  0.00     0.300 C 
HETATM    2  N1  UNL     1      28.424  37.994  45.754  1.00  0.00     0.038 N 
HETATM    3  N2  UNL     1      29.483  38.020  46.623  1.00  0.00    -0.042 NA
HETATM    4  C2  UNL     1      28.771  38.458  47.797  1.00  0.00     0.182 C 
HETATM    5  C3  UNL     1      27.557  38.136  46.936  1.00  0.00     0.279 A 
HETATM    6  C4  UNL     1      27.406  39.014  45.765  1.00  0.00     0.357 A 
ENDROOT
BRANCH   6   7
HETATM    7  N3  UNL     1      26.216  38.792  45.001  1.00  0.00    -0.110 NA
BRANCH   7   8
HETATM    8  N4  UNL     1      25.163  38.466  45.867  1.00  0.00    -0.346 N 
ATOM      9  H42 UNL     1      24.844  37.516  46.058  1.00  0.00     0.172 HD
ATOM     10  H41 UNL     1      24.776  39.322  46.265  1.00  0.00     0.172 HD
ENDBRANCH   7   8
ENDBRANCH   6   7
TORSDOF 2
ENDMDL
MODEL 5
REMARK VINA RESULT: -3.401919921      1.726      2.740
REMARK  2 active torsions:
REMARK  status: ('A' for Active; 'I' for Inactive)
REMARK    1  A    between atoms: C4_6  and  N3_7 
REMARK    2  A    between atoms: N3_7  and  N4_8 
ROOT
HETATM    1  C1  UNL     1      25.694  38.576  45.980  1.00  0.00     0.300 C 
HETATM    2  N1  UNL     1      27.094  38.459  45.799  1.00  0.00     0.038 N 
HETATM    3  N2  UNL     1      27.612  37.206  45.604  1.00  0.00    -0.042 NA
HETATM    4  C2  UNL     1      28.728  37.305  46.510  1.00  0.00     0.182 C 
HETATM    5  C3  UNL     1      27.995  38.560  46.960  1.00  0.00     0.279 A 
HETATM    6  C4  UNL     1      27.940  39.618  45.938  1.00  0.00     0.357 A 
ENDROOT
BRANCH   6   7
HETATM    7  N3  UNL     1      27.343  40.843  46.377  1.00  0.00    -0.110 NA
BRANCH   7   8
HETATM    8  N4  UNL     1      28.350  41.737  46.767  1.00  0.00    -0.346 N 
ATOM      9  H42 UNL     1      28.350  42.735  46.558  1.00  0.00     0.172 HD
ATOM     10  H41 UNL     1      29.069  41.230  47.285  1.00  0.00     0.172 HD
ENDBRANCH   7   8
ENDBRANCH   6   7
TORSDOF 2
ENDMDL
