MODEL 1
REMARK VINA RESULT: -3.334057625      0.000      0.000
REMARK  1 active torsions:
REMARK  status: ('A' for Active; 'I' for Inactive)
REMARK    1  A    between atoms: N1_2  and  N2_3 
ROOT
HETATM    1  N2  UNL     1      27.957  38.825  45.970  1.00  0.00    -0.208 NA
HETATM    2  C2  UNL     1      28.682  38.497  47.161  1.00  0.00     0.139 C 
HETATM    3  C3  UNL     1      29.058  37.031  47.001  1.00  0.00     0.249 C 
HETATM    4  N3  UNL     1      28.957  36.856  45.559  1.00  0.00    -0.061 N 
ATOM      5  H31 UNL     1      29.016  35.895  45.224  1.00  0.00     0.278 HD
ATOM      6  H32 UNL     1      29.757  37.183  45.016  1.00  0.00     0.278 HD
HETATM    7  C4  UNL     1      27.686  37.546  45.298  1.00  0.00     0.341 C 
ENDROOT
BRANCH   1   8
HETATM    8  N1  UNL     1      26.789  39.539  46.190  1.00  0.00    -0.168 NA
HETATM    9  C1  UNL     1      25.688  38.570  46.080  1.00  0.00     0.152 C 
ENDBRANCH   1   8
TORSDOF 1
ENDMDL
MODEL 2
REMARK VINA RESULT: -3.193986794      2.041      2.785
REMARK  1 active torsions:
REMARK  status: ('A' for Active; 'I' for Inactive)
REMARK    1  A    between atoms: N1_2  and  N2_3 
ROOT
HETATM    1  N2  UNL     1      25.268  39.699  45.816  1.00  0.00    -0.208 NA
HETATM    2  C2  UNL     1      26.611  40.128  46.073  1.00  0.00     0.139 C 
HETATM    3  C3  UNL     1      27.401  38.844  46.282  1.00  0.00     0.249 C 
HETATM    4  N3  UNL     1      26.549  37.863  45.625  1.00  0.00    -0.061 N 
ATOM      5  H31 UNL     1      26.802  36.886  45.773  1.00  0.00     0.278 HD
ATOM      6  H32 UNL     1      26.629  37.817  44.609  1.00  0.00     0.278 HD
HETATM    7  C4  UNL     1      25.234  38.266  46.143  1.00  0.00     0.341 C 
ENDROOT
BRANCH   1   8
HETATM    8  N1  UNL     1      24.300  40.402  46.515  1.00  0.00    -0.168 NA
HETATM    9  C1  UNL     1      23.145  40.521  45.611  1.00  0.00     0.152 C 
ENDBRANCH   1   8
TORSDOF 1
ENDMDL
MODEL 3
REMARK VINA RESULT: -3.061857527      1.621      2.072
REMARK  1 active torsions:
REMARK  status: ('A' for Active; 'I' for Inactive)
REMARK    1  A    between atoms: N1_2  and  N2_3 
ROOT
HETATM    1  N2  UNL     1      26.479  38.812  46.386  1.00  0.00    -0.208 NA
HETATM    2  C2  UNL     1      27.311  37.685  46.085  1.00  0.00     0.139 C 
HETATM    3  C3  UNL     1      28.732  38.228  46.108  1.00  0.00     0.249 C 
HETATM    4  N3  UNL     1      28.574  39.436  46.905  1.00  0.00    -0.061 N 
ATOM      5  H31 UNL     1      29.379  40.061  46.927  1.00  0.00     0.278 HD
ATOM      6  H32 UNL     1      28.546  39.299  47.916  1.00  0.00     0.278 HD
HETATM    7  C4  UNL     1      27.354  39.991  46.303  1.00  0.00     0.341 C 
ENDROOT
BRANCH   1   8
HETATM    8  N1  UNL     1      25.372  38.942  45.562  1.00  0.00    -0.168 NA
HETATM    9  C1  UNL     1      24.428  39.815  46.277  1.00  0.00     0.152 C 
ENDBRANCH   1   8
TORSDOF 1
ENDMDL
MODEL 4
REMARK VINA RESULT: -3.061759184      0.832      1.553
REMARK  1 active torsions:
REMARK  status: ('A' for Active; 'I' for Inactive)
REMARK    1  A    between atoms: N1_2  and  N2_3 
ROOT
HETATM    1  N2  UNL     1      27.398  38.340  46.374  1.00  0.00    -0.208 NA
HETATM    2  C2  UNL     1      27.350  37.490  45.222  1.00  0.00     0.139 C 
HETATM    3  C3  UNL     1      28.718  36.825  45.166  1.00  0.00     0.249 C 
HETATM    4  N3  UNL     1      29.175  36.976  46.540  1.00  0.00    -0.061 N 
ATOM      5  H31 UNL     1      30.152  36.739  46.710  1.00  0.00     0.278 HD
ATOM      6  H32 UNL     1      28.806  36.298  47.207  1.00  0.00     0.278 HD
HETATM    7  C4  UNL     1      28.808  38.377  46.788  1.00  0.00     0.341 C 
ENDROOT
BRANCH   1   8
HETATM    8  N1  UNL     1      26.897  39.616  46.164  1.00  0.00    -0.168 NA
HETATM    9  C1  UNL     1      25.436  39.472  46.065  1.00  0.00     0.152 C 
ENDBRANCH   1   8
TORSDOF 1
ENDMDL
MODEL 5
REMARK VINA RESULT: -3.056571231      1.725      2.702
REMARK  1 active torsions:
REMARK  status: ('A' for Active; 'I' for Inactive)
REMARK    1  A    between atoms: N1_2  and  N2_3 
ROOT
HETATM    1  N2  UNL     1      28.247  38.810  46.915  1.00  0.00    -0.208 NA
HETATM    2  C2  UNL     1      27.349  39.741  46.300  1.00  0.00     0.139 C 
HETATM    3  C3  UNL     1      26.747  38.988  45.122  1.00  0.00     0.249 C 
HETATM    4  N3  UNL     1      26.976  37.603  45.510  1.00  0.00    -0.061 N 
ATOM      5  H31 UNL     1      26.791  36.906  44.790  1.00  0.00     0.278 HD
ATOM      6  H32 UNL     1      26.309  37.215  46.177  1.00  0.00     0.278 HD
HETATM    7  C4  UNL     1      28.367  37.686  45.975  1.00  0.00     0.341 C 
ENDROOT
BRANCH   1   8
HETATM    8  N1  UNL     1      29.488  39.339  47.234  1.00  0.00    -0.168 NA
HETATM    9  C1  UNL     1      29.337  40.801  47.185  1.00  0.00     0.152 C 
ENDBRANCH   1   8
TORSDOF 1
ENDMDL
