MODEL 1
REMARK VINA RESULT: -4.408146478      0.000      0.000
REMARK  2 active torsions:
REMARK  status: ('A' for Active; 'I' for Inactive)
REMARK    1  A    between atoms: N4_6  and  N5_7 
REMARK    2  A    between atoms: N5_7  and  N6_9 
ROOT
HETATM    1  C1  UNL     1      27.094  39.989  46.006  1.00  0.00     0.205 C 
HETATM    2  N1  UNL     1      25.923  39.124  45.802  1.00  0.00    -0.189 N 
HETATM    3  N2  UNL     1      25.696  37.864  45.528  1.00  0.00    -0.204 N 
ATOM      4  H2  UNL     1      26.274  37.041  45.361  1.00  0.00     0.207 HD
HETATM    5  N3  UNL     1      24.398  38.114  45.559  1.00  0.00     0.038 NA
HETATM    6  N4  UNL     1      24.631  39.396  45.838  1.00  0.00    -0.082 N 
ENDROOT
BRANCH   6   7
HETATM    7  N5  UNL     1      23.818  40.530  46.068  1.00  0.00    -0.213 N 
ATOM      8  H5  UNL     1      23.948  41.045  46.938  1.00  0.00     0.211 HD
BRANCH   7   9
HETATM    9  N6  UNL     1      22.875  40.972  45.200  1.00  0.00    -0.328 N 
ATOM     10  H62 UNL     1      22.040  40.395  45.090  1.00  0.00     0.178 HD
ATOM     11  H61 UNL     1      22.957  41.835  44.662  1.00  0.00     0.178 HD
ENDBRANCH   7   9
ENDBRANCH   6   7
TORSDOF 2
ENDMDL
MODEL 2
REMARK VINA RESULT: -3.889302269      3.124      4.426
REMARK  2 active torsions:
REMARK  status: ('A' for Active; 'I' for Inactive)
REMARK    1  A    between atoms: N4_6  and  N5_7 
REMARK    2  A    between atoms: N5_7  and  N6_9 
ROOT
HETATM    1  C1  UNL     1      29.143  38.174  47.569  1.00  0.00     0.205 C 
HETATM    2  N1  UNL     1      28.232  38.427  46.443  1.00  0.00    -0.189 N 
HETATM    3  N2  UNL     1      27.460  39.402  46.033  1.00  0.00    -0.204 N 
ATOM      4  H2  UNL     1      27.228  40.336  46.369  1.00  0.00     0.207 HD
HETATM    5  N3  UNL     1      27.109  38.658  44.997  1.00  0.00     0.038 NA
HETATM    6  N4  UNL     1      27.895  37.668  45.417  1.00  0.00    -0.082 N 
ENDROOT
BRANCH   6   7
HETATM    7  N5  UNL     1      28.210  36.374  44.939  1.00  0.00    -0.213 N 
ATOM      8  H5  UNL     1      28.423  35.649  45.623  1.00  0.00     0.211 HD
BRANCH   7   9
HETATM    9  N6  UNL     1      28.244  36.042  43.625  1.00  0.00    -0.328 N 
ATOM     10  H62 UNL     1      27.612  35.303  43.318  1.00  0.00     0.178 HD
ATOM     11  H61 UNL     1      28.858  36.487  42.942  1.00  0.00     0.178 HD
ENDBRANCH   7   9
ENDBRANCH   6   7
TORSDOF 2
ENDMDL
MODEL 3
REMARK VINA RESULT: -3.698882119      2.358      4.038
REMARK  2 active torsions:
REMARK  status: ('A' for Active; 'I' for Inactive)
REMARK    1  A    between atoms: N4_6  and  N5_7 
REMARK    2  A    between atoms: N5_7  and  N6_9 
ROOT
HETATM    1  C1  UNL     1      24.604  38.225  45.813  1.00  0.00     0.205 C 
HETATM    2  N1  UNL     1      25.990  38.717  45.822  1.00  0.00    -0.189 N 
HETATM    3  N2  UNL     1      26.600  39.865  45.978  1.00  0.00    -0.204 N 
ATOM      4  H2  UNL     1      26.308  40.826  46.149  1.00  0.00     0.207 HD
HETATM    5  N3  UNL     1      27.757  39.245  45.817  1.00  0.00     0.038 NA
HETATM    6  N4  UNL     1      27.134  38.078  45.659  1.00  0.00    -0.082 N 
ENDROOT
BRANCH   6   7
HETATM    7  N5  UNL     1      27.552  36.748  45.422  1.00  0.00    -0.213 N 
ATOM      8  H5  UNL     1      27.382  36.055  46.150  1.00  0.00     0.211 HD
BRANCH   7   9
HETATM    9  N6  UNL     1      28.166  36.341  44.284  1.00  0.00    -0.328 N 
ATOM     10  H62 UNL     1      27.575  36.192  43.466  1.00  0.00     0.178 HD
ATOM     11  H61 UNL     1      29.171  36.179  44.206  1.00  0.00     0.178 HD
ENDBRANCH   7   9
ENDBRANCH   6   7
TORSDOF 2
ENDMDL
MODEL 4
REMARK VINA RESULT: -3.640945395      3.387      4.728
REMARK  2 active torsions:
REMARK  status: ('A' for Active; 'I' for Inactive)
REMARK    1  A    between atoms: N4_6  and  N5_7 
REMARK    2  A    between atoms: N5_7  and  N6_9 
ROOT
HETATM    1  C1  UNL     1      26.096  38.433  45.990  1.00  0.00     0.205 C 
HETATM    2  N1  UNL     1      27.547  38.250  46.144  1.00  0.00    -0.189 N 
HETATM    3  N2  UNL     1      28.536  38.872  46.735  1.00  0.00    -0.204 N 
ATOM      4  H2  UNL     1      28.631  39.714  47.302  1.00  0.00     0.207 HD
HETATM    5  N3  UNL     1      29.360  37.941  46.284  1.00  0.00     0.038 NA
HETATM    6  N4  UNL     1      28.352  37.311  45.683  1.00  0.00    -0.082 N 
ENDROOT
BRANCH   6   7
HETATM    7  N5  UNL     1      28.235  36.139  44.899  1.00  0.00    -0.213 N 
ATOM      8  H5  UNL     1      28.103  35.251  45.381  1.00  0.00     0.211 HD
BRANCH   7   9
HETATM    9  N6  UNL     1      28.287  36.129  43.545  1.00  0.00    -0.328 N 
ATOM     10  H62 UNL     1      28.188  37.027  43.071  1.00  0.00     0.178 HD
ATOM     11  H61 UNL     1      28.417  35.284  42.987  1.00  0.00     0.178 HD
ENDBRANCH   7   9
ENDBRANCH   6   7
TORSDOF 2
ENDMDL
MODEL 5
REMARK VINA RESULT: -3.626811490     13.183     14.046
REMARK  2 active torsions:
REMARK  status: ('A' for Active; 'I' for Inactive)
REMARK    1  A    between atoms: N4_6  and  N5_7 
REMARK    2  A    between atoms: N5_7  and  N6_9 
ROOT
HETATM    1  C1  UNL     1      18.242  35.913  35.160  1.00  0.00     0.205 C 
HETATM    2  N1  UNL     1      17.096  36.746  35.554  1.00  0.00    -0.189 N 
HETATM    3  N2  UNL     1      16.580  37.204  36.667  1.00  0.00    -0.204 N 
ATOM      4  H2  UNL     1      16.809  37.133  37.658  1.00  0.00     0.207 HD
HETATM    5  N3  UNL     1      15.636  37.799  35.958  1.00  0.00     0.038 NA
HETATM    6  N4  UNL     1      16.163  37.332  34.827  1.00  0.00    -0.082 N 
ENDROOT
BRANCH   6   7
HETATM    7  N5  UNL     1      15.835  37.439  33.455  1.00  0.00    -0.213 N 
ATOM      8  H5  UNL     1      16.274  36.788  32.804  1.00  0.00     0.211 HD
BRANCH   7   9
HETATM    9  N6  UNL     1      14.972  38.358  32.955  1.00  0.00    -0.328 N 
ATOM     10  H62 UNL     1      15.018  38.537  31.951  1.00  0.00     0.178 HD
ATOM     11  H61 UNL     1      14.294  38.868  33.521  1.00  0.00     0.178 HD
ENDBRANCH   7   9
ENDBRANCH   6   7
TORSDOF 2
ENDMDL
