MODEL 1
REMARK VINA RESULT: -3.781194456      0.000      0.000
REMARK  3 active torsions:
REMARK  status: ('A' for Active; 'I' for Inactive)
REMARK       I    between atoms: N1_2  and  C3_4 
REMARK    1  A    between atoms: C3_4  and  C4_6 
REMARK    2  A    between atoms: C4_6  and  N2_7 
REMARK    3  A    between atoms: C4_6  and  N3_11 
ROOT
HETATM    1  C4  UNL     1      28.235  36.644  45.815  1.00  0.00     0.468 C 
ENDROOT
BRANCH   1   2
HETATM    2  C3  UNL     1      28.339  38.077  46.042  1.00  0.00     0.277 C 
HETATM    3  N1  UNL     1      27.337  39.046  45.927  1.00  0.00    -0.358 N 
HETATM    4  C1  UNL     1      27.632  40.471  46.200  1.00  0.00     0.152 C 
HETATM    5  C2  UNL     1      25.972  38.783  45.548  1.00  0.00     0.152 C 
HETATM    6  O1  UNL     1      29.502  38.517  46.392  1.00  0.00    -0.269 OA
ENDBRANCH   1   2
BRANCH   1   7
HETATM    7  N2  UNL     1      28.210  36.275  44.439  1.00  0.00    -0.042 N 
ATOM      8  H23 UNL     1      27.535  35.527  44.281  1.00  0.00     0.277 HD
ATOM      9  H22 UNL     1      27.784  37.012  43.878  1.00  0.00     0.277 HD
ATOM     10  H21 UNL     1      29.123  36.020  44.061  1.00  0.00     0.277 HD
ENDBRANCH   1   7
BRANCH   1  11
HETATM   11  N3  UNL     1      29.370  35.954  46.465  1.00  0.00    -0.042 N 
ATOM     12  H33 UNL     1      30.114  35.732  45.804  1.00  0.00     0.277 HD
ATOM     13  H32 UNL     1      29.897  36.575  47.077  1.00  0.00     0.277 HD
ATOM     14  H31 UNL     1      29.032  35.126  46.956  1.00  0.00     0.277 HD
ENDBRANCH   1  11
TORSDOF 3
ENDMDL
MODEL 2
REMARK VINA RESULT: -3.637108351      3.029      4.675
REMARK  3 active torsions:
REMARK  status: ('A' for Active; 'I' for Inactive)
REMARK       I    between atoms: N1_2  and  C3_4 
REMARK    1  A    between atoms: C3_4  and  C4_6 
REMARK    2  A    between atoms: C4_6  and  N2_7 
REMARK    3  A    between atoms: C4_6  and  N3_11 
ROOT
HETATM    1  C4  UNL     1      24.174  40.147  45.514  1.00  0.00     0.468 C 
ENDROOT
BRANCH   1   2
HETATM    2  C3  UNL     1      25.013  38.971  45.687  1.00  0.00     0.277 C 
HETATM    3  N1  UNL     1      26.400  38.916  45.855  1.00  0.00    -0.358 N 
HETATM    4  C1  UNL     1      27.088  37.615  46.017  1.00  0.00     0.152 C 
HETATM    5  C2  UNL     1      27.276  40.060  45.887  1.00  0.00     0.152 C 
HETATM    6  O1  UNL     1      24.405  37.831  45.684  1.00  0.00    -0.269 OA
ENDBRANCH   1   2
BRANCH   1   7
HETATM    7  N2  UNL     1      23.038  39.932  44.680  1.00  0.00    -0.042 N 
ATOM      8  H23 UNL     1      22.725  38.964  44.745  1.00  0.00     0.277 HD
ATOM      9  H22 UNL     1      22.219  40.404  45.062  1.00  0.00     0.277 HD
ATOM     10  H21 UNL     1      23.183  40.197  43.706  1.00  0.00     0.277 HD
ENDBRANCH   1   7
BRANCH   1  11
HETATM   11  N3  UNL     1      23.703  40.621  46.834  1.00  0.00    -0.042 N 
ATOM     12  H33 UNL     1      24.154  40.126  47.603  1.00  0.00     0.277 HD
ATOM     13  H32 UNL     1      24.039  41.560  47.047  1.00  0.00     0.277 HD
ATOM     14  H31 UNL     1      22.686  40.557  46.879  1.00  0.00     0.277 HD
ENDBRANCH   1  11
TORSDOF 3
ENDMDL
MODEL 3
REMARK VINA RESULT: -3.427531332      1.936      2.674
REMARK  3 active torsions:
REMARK  status: ('A' for Active; 'I' for Inactive)
REMARK       I    between atoms: N1_2  and  C3_4 
REMARK    1  A    between atoms: C3_4  and  C4_6 
REMARK    2  A    between atoms: C4_6  and  N2_7 
REMARK    3  A    between atoms: C4_6  and  N3_11 
ROOT
HETATM    1  C4  UNL     1      27.344  37.448  46.025  1.00  0.00     0.468 C 
ENDROOT
BRANCH   1   2
HETATM    2  C3  UNL     1      28.165  38.581  46.421  1.00  0.00     0.277 C 
HETATM    3  N1  UNL     1      29.379  38.569  47.115  1.00  0.00    -0.358 N 
HETATM    4  C1  UNL     1      30.077  39.835  47.432  1.00  0.00     0.152 C 
HETATM    5  C2  UNL     1      30.054  37.384  47.579  1.00  0.00     0.152 C 
HETATM    6  O1  UNL     1      27.722  39.750  46.093  1.00  0.00    -0.269 OA
ENDBRANCH   1   2
BRANCH   1   7
HETATM    7  N2  UNL     1      25.999  37.791  45.700  1.00  0.00    -0.042 N 
ATOM      8  H23 UNL     1      25.657  37.211  44.935  1.00  0.00     0.277 HD
ATOM      9  H22 UNL     1      25.365  37.494  46.440  1.00  0.00     0.277 HD
ATOM     10  H21 UNL     1      25.864  38.780  45.488  1.00  0.00     0.277 HD
ENDBRANCH   1   7
BRANCH   1  11
HETATM   11  N3  UNL     1      27.952  36.777  44.856  1.00  0.00    -0.042 N 
ATOM     12  H33 UNL     1      28.840  37.200  44.589  1.00  0.00     0.277 HD
ATOM     13  H32 UNL     1      28.296  35.845  45.085  1.00  0.00     0.277 HD
ATOM     14  H31 UNL     1      27.285  36.761  44.084  1.00  0.00     0.277 HD
ENDBRANCH   1  11
TORSDOF 3
ENDMDL
MODEL 4
REMARK VINA RESULT: -3.393017016      1.805      2.119
REMARK  3 active torsions:
REMARK  status: ('A' for Active; 'I' for Inactive)
REMARK       I    between atoms: N1_2  and  C3_4 
REMARK    1  A    between atoms: C3_4  and  C4_6 
REMARK    2  A    between atoms: C4_6  and  N2_7 
REMARK    3  A    between atoms: C4_6  and  N3_11 
ROOT
HETATM    1  C4  UNL     1      27.516  37.633  46.038  1.00  0.00     0.468 C 
ENDROOT
BRANCH   1   2
HETATM    2  C3  UNL     1      26.651  38.802  45.987  1.00  0.00     0.277 C 
HETATM    3  N1  UNL     1      25.255  38.847  46.043  1.00  0.00    -0.358 N 
HETATM    4  C1  UNL     1      24.541  40.142  45.975  1.00  0.00     0.152 C 
HETATM    5  C2  UNL     1      24.394  37.698  46.166  1.00  0.00     0.152 C 
HETATM    6  O1  UNL     1      27.243  39.945  45.873  1.00  0.00    -0.269 OA
ENDBRANCH   1   2
BRANCH   1   7
HETATM    7  N2  UNL     1      27.689  36.984  44.781  1.00  0.00    -0.042 N 
ATOM      8  H23 UNL     1      28.462  37.404  44.265  1.00  0.00     0.277 HD
ATOM      9  H22 UNL     1      28.061  36.044  44.913  1.00  0.00     0.277 HD
ATOM     10  H21 UNL     1      26.846  36.959  44.208  1.00  0.00     0.277 HD
ENDBRANCH   1   7
BRANCH   1  11
HETATM   11  N3  UNL     1      28.847  38.021  46.553  1.00  0.00    -0.042 N 
ATOM     12  H33 UNL     1      28.882  38.016  47.572  1.00  0.00     0.277 HD
ATOM     13  H32 UNL     1      29.550  37.303  46.379  1.00  0.00     0.277 HD
ATOM     14  H31 UNL     1      29.116  38.925  46.163  1.00  0.00     0.277 HD
ENDBRANCH   1  11
TORSDOF 3
ENDMDL
MODEL 5
REMARK VINA RESULT: -3.101676192      1.461      2.014
REMARK  3 active torsions:
REMARK  status: ('A' for Active; 'I' for Inactive)
REMARK       I    between atoms: N1_2  and  C3_4 
REMARK    1  A    between atoms: C3_4  and  C4_6 
REMARK    2  A    between atoms: C4_6  and  N2_7 
REMARK    3  A    between atoms: C4_6  and  N3_11 
ROOT
HETATM    1  C4  UNL     1      27.795  37.557  45.124  1.00  0.00     0.468 C 
ENDROOT
BRANCH   1   2
HETATM    2  C3  UNL     1      28.757  38.076  46.083  1.00  0.00     0.277 C 
HETATM    3  N1  UNL     1      28.852  39.372  46.598  1.00  0.00    -0.358 N 
HETATM    4  C1  UNL     1      29.908  39.719  47.576  1.00  0.00     0.152 C 
HETATM    5  C2  UNL     1      27.978  40.465  46.252  1.00  0.00     0.152 C 
HETATM    6  O1  UNL     1      29.638  37.237  46.519  1.00  0.00    -0.269 OA
ENDBRANCH   1   2
BRANCH   1   7
HETATM    7  N2  UNL     1      28.137  36.280  44.592  1.00  0.00    -0.042 N 
ATOM      8  H23 UNL     1      29.122  36.074  44.760  1.00  0.00     0.277 HD
ATOM      9  H22 UNL     1      27.710  35.536  45.143  1.00  0.00     0.277 HD
ATOM     10  H21 UNL     1      27.912  36.168  43.603  1.00  0.00     0.277 HD
ENDBRANCH   1   7
BRANCH   1  11
HETATM   11  N3  UNL     1      26.463  37.458  45.758  1.00  0.00    -0.042 N 
ATOM     12  H33 UNL     1      26.522  37.160  46.732  1.00  0.00     0.277 HD
ATOM     13  H32 UNL     1      26.041  38.374  45.910  1.00  0.00     0.277 HD
ATOM     14  H31 UNL     1      25.863  36.847  45.204  1.00  0.00     0.277 HD
ENDBRANCH   1  11
TORSDOF 3
ENDMDL
