MODEL 1
REMARK VINA RESULT: -4.785786352      0.000      0.000
REMARK  1 active torsions:
REMARK  status: ('A' for Active; 'I' for Inactive)
REMARK       I    between atoms: N2_3  and  C2_5 
REMARK    1  A    between atoms: C2_5  and  C3_7 
ROOT
HETATM    1  N1  UNL     1      28.119  37.100  45.381  1.00  0.00    -0.172 NA
HETATM    2  C1  UNL     1      27.307  37.928  45.348  1.00  0.00     0.184 C 
HETATM    3  N2  UNL     1      26.347  38.941  45.302  1.00  0.00    -0.254 N 
ATOM      4  H2  UNL     1      26.614  39.858  44.946  1.00  0.00     0.181 HD
HETATM    5  C2  UNL     1      25.007  38.735  45.736  1.00  0.00     0.331 C 
HETATM    6  O1  UNL     1      24.709  37.595  46.169  1.00  0.00    -0.260 OA
ENDROOT
BRANCH   5   7
HETATM    7  C3  UNL     1      23.997  39.767  45.698  1.00  0.00     0.271 C 
HETATM    8  O2  UNL     1      23.852  40.552  46.668  1.00  0.00    -0.640 OA
HETATM    9  O3  UNL     1      23.184  39.901  44.603  1.00  0.00    -0.640 OA
ENDBRANCH   5   7
TORSDOF 1
ENDMDL
MODEL 2
REMARK VINA RESULT: -4.698597038      0.059      1.134
REMARK  1 active torsions:
REMARK  status: ('A' for Active; 'I' for Inactive)
REMARK       I    between atoms: N2_3  and  C2_5 
REMARK    1  A    between atoms: C2_5  and  C3_7 
ROOT
HETATM    1  N1  UNL     1      28.161  37.112  45.371  1.00  0.00    -0.172 NA
HETATM    2  C1  UNL     1      27.340  37.930  45.329  1.00  0.00     0.184 C 
HETATM    3  N2  UNL     1      26.369  38.932  45.273  1.00  0.00    -0.254 N 
ATOM      4  H2  UNL     1      26.627  39.850  44.910  1.00  0.00     0.181 HD
HETATM    5  C2  UNL     1      25.030  38.715  45.705  1.00  0.00     0.331 C 
HETATM    6  O1  UNL     1      24.744  37.575  46.145  1.00  0.00    -0.260 OA
ENDROOT
BRANCH   5   7
HETATM    7  C3  UNL     1      24.009  39.736  45.656  1.00  0.00     0.271 C 
HETATM    8  O2  UNL     1      23.265  39.844  44.649  1.00  0.00    -0.640 OA
HETATM    9  O3  UNL     1      23.840  40.597  46.708  1.00  0.00    -0.640 OA
ENDBRANCH   5   7
TORSDOF 1
ENDMDL
MODEL 3
REMARK VINA RESULT: -4.595262274      2.575      4.189
REMARK  1 active torsions:
REMARK  status: ('A' for Active; 'I' for Inactive)
REMARK       I    between atoms: N2_3  and  C2_5 
REMARK    1  A    between atoms: C2_5  and  C3_7 
ROOT
HETATM    1  N1  UNL     1      23.725  40.216  45.837  1.00  0.00    -0.172 NA
HETATM    2  C1  UNL     1      24.492  39.357  45.696  1.00  0.00     0.184 C 
HETATM    3  N2  UNL     1      25.396  38.307  45.526  1.00  0.00    -0.254 N 
ATOM      4  H2  UNL     1      25.036  37.372  45.332  1.00  0.00     0.181 HD
HETATM    5  C2  UNL     1      26.804  38.497  45.614  1.00  0.00     0.331 C 
HETATM    6  O1  UNL     1      27.215  39.658  45.854  1.00  0.00    -0.260 OA
ENDROOT
BRANCH   5   7
HETATM    7  C3  UNL     1      27.758  37.426  45.442  1.00  0.00     0.271 C 
HETATM    8  O2  UNL     1      28.246  36.841  46.441  1.00  0.00    -0.640 OA
HETATM    9  O3  UNL     1      28.142  37.037  44.186  1.00  0.00    -0.640 OA
ENDBRANCH   5   7
TORSDOF 1
ENDMDL
MODEL 4
REMARK VINA RESULT: -4.585099130      2.699      4.455
REMARK  1 active torsions:
REMARK  status: ('A' for Active; 'I' for Inactive)
REMARK       I    between atoms: N2_3  and  C2_5 
REMARK    1  A    between atoms: C2_5  and  C3_7 
ROOT
HETATM    1  N1  UNL     1      23.739  39.291  45.359  1.00  0.00    -0.172 NA
HETATM    2  C1  UNL     1      24.665  38.620  45.557  1.00  0.00     0.184 C 
HETATM    3  N2  UNL     1      25.765  37.799  45.812  1.00  0.00    -0.254 N 
ATOM      4  H2  UNL     1      25.622  36.929  46.325  1.00  0.00     0.181 HD
HETATM    5  C2  UNL     1      27.078  38.135  45.378  1.00  0.00     0.331 C 
HETATM    6  O1  UNL     1      27.220  39.211  44.748  1.00  0.00    -0.260 OA
ENDROOT
BRANCH   5   7
HETATM    7  C3  UNL     1      28.231  37.301  45.629  1.00  0.00     0.271 C 
HETATM    8  O2  UNL     1      28.202  36.076  45.352  1.00  0.00    -0.640 OA
HETATM    9  O3  UNL     1      29.368  37.838  46.173  1.00  0.00    -0.640 OA
ENDBRANCH   5   7
TORSDOF 1
ENDMDL
MODEL 5
REMARK VINA RESULT: -4.555079119      2.695      4.352
REMARK  1 active torsions:
REMARK  status: ('A' for Active; 'I' for Inactive)
REMARK       I    between atoms: N2_3  and  C2_5 
REMARK    1  A    between atoms: C2_5  and  C3_7 
ROOT
HETATM    1  N1  UNL     1      23.738  39.280  45.361  1.00  0.00    -0.172 NA
HETATM    2  C1  UNL     1      24.670  38.617  45.556  1.00  0.00     0.184 C 
HETATM    3  N2  UNL     1      25.779  37.806  45.807  1.00  0.00    -0.254 N 
ATOM      4  H2  UNL     1      25.645  36.931  46.314  1.00  0.00     0.181 HD
HETATM    5  C2  UNL     1      27.089  38.159  45.377  1.00  0.00     0.331 C 
HETATM    6  O1  UNL     1      27.220  39.241  44.755  1.00  0.00    -0.260 OA
ENDROOT
BRANCH   5   7
HETATM    7  C3  UNL     1      28.250  37.336  45.624  1.00  0.00     0.271 C 
HETATM    8  O2  UNL     1      29.290  37.835  46.121  1.00  0.00    -0.640 OA
HETATM    9  O3  UNL     1      28.229  36.000  45.318  1.00  0.00    -0.640 OA
ENDBRANCH   5   7
TORSDOF 1
ENDMDL
