MODEL 1
REMARK VINA RESULT: -6.108892811      0.000      0.000
REMARK  4 active torsions:
REMARK  status: ('A' for Active; 'I' for Inactive)
REMARK    1  A    between atoms: O1_2  and  C2_3 
REMARK    2  A    between atoms: C3_6  and  N2_7 
REMARK    3  A    between atoms: C4_11  and  C5_12 
REMARK    4  A    between atoms: C6_13  and  C7_14 
ROOT
HETATM    1  C2  UNL     1       7.900  37.601 -18.275  1.00  0.00     0.170 A 
HETATM    2  N1  UNL     1       6.633  37.355 -18.094  1.00  0.00    -0.316 N 
ATOM      3  H1  UNL     1       6.308  36.406 -17.910  1.00  0.00     0.170 HD
HETATM    4  C3  UNL     1       5.772  38.370 -18.154  1.00  0.00     0.145 A 
HETATM    5  S1  UNL     1       6.776  39.708 -18.476  1.00  0.00    -0.041 SA
HETATM    6  C4  UNL     1       8.277  38.890 -18.518  1.00  0.00     0.113 A 
ENDROOT
BRANCH   6   7
HETATM    7  C5  UNL     1       9.617  39.414 -18.750  1.00  0.00    -0.050 C 
HETATM    8  C6  UNL     1      10.727  39.835 -18.962  1.00  0.00    -0.063 C 
BRANCH   8   9
HETATM    9  C7  UNL     1      12.046  40.337 -19.238  1.00  0.00     0.025 C 
HETATM   10  C8  UNL     1      12.867  40.909 -18.154  1.00  0.00     0.061 C 
HETATM   11  C9  UNL     1      12.547  40.296 -20.466  1.00  0.00     0.117 C 
HETATM   12 CL1  UNL     1      11.576  39.619 -21.749  1.00  0.00    -0.070 Cl
HETATM   13 CL2  UNL     1      14.134  40.895 -20.816  1.00  0.00    -0.070 Cl
ENDBRANCH   8   9
ENDBRANCH   6   7
BRANCH   1  14
HETATM   14  O1  UNL     1       8.885  36.583 -18.228  1.00  0.00    -0.339 OA
HETATM   15  C1  UNL     1       8.584  35.260 -18.604  1.00  0.00     0.211 C 
ENDBRANCH   1  14
BRANCH   4  16
HETATM   16  N2  UNL     1       4.474  38.378 -18.009  1.00  0.00    -0.380 N 
ATOM     17  H22 UNL     1       3.918  37.747 -17.433  1.00  0.00     0.158 HD
ATOM     18  H21 UNL     1       3.773  38.992 -18.423  1.00  0.00     0.158 HD
ENDBRANCH   4  16
TORSDOF 4
ENDMDL
MODEL 2
REMARK VINA RESULT: -6.067163869      2.004      2.069
REMARK  4 active torsions:
REMARK  status: ('A' for Active; 'I' for Inactive)
REMARK    1  A    between atoms: O1_2  and  C2_3 
REMARK    2  A    between atoms: C3_6  and  N2_7 
REMARK    3  A    between atoms: C4_11  and  C5_12 
REMARK    4  A    between atoms: C6_13  and  C7_14 
ROOT
HETATM    1  C2  UNL     1       7.576  39.150 -17.205  1.00  0.00     0.170 A 
HETATM    2  N1  UNL     1       6.479  39.222 -16.503  1.00  0.00    -0.316 N 
ATOM      3  H1  UNL     1       5.701  38.590 -16.686  1.00  0.00     0.170 HD
HETATM    4  C3  UNL     1       6.399  40.141 -15.541  1.00  0.00     0.145 A 
HETATM    5  S1  UNL     1       7.909  40.924 -15.629  1.00  0.00    -0.041 SA
HETATM    6  C4  UNL     1       8.584  40.022 -16.915  1.00  0.00     0.113 A 
ENDROOT
BRANCH   6   7
HETATM    7  C5  UNL     1       9.891  40.139 -17.550  1.00  0.00    -0.050 C 
HETATM    8  C6  UNL     1      10.964  40.228 -18.093  1.00  0.00    -0.063 C 
BRANCH   8   9
HETATM    9  C7  UNL     1      12.231  40.340 -18.764  1.00  0.00     0.025 C 
HETATM   10  C8  UNL     1      13.375  40.982 -18.088  1.00  0.00     0.061 C 
HETATM   11  C9  UNL     1      12.395  39.872 -19.994  1.00  0.00     0.117 C 
HETATM   12 CL1  UNL     1      11.042  39.112 -20.793  1.00  0.00    -0.070 Cl
HETATM   13 CL2  UNL     1      13.916  39.998 -20.815  1.00  0.00    -0.070 Cl
ENDBRANCH   8   9
ENDBRANCH   6   7
BRANCH   1  14
HETATM   14  O1  UNL     1       7.749  38.205 -18.247  1.00  0.00    -0.339 OA
HETATM   15  C1  UNL     1       7.999  36.848 -17.965  1.00  0.00     0.211 C 
ENDBRANCH   1  14
BRANCH   4  16
HETATM   16  N2  UNL     1       5.423  40.406 -14.715  1.00  0.00    -0.380 N 
ATOM     17  H22 UNL     1       5.233  39.949 -13.824  1.00  0.00     0.158 HD
ATOM     18  H21 UNL     1       4.677  41.098 -14.784  1.00  0.00     0.158 HD
ENDBRANCH   4  16
TORSDOF 4
ENDMDL
MODEL 3
REMARK VINA RESULT: -6.054011153      5.410      6.118
REMARK  4 active torsions:
REMARK  status: ('A' for Active; 'I' for Inactive)
REMARK    1  A    between atoms: O1_2  and  C2_3 
REMARK    2  A    between atoms: C3_6  and  N2_7 
REMARK    3  A    between atoms: C4_11  and  C5_12 
REMARK    4  A    between atoms: C6_13  and  C7_14 
ROOT
HETATM    1  C2  UNL     1       5.107  39.759 -15.975  1.00  0.00     0.170 A 
HETATM    2  N1  UNL     1       4.156  40.635 -16.141  1.00  0.00    -0.316 N 
ATOM      3  H1  UNL     1       4.079  41.444 -15.526  1.00  0.00     0.170 HD
HETATM    4  C3  UNL     1       3.285  40.448 -17.132  1.00  0.00     0.145 A 
HETATM    5  S1  UNL     1       3.822  38.999 -17.850  1.00  0.00    -0.041 SA
HETATM    6  C4  UNL     1       5.160  38.696 -16.829  1.00  0.00     0.113 A 
ENDROOT
BRANCH   6   7
HETATM    7  C5  UNL     1       6.116  37.596 -16.848  1.00  0.00    -0.050 C 
HETATM    8  C6  UNL     1       6.891  36.673 -16.871  1.00  0.00    -0.063 C 
BRANCH   8   9
HETATM    9  C7  UNL     1       7.802  35.561 -16.919  1.00  0.00     0.025 C 
HETATM   10  C8  UNL     1       8.198  34.979 -18.215  1.00  0.00     0.061 C 
HETATM   11  C9  UNL     1       8.301  35.042 -15.805  1.00  0.00     0.117 C 
HETATM   12 CL1  UNL     1       7.834  35.730 -14.271  1.00  0.00    -0.070 Cl
HETATM   13 CL2  UNL     1       9.402  33.703 -15.844  1.00  0.00    -0.070 Cl
ENDBRANCH   8   9
ENDBRANCH   6   7
BRANCH   1  14
HETATM   14  O1  UNL     1       6.076  39.877 -14.947  1.00  0.00    -0.339 OA
HETATM   15  C1  UNL     1       7.194  40.722 -15.093  1.00  0.00     0.211 C 
ENDBRANCH   1  14
BRANCH   4  16
HETATM   16  N2  UNL     1       2.261  41.173 -17.496  1.00  0.00    -0.380 N 
ATOM     17  H22 UNL     1       2.170  41.718 -18.353  1.00  0.00     0.158 HD
ATOM     18  H21 UNL     1       1.375  41.340 -17.020  1.00  0.00     0.158 HD
ENDBRANCH   4  16
TORSDOF 4
ENDMDL
MODEL 4
REMARK VINA RESULT: -5.931949426      2.069      2.274
REMARK  4 active torsions:
REMARK  status: ('A' for Active; 'I' for Inactive)
REMARK    1  A    between atoms: O1_2  and  C2_3 
REMARK    2  A    between atoms: C3_6  and  N2_7 
REMARK    3  A    between atoms: C4_11  and  C5_12 
REMARK    4  A    between atoms: C6_13  and  C7_14 
ROOT
HETATM    1  C2  UNL     1       7.890  39.800 -16.460  1.00  0.00     0.170 A 
HETATM    2  N1  UNL     1       6.604  39.697 -16.273  1.00  0.00    -0.316 N 
ATOM      3  H1  UNL     1       6.222  39.582 -15.334  1.00  0.00     0.170 HD
HETATM    4  C3  UNL     1       5.801  39.746 -17.334  1.00  0.00     0.145 A 
HETATM    5  S1  UNL     1       6.887  39.942 -18.632  1.00  0.00    -0.041 SA
HETATM    6  C4  UNL     1       8.344  39.953 -17.738  1.00  0.00     0.113 A 
ENDROOT
BRANCH   6   7
HETATM    7  C5  UNL     1       9.720  40.088 -18.201  1.00  0.00    -0.050 C 
HETATM    8  C6  UNL     1      10.851  40.214 -18.599  1.00  0.00    -0.063 C 
BRANCH   8   9
HETATM    9  C7  UNL     1      12.194  40.388 -19.081  1.00  0.00     0.025 C 
HETATM   10  C8  UNL     1      13.238  40.934 -18.192  1.00  0.00     0.061 C 
HETATM   11  C9  UNL     1      12.519  40.064 -20.325  1.00  0.00     0.117 C 
HETATM   12 CL1  UNL     1      11.286  39.419 -21.377  1.00  0.00    -0.070 Cl
HETATM   13 CL2  UNL     1      14.134  40.267 -20.921  1.00  0.00    -0.070 Cl
ENDBRANCH   8   9
ENDBRANCH   6   7
BRANCH   1  14
HETATM   14  O1  UNL     1       8.819  39.759 -15.390  1.00  0.00    -0.339 OA
HETATM   15  C1  UNL     1       8.521  39.080 -14.192  1.00  0.00     0.211 C 
ENDBRANCH   1  14
BRANCH   4  16
HETATM   16  N2  UNL     1       4.499  39.667 -17.404  1.00  0.00    -0.380 N 
ATOM     17  H22 UNL     1       3.823  40.325 -17.018  1.00  0.00     0.158 HD
ATOM     18  H21 UNL     1       3.908  38.959 -17.841  1.00  0.00     0.158 HD
ENDBRANCH   4  16
TORSDOF 4
ENDMDL
MODEL 5
REMARK VINA RESULT: -5.688770727      4.538      5.970
REMARK  4 active torsions:
REMARK  status: ('A' for Active; 'I' for Inactive)
REMARK    1  A    between atoms: O1_2  and  C2_3 
REMARK    2  A    between atoms: C3_6  and  N2_7 
REMARK    3  A    between atoms: C4_11  and  C5_12 
REMARK    4  A    between atoms: C6_13  and  C7_14 
ROOT
HETATM    1  C2  UNL     1      11.336  38.740 -19.974  1.00  0.00     0.170 A 
HETATM    2  N1  UNL     1      12.377  38.797 -20.756  1.00  0.00    -0.316 N 
ATOM      3  H1  UNL     1      12.655  37.989 -21.314  1.00  0.00     0.170 HD
HETATM    4  C3  UNL     1      13.071  39.932 -20.811  1.00  0.00     0.145 A 
HETATM    5  S1  UNL     1      12.233  40.949 -19.730  1.00  0.00    -0.041 SA
HETATM    6  C4  UNL     1      11.012  39.851 -19.251  1.00  0.00     0.113 A 
ENDROOT
BRANCH   6   7
HETATM    7  C5  UNL     1       9.908  40.035 -18.318  1.00  0.00    -0.050 C 
HETATM    8  C6  UNL     1       8.987  40.167 -17.551  1.00  0.00    -0.063 C 
BRANCH   8   9
HETATM    9  C7  UNL     1       7.889  40.300 -16.632  1.00  0.00     0.025 C 
HETATM   10  C8  UNL     1       8.134  40.710 -15.236  1.00  0.00     0.061 C 
HETATM   11  C9  UNL     1       6.643  40.058 -17.019  1.00  0.00     0.117 C 
HETATM   12 CL1  UNL     1       6.353  39.574 -18.670  1.00  0.00    -0.070 Cl
HETATM   13 CL2  UNL     1       5.309  40.214 -15.923  1.00  0.00    -0.070 Cl
ENDBRANCH   8   9
ENDBRANCH   6   7
BRANCH   1  14
HETATM   14  O1  UNL     1      10.540  37.573 -19.853  1.00  0.00    -0.339 OA
HETATM   15  C1  UNL     1      11.018  36.318 -20.278  1.00  0.00     0.211 C 
ENDBRANCH   1  14
BRANCH   4  16
HETATM   16  N2  UNL     1      14.134  40.233 -21.507  1.00  0.00    -0.380 N 
ATOM     17  H22 UNL     1      14.161  40.671 -22.427  1.00  0.00     0.158 HD
ATOM     18  H21 UNL     1      15.121  40.098 -21.286  1.00  0.00     0.158 HD
ENDBRANCH   4  16
TORSDOF 4
ENDMDL
