MODEL 1
REMARK VINA RESULT: -7.674296435      0.000      0.000
REMARK  3 active torsions:
REMARK  status: ('A' for Active; 'I' for Inactive)
REMARK    1  A    between atoms: C3_3  and  C4_4 
REMARK    2  A    between atoms: N1_5  and  O1_7 
REMARK    3  A    between atoms: C12_17  and  O2_18 
ROOT
HETATM    1  C1  UNL     1       7.540  36.811 -14.694  1.00  0.00     0.014 C 
HETATM    2  C2  UNL     1       6.574  37.298 -15.721  1.00  0.00     0.023 C 
HETATM    3  C3  UNL     1       7.268  37.335 -17.060  1.00  0.00     0.054 C 
HETATM    4  C5  UNL     1       6.737  38.422 -17.924  1.00  0.00    -0.019 C 
HETATM    5  C6  UNL     1       7.357  39.582 -18.095  1.00  0.00    -0.010 C 
HETATM    6  C7  UNL     1       8.643  39.974 -17.469  1.00  0.00     0.104 C 
HETATM    7 CL1  UNL     1       9.877  39.923 -18.780  1.00  0.00    -0.121 Cl
HETATM    8  C8  UNL     1       8.505  41.407 -16.956  1.00  0.00     0.024 C 
HETATM    9  C9  UNL     1       8.214  41.431 -15.474  1.00  0.00     0.002 C 
HETATM   10  C10 UNL     1       6.840  40.938 -15.142  1.00  0.00     0.002 C 
HETATM   11  C11 UNL     1       6.853  39.522 -14.572  1.00  0.00     0.032 C 
HETATM   12  C12 UNL     1       5.948  38.614 -15.342  1.00  0.00     0.122 C 
ENDROOT
BRANCH   3  13
HETATM   13  C4  UNL     1       7.015  36.056 -17.754  1.00  0.00     0.095 C 
HETATM   14  N1  UNL     1       6.494  36.022 -18.922  1.00  0.00    -0.284 N 
ATOM     15  H1  UNL     1       6.253  36.906 -19.370  1.00  0.00     0.192 HD
BRANCH  14  16
HETATM   16  O1  UNL     1       6.242  34.859 -19.602  1.00  0.00    -0.291 OA
ATOM     17  H1  UNL     1       5.779  34.122 -19.223  1.00  0.00     0.244 HD
ENDBRANCH  14  16
ENDBRANCH   3  13
BRANCH  12  18
HETATM   18  O2  UNL     1       4.857  38.314 -14.493  1.00  0.00    -0.395 OA
ATOM     19  H2  UNL     1       4.751  39.059 -13.913  1.00  0.00     0.210 HD
ENDBRANCH  12  18
TORSDOF 3
ENDMDL
MODEL 2
REMARK VINA RESULT: -6.894443818      2.434      3.283
REMARK  3 active torsions:
REMARK  status: ('A' for Active; 'I' for Inactive)
REMARK    1  A    between atoms: C3_3  and  C4_4 
REMARK    2  A    between atoms: N1_5  and  O1_7 
REMARK    3  A    between atoms: C12_17  and  O2_18 
ROOT
HETATM    1  C1  UNL     1       4.738  39.414 -18.074  1.00  0.00     0.014 C 
HETATM    2  C2  UNL     1       6.062  38.821 -18.420  1.00  0.00     0.023 C 
HETATM    3  C3  UNL     1       6.266  37.576 -17.592  1.00  0.00     0.054 C 
HETATM    4  C5  UNL     1       7.703  37.351 -17.284  1.00  0.00    -0.019 C 
HETATM    5  C6  UNL     1       8.252  37.655 -16.115  1.00  0.00    -0.010 C 
HETATM    6  C7  UNL     1       7.542  38.253 -14.959  1.00  0.00     0.104 C 
HETATM    7 CL1  UNL     1       7.369  36.939 -13.740  1.00  0.00    -0.121 Cl
HETATM    8  C8  UNL     1       8.420  39.366 -14.385  1.00  0.00     0.024 C 
HETATM    9  C9  UNL     1       7.972  40.722 -14.875  1.00  0.00     0.002 C 
HETATM   10  C10 UNL     1       8.253  40.938 -16.330  1.00  0.00     0.002 C 
HETATM   11  C11 UNL     1       6.998  40.809 -17.189  1.00  0.00     0.032 C 
HETATM   12  C12 UNL     1       7.188  39.812 -18.287  1.00  0.00     0.122 C 
ENDROOT
BRANCH   3  13
HETATM   13  C4  UNL     1       5.795  36.413 -18.370  1.00  0.00     0.095 C 
HETATM   14  N1  UNL     1       6.616  35.603 -18.925  1.00  0.00    -0.284 N 
ATOM     15  H1  UNL     1       7.615  35.779 -18.819  1.00  0.00     0.192 HD
BRANCH  14  16
HETATM   16  O1  UNL     1       6.222  34.512 -19.655  1.00  0.00    -0.291 OA
ATOM     17  H1  UNL     1       5.312  34.284 -19.805  1.00  0.00     0.244 HD
ENDBRANCH  14  16
ENDBRANCH   3  13
BRANCH  12  18
HETATM   18  O2  UNL     1       7.227  40.544 -19.497  1.00  0.00    -0.395 OA
ATOM     19  H2  UNL     1       8.116  40.476 -19.827  1.00  0.00     0.210 HD
ENDBRANCH  12  18
TORSDOF 3
ENDMDL
MODEL 3
REMARK VINA RESULT: -6.707409821      2.591      3.571
REMARK  3 active torsions:
REMARK  status: ('A' for Active; 'I' for Inactive)
REMARK    1  A    between atoms: C3_3  and  C4_4 
REMARK    2  A    between atoms: N1_5  and  O1_7 
REMARK    3  A    between atoms: C12_17  and  O2_18 
ROOT
HETATM    1  C1  UNL     1       8.087  36.334 -17.334  1.00  0.00     0.014 C 
HETATM    2  C2  UNL     1       7.642  37.392 -18.286  1.00  0.00     0.023 C 
HETATM    3  C3  UNL     1       8.479  38.628 -18.063  1.00  0.00     0.054 C 
HETATM    4  C5  UNL     1       7.714  39.870 -18.352  1.00  0.00    -0.019 C 
HETATM    5  C6  UNL     1       7.179  40.629 -17.406  1.00  0.00    -0.010 C 
HETATM    6  C7  UNL     1       7.251  40.371 -15.948  1.00  0.00     0.104 C 
HETATM    7 CL1  UNL     1       8.408  41.579 -15.280  1.00  0.00    -0.121 Cl
HETATM    8  C8  UNL     1       5.864  40.613 -15.352  1.00  0.00     0.024 C 
HETATM    9  C9  UNL     1       5.120  39.313 -15.159  1.00  0.00     0.002 C 
HETATM   10  C10 UNL     1       4.705  38.681 -16.451  1.00  0.00     0.002 C 
HETATM   11  C11 UNL     1       5.590  37.497 -16.829  1.00  0.00     0.032 C 
HETATM   12  C12 UNL     1       6.162  37.657 -18.201  1.00  0.00     0.122 C 
ENDROOT
BRANCH   3  13
HETATM   13  C4  UNL     1       9.627  38.591 -18.992  1.00  0.00     0.095 C 
HETATM   14  N1  UNL     1       9.678  39.349 -20.020  1.00  0.00    -0.284 N 
ATOM     15  H1  UNL     1       8.901  39.987 -20.190  1.00  0.00     0.192 HD
BRANCH  14  16
HETATM   16  O1  UNL     1      10.723  39.347 -20.907  1.00  0.00    -0.291 OA
ATOM     17  H1  UNL     1      10.614  39.460 -21.844  1.00  0.00     0.244 HD
ENDBRANCH  14  16
ENDBRANCH   3  13
BRANCH  12  18
HETATM   18  O2  UNL     1       5.531  36.691 -19.020  1.00  0.00    -0.395 OA
ATOM     19  H2  UNL     1       4.634  36.979 -19.139  1.00  0.00     0.210 HD
ENDBRANCH  12  18
TORSDOF 3
ENDMDL
MODEL 4
REMARK VINA RESULT: -6.574690749      1.038      1.038
REMARK  3 active torsions:
REMARK  status: ('A' for Active; 'I' for Inactive)
REMARK    1  A    between atoms: C3_3  and  C4_4 
REMARK    2  A    between atoms: N1_5  and  O1_7 
REMARK    3  A    between atoms: C12_17  and  O2_18 
ROOT
HETATM    1  C1  UNL     1       7.414  36.893 -14.773  1.00  0.00     0.014 C 
HETATM    2  C2  UNL     1       6.737  37.376 -16.011  1.00  0.00     0.023 C 
HETATM    3  C3  UNL     1       7.767  37.511 -17.105  1.00  0.00     0.054 C 
HETATM    4  C5  UNL     1       7.426  38.608 -18.049  1.00  0.00    -0.019 C 
HETATM    5  C6  UNL     1       7.995  39.805 -18.007  1.00  0.00    -0.010 C 
HETATM    6  C7  UNL     1       9.033  40.234 -17.039  1.00  0.00     0.104 C 
HETATM    7 CL1  UNL     1      10.579  40.308 -17.960  1.00  0.00    -0.121 Cl
HETATM    8  C8  UNL     1       8.670  41.633 -16.541  1.00  0.00     0.024 C 
HETATM    9  C9  UNL     1       7.985  41.573 -15.197  1.00  0.00     0.002 C 
HETATM   10  C10 UNL     1       6.606  40.994 -15.272  1.00  0.00     0.002 C 
HETATM   11  C11 UNL     1       6.551  39.556 -14.763  1.00  0.00     0.032 C 
HETATM   12  C12 UNL     1       5.950  38.639 -15.780  1.00  0.00     0.122 C 
ENDROOT
BRANCH   3  13
HETATM   13  C4  UNL     1       7.794  36.254 -17.881  1.00  0.00     0.095 C 
HETATM   14  N1  UNL     1       8.768  35.972 -18.660  1.00  0.00    -0.284 N 
ATOM     15  H1  UNL     1       9.535  36.640 -18.738  1.00  0.00     0.192 HD
BRANCH  14  16
HETATM   16  O1  UNL     1       8.833  34.818 -19.398  1.00  0.00    -0.291 OA
ATOM     17  H1  UNL     1       9.463  34.127 -19.232  1.00  0.00     0.244 HD
ENDBRANCH  14  16
ENDBRANCH   3  13
BRANCH  12  18
HETATM   18  O2  UNL     1       4.689  38.243 -15.274  1.00  0.00    -0.395 OA
ATOM     19  H2  UNL     1       4.592  37.320 -15.478  1.00  0.00     0.210 HD
ENDBRANCH  12  18
TORSDOF 3
ENDMDL
MODEL 5
REMARK VINA RESULT: -6.377238374      3.654      4.618
REMARK  3 active torsions:
REMARK  status: ('A' for Active; 'I' for Inactive)
REMARK    1  A    between atoms: C3_3  and  C4_4 
REMARK    2  A    between atoms: N1_5  and  O1_7 
REMARK    3  A    between atoms: C12_17  and  O2_18 
ROOT
HETATM    1  C1  UNL     1       7.912  36.771 -14.374  1.00  0.00     0.014 C 
HETATM    2  C2  UNL     1       7.475  38.136 -13.959  1.00  0.00     0.023 C 
HETATM    3  C3  UNL     1       5.976  38.227 -14.101  1.00  0.00     0.054 C 
HETATM    4  C5  UNL     1       5.540  39.607 -14.446  1.00  0.00    -0.019 C 
HETATM    5  C6  UNL     1       5.211  39.979 -15.675  1.00  0.00    -0.010 C 
HETATM    6  C7  UNL     1       5.226  39.106 -16.874  1.00  0.00     0.104 C 
HETATM    7 CL1  UNL     1       3.502  38.769 -17.272  1.00  0.00    -0.121 Cl
HETATM    8  C8  UNL     1       5.869  39.885 -18.021  1.00  0.00     0.024 C 
HETATM    9  C9  UNL     1       7.319  39.502 -18.195  1.00  0.00     0.002 C 
HETATM   10  C10 UNL     1       8.188  39.988 -17.076  1.00  0.00     0.002 C 
HETATM   11  C11 UNL     1       8.566  38.871 -16.107  1.00  0.00     0.032 C 
HETATM   12  C12 UNL     1       8.207  39.223 -14.699  1.00  0.00     0.122 C 
ENDROOT
BRANCH   3  13
HETATM   13  C4  UNL     1       5.359  37.881 -12.804  1.00  0.00     0.095 C 
HETATM   14  N1  UNL     1       4.668  38.731 -12.146  1.00  0.00    -0.284 N 
ATOM     15  H1  UNL     1       4.548  39.665 -12.537  1.00  0.00     0.192 HD
BRANCH  14  16
HETATM   16  O1  UNL     1       4.079  38.452 -10.940  1.00  0.00    -0.291 OA
ATOM     17  H1  UNL     1       3.336  37.868 -10.844  1.00  0.00     0.244 HD
ENDBRANCH  14  16
ENDBRANCH   3  13
BRANCH  12  18
HETATM   18  O2  UNL     1       9.425  39.431 -14.010  1.00  0.00    -0.395 OA
ATOM     19  H2  UNL     1       9.581  38.651 -13.492  1.00  0.00     0.210 HD
ENDBRANCH  12  18
TORSDOF 3
ENDMDL
