MODEL 1
REMARK VINA RESULT: -6.568110905      0.000      0.000
REMARK  3 active torsions:
REMARK  status: ('A' for Active; 'I' for Inactive)
REMARK    1  A    between atoms: C4_4  and  C5_5 
REMARK    2  A    between atoms: C6_8  and  N2_9 
REMARK    3  A    between atoms: C7_13  and  C8_14 
ROOT
HETATM    1  C5  UNL     1      10.655  39.182 -19.699  1.00  0.00     0.055 A 
HETATM    2  N1  UNL     1       9.356  39.005 -19.806  1.00  0.00    -0.336 N 
ATOM      3  H1  UNL     1       8.982  38.371 -20.512  1.00  0.00     0.168 HD
HETATM    4  C6  UNL     1       8.536  39.653 -18.990  1.00  0.00     0.143 A 
HETATM    5  S1  UNL     1       9.605  40.559 -18.019  1.00  0.00    -0.051 SA
HETATM    6  C7  UNL     1      11.064  40.053 -18.712  1.00  0.00     0.077 A 
ENDROOT
BRANCH   1   7
HETATM    7  C4  UNL     1      11.713  38.641 -20.647  1.00  0.00    -0.050 C 
HETATM    8  C3  UNL     1      11.881  39.422 -21.898  1.00  0.00     0.051 C 
HETATM    9  C2  UNL     1      13.242  39.391 -22.500  1.00  0.00     0.047 C 
HETATM   10  C1  UNL     1      14.134  40.505 -21.981  1.00  0.00     0.021 C 
HETATM   11  S2  UNL     1      13.979  37.785 -22.340  1.00  0.00    -0.164 SA
HETATM   12  C10 UNL     1      13.517  37.030 -20.765  1.00  0.00     0.078 C 
HETATM   13  C9  UNL     1      11.978  37.204 -20.586  1.00  0.00     0.046 C 
ENDBRANCH   1   7
BRANCH   6  14
HETATM   14  C8  UNL     1      12.407  40.445 -18.237  1.00  0.00     0.395 C 
HETATM   15  F1  UNL     1      13.248  39.380 -18.240  1.00  0.00    -0.208 F 
HETATM   16  F2  UNL     1      12.922  41.340 -19.214  1.00  0.00    -0.208 F 
ENDBRANCH   6  14
BRANCH   4  17
HETATM   17  N2  UNL     1       7.214  39.599 -18.957  1.00  0.00    -0.380 N 
ATOM     18  H22 UNL     1       6.580  39.734 -18.169  1.00  0.00     0.158 HD
ATOM     19  H21 UNL     1       6.577  39.411 -19.731  1.00  0.00     0.158 HD
ENDBRANCH   4  17
TORSDOF 3
ENDMDL
MODEL 2
REMARK VINA RESULT: -6.186681464      1.254      2.174
REMARK  3 active torsions:
REMARK  status: ('A' for Active; 'I' for Inactive)
REMARK    1  A    between atoms: C4_4  and  C5_5 
REMARK    2  A    between atoms: C6_8  and  N2_9 
REMARK    3  A    between atoms: C7_13  and  C8_14 
ROOT
HETATM    1  C5  UNL     1      11.393  39.279 -20.227  1.00  0.00     0.055 A 
HETATM    2  N1  UNL     1      10.124  38.941 -20.151  1.00  0.00    -0.336 N 
ATOM      3  H1  UNL     1       9.705  38.358 -20.876  1.00  0.00     0.168 HD
HETATM    4  C6  UNL     1       9.392  39.362 -19.128  1.00  0.00     0.143 A 
HETATM    5  S1  UNL     1      10.507  40.275 -18.216  1.00  0.00    -0.051 SA
HETATM    6  C7  UNL     1      11.869  40.065 -19.200  1.00  0.00     0.077 A 
ENDROOT
BRANCH   1   7
HETATM    7  C4  UNL     1      12.321  39.013 -21.401  1.00  0.00    -0.050 C 
HETATM    8  C3  UNL     1      13.563  38.276 -21.054  1.00  0.00     0.051 C 
HETATM    9  C2  UNL     1      14.134  37.430 -22.137  1.00  0.00     0.047 C 
HETATM   10  C1  UNL     1      13.588  36.013 -22.118  1.00  0.00     0.021 C 
HETATM   11  S2  UNL     1      13.969  38.213 -23.720  1.00  0.00    -0.164 SA
HETATM   12  C10 UNL     1      12.411  39.120 -23.819  1.00  0.00     0.078 C 
HETATM   13  C9  UNL     1      12.264  39.960 -22.514  1.00  0.00     0.046 C 
ENDBRANCH   1   7
BRANCH   6  14
HETATM   14  C8  UNL     1      13.221  40.573 -18.891  1.00  0.00     0.395 C 
HETATM   15  F1  UNL     1      13.583  41.541 -19.770  1.00  0.00    -0.208 F 
HETATM   16  F2  UNL     1      13.116  41.222 -17.630  1.00  0.00    -0.208 F 
ENDBRANCH   6  14
BRANCH   4  17
HETATM   17  N2  UNL     1       8.112  39.124 -18.894  1.00  0.00    -0.380 N 
ATOM     18  H22 UNL     1       7.538  38.330 -19.181  1.00  0.00     0.158 HD
ATOM     19  H21 UNL     1       7.454  39.701 -18.371  1.00  0.00     0.158 HD
ENDBRANCH   4  17
TORSDOF 3
ENDMDL
MODEL 3
REMARK VINA RESULT: -5.882025359      3.170      6.100
REMARK  3 active torsions:
REMARK  status: ('A' for Active; 'I' for Inactive)
REMARK    1  A    between atoms: C4_4  and  C5_5 
REMARK    2  A    between atoms: C6_8  and  N2_9 
REMARK    3  A    between atoms: C7_13  and  C8_14 
ROOT
HETATM    1  C5  UNL     1       8.971  39.360 -18.711  1.00  0.00     0.055 A 
HETATM    2  N1  UNL     1       9.561  38.953 -19.814  1.00  0.00    -0.336 N 
ATOM      3  H1  UNL     1       9.048  38.392 -20.493  1.00  0.00     0.168 HD
HETATM    4  C6  UNL     1      10.828  39.278 -20.038  1.00  0.00     0.143 A 
HETATM    5  S1  UNL     1      11.234  40.192 -18.658  1.00  0.00    -0.051 SA
HETATM    6  C7  UNL     1       9.744  40.116 -17.858  1.00  0.00     0.077 A 
ENDROOT
BRANCH   1   7
HETATM    7  C4  UNL     1       7.588  38.949 -18.234  1.00  0.00    -0.050 C 
HETATM    8  C3  UNL     1       7.451  37.510 -17.896  1.00  0.00     0.051 C 
HETATM    9  C2  UNL     1       6.443  37.186 -16.850  1.00  0.00     0.047 C 
HETATM   10  C1  UNL     1       7.031  37.200 -15.449  1.00  0.00     0.021 C 
HETATM   11  S2  UNL     1       5.003  38.210 -17.005  1.00  0.00    -0.164 SA
HETATM   12  C10 UNL     1       5.464  39.876 -17.529  1.00  0.00     0.078 C 
HETATM   13  C9  UNL     1       6.460  39.744 -18.721  1.00  0.00     0.046 C 
ENDBRANCH   1   7
BRANCH   6  14
HETATM   14  C8  UNL     1       9.429  40.808 -16.591  1.00  0.00     0.395 C 
HETATM   15  F1  UNL     1       8.361  41.630 -16.746  1.00  0.00    -0.208 F 
HETATM   16  F2  UNL     1       9.002  39.795 -15.688  1.00  0.00    -0.208 F 
ENDBRANCH   6  14
BRANCH   4  17
HETATM   17  N2  UNL     1      11.575  38.955 -21.082  1.00  0.00    -0.380 N 
ATOM     18  H22 UNL     1      11.591  38.092 -21.624  1.00  0.00     0.158 HD
ATOM     19  H21 UNL     1      12.283  39.526 -21.544  1.00  0.00     0.158 HD
ENDBRANCH   4  17
TORSDOF 3
ENDMDL
MODEL 4
REMARK VINA RESULT: -5.837763531      4.149      7.226
REMARK  3 active torsions:
REMARK  status: ('A' for Active; 'I' for Inactive)
REMARK    1  A    between atoms: C4_4  and  C5_5 
REMARK    2  A    between atoms: C6_8  and  N2_9 
REMARK    3  A    between atoms: C7_13  and  C8_14 
ROOT
HETATM    1  C5  UNL     1       8.118  38.823 -17.863  1.00  0.00     0.055 A 
HETATM    2  N1  UNL     1       8.971  39.459 -18.636  1.00  0.00    -0.336 N 
ATOM      3  H1  UNL     1       9.005  40.478 -18.632  1.00  0.00     0.168 HD
HETATM    4  C6  UNL     1       9.788  38.767 -19.421  1.00  0.00     0.143 A 
HETATM    5  S1  UNL     1       9.362  37.152 -19.080  1.00  0.00    -0.051 SA
HETATM    6  C7  UNL     1       8.151  37.447 -17.934  1.00  0.00     0.077 A 
ENDROOT
BRANCH   1   7
HETATM    7  C4  UNL     1       7.020  39.462 -17.029  1.00  0.00    -0.050 C 
HETATM    8  C3  UNL     1       5.858  39.957 -17.810  1.00  0.00     0.051 C 
HETATM    9  C2  UNL     1       4.552  39.952 -17.095  1.00  0.00     0.047 C 
HETATM   10  C1  UNL     1       3.795  38.647 -17.274  1.00  0.00     0.021 C 
HETATM   11  S2  UNL     1       4.748  40.410 -15.393  1.00  0.00    -0.164 SA
HETATM   12  C10 UNL     1       6.298  39.756 -14.736  1.00  0.00     0.078 C 
HETATM   13  C9  UNL     1       7.425  40.076 -15.764  1.00  0.00     0.046 C 
ENDBRANCH   1   7
BRANCH   6  14
HETATM   14  C8  UNL     1       7.424  36.403 -17.183  1.00  0.00     0.395 C 
HETATM   15  F1  UNL     1       7.282  36.758 -15.881  1.00  0.00    -0.208 F 
HETATM   16  F2  UNL     1       6.107  36.381 -17.718  1.00  0.00    -0.208 F 
ENDBRANCH   6  14
BRANCH   4  17
HETATM   17  N2  UNL     1      10.698  39.236 -20.259  1.00  0.00    -0.380 N 
ATOM     18  H22 UNL     1      10.580  39.605 -21.203  1.00  0.00     0.158 HD
ATOM     19  H21 UNL     1      11.703  39.319 -20.108  1.00  0.00     0.158 HD
ENDBRANCH   4  17
TORSDOF 3
ENDMDL
MODEL 5
REMARK VINA RESULT: -5.820521170      3.489      6.450
REMARK  3 active torsions:
REMARK  status: ('A' for Active; 'I' for Inactive)
REMARK    1  A    between atoms: C4_4  and  C5_5 
REMARK    2  A    between atoms: C6_8  and  N2_9 
REMARK    3  A    between atoms: C7_13  and  C8_14 
ROOT
HETATM    1  C5  UNL     1       8.478  38.213 -18.336  1.00  0.00     0.055 A 
HETATM    2  N1  UNL     1       9.076  37.118 -18.753  1.00  0.00    -0.336 N 
ATOM      3  H1  UNL     1       8.723  36.203 -18.473  1.00  0.00     0.168 HD
HETATM    4  C6  UNL     1      10.140  37.209 -19.540  1.00  0.00     0.143 A 
HETATM    5  S1  UNL     1      10.334  38.894 -19.719  1.00  0.00    -0.051 SA
HETATM    6  C7  UNL     1       9.026  39.400 -18.771  1.00  0.00     0.077 A 
ENDROOT
BRANCH   1   7
HETATM    7  C4  UNL     1       7.354  38.285 -17.316  1.00  0.00    -0.050 C 
HETATM    8  C3  UNL     1       7.801  38.497 -15.916  1.00  0.00     0.051 C 
HETATM    9  C2  UNL     1       6.844  39.220 -15.035  1.00  0.00     0.047 C 
HETATM   10  C1  UNL     1       7.049  40.725 -15.063  1.00  0.00     0.021 C 
HETATM   11  S2  UNL     1       5.169  38.746 -15.379  1.00  0.00    -0.164 SA
HETATM   12  C10 UNL     1       4.944  38.453 -17.148  1.00  0.00     0.078 C 
HETATM   13  C9  UNL     1       6.124  37.561 -17.638  1.00  0.00     0.046 C 
ENDBRANCH   1   7
BRANCH   6  14
HETATM   14  C8  UNL     1       8.605  40.805 -18.591  1.00  0.00     0.395 C 
HETATM   15  F1  UNL     1       7.258  40.890 -18.455  1.00  0.00    -0.208 F 
HETATM   16  F2  UNL     1       9.142  41.216 -17.341  1.00  0.00    -0.208 F 
ENDBRANCH   6  14
BRANCH   4  17
HETATM   17  N2  UNL     1      10.862  36.223 -20.046  1.00  0.00    -0.380 N 
ATOM     18  H22 UNL     1      10.560  35.408 -20.582  1.00  0.00     0.158 HD
ATOM     19  H21 UNL     1      11.872  36.097 -19.995  1.00  0.00     0.158 HD
ENDBRANCH   4  17
TORSDOF 3
ENDMDL
