MODEL 1
REMARK VINA RESULT: -5.199608499      0.000      0.000
REMARK  5 active torsions:
REMARK  status: ('A' for Active; 'I' for Inactive)
REMARK    1  A    between atoms: N1_1  and  C1_4 
REMARK    2  A    between atoms: C2_7  and  N3_8 
REMARK    3  A    between atoms: N3_8  and  C3_10 
REMARK    4  A    between atoms: C3_10  and  C4_11 
REMARK    5  A    between atoms: C4_11  and  N4_12 
ROOT
HETATM    1  C1  UNL     1      30.073  75.293  15.444  1.00  0.00     0.692 A 
HETATM    2  N2  UNL     1      29.960  75.035  14.132  1.00  0.00    -0.175 N 
ATOM      3  H2  UNL     1      30.088  75.787  13.455  1.00  0.00     0.186 HD
HETATM    4  C2  UNL     1      29.674  73.771  13.698  1.00  0.00     0.134 A 
HETATM    5  C5  UNL     1      29.500  72.753  14.601  1.00  0.00     0.156 A 
HETATM    6  N5  UNL     1      29.622  73.048  15.922  1.00  0.00    -0.294 N 
ATOM      7  H5  UNL     1      29.499  72.313  16.618  1.00  0.00     0.186 HD
HETATM    8  N6  UNL     1      29.899  74.283  16.314  1.00  0.00    -0.133 N 
ATOM      9  H6  UNL     1      29.984  74.475  17.311  1.00  0.00     0.205 HD
ENDROOT
BRANCH   4  10
HETATM   10  N3  UNL     1      29.546  73.557  12.311  1.00  0.00    -0.373 N 
ATOM     11  H3  UNL     1      30.258  73.979  11.715  1.00  0.00     0.161 HD
BRANCH  10  12
HETATM   12  C3  UNL     1      28.526  72.813  11.656  1.00  0.00     0.148 C 
BRANCH  12  13
HETATM   13  C4  UNL     1      28.948  71.529  11.024  1.00  0.00     0.249 C 
BRANCH  13  14
HETATM   14  N4  UNL     1      28.601  71.602   9.598  1.00  0.00    -0.078 N 
ATOM     15  H43 UNL     1      27.623  71.378   9.416  1.00  0.00     0.274 HD
ATOM     16  H42 UNL     1      28.588  72.557   9.241  1.00  0.00     0.274 HD
ATOM     17  H41 UNL     1      29.249  70.997   9.093  1.00  0.00     0.274 HD
ENDBRANCH  13  14
ENDBRANCH  12  13
ENDBRANCH  10  12
ENDBRANCH   4  10
BRANCH   1  18
HETATM   18  N1  UNL     1      30.344  76.487  15.905  1.00  0.00    -0.233 N 
ATOM     19  H12 UNL     1      31.250  76.652  16.343  1.00  0.00     0.174 HD
ATOM     20  H11 UNL     1      29.684  77.262  15.844  1.00  0.00     0.174 HD
ENDBRANCH   1  18
TORSDOF 5
ENDMDL
MODEL 2
REMARK VINA RESULT: -5.070893528      1.417      5.066
REMARK  5 active torsions:
REMARK  status: ('A' for Active; 'I' for Inactive)
REMARK    1  A    between atoms: N1_1  and  C1_4 
REMARK    2  A    between atoms: C2_7  and  N3_8 
REMARK    3  A    between atoms: N3_8  and  C3_10 
REMARK    4  A    between atoms: C3_10  and  C4_11 
REMARK    5  A    between atoms: C4_11  and  N4_12 
ROOT
HETATM    1  C1  UNL     1      29.002  71.794  10.906  1.00  0.00     0.692 A 
HETATM    2  N2  UNL     1      28.904  73.002  11.481  1.00  0.00    -0.175 N 
ATOM      3  H2  UNL     1      28.380  73.744  11.015  1.00  0.00     0.186 HD
HETATM    4  C2  UNL     1      29.501  73.245  12.686  1.00  0.00     0.134 A 
HETATM    5  C5  UNL     1      30.207  72.255  13.320  1.00  0.00     0.156 A 
HETATM    6  N5  UNL     1      30.287  71.042  12.710  1.00  0.00    -0.294 N 
ATOM      7  H5  UNL     1      30.804  70.285  13.157  1.00  0.00     0.186 HD
HETATM    8  N6  UNL     1      29.698  70.836  11.542  1.00  0.00    -0.133 N 
ATOM      9  H6  UNL     1      29.775  69.916  11.109  1.00  0.00     0.205 HD
ENDROOT
BRANCH   4  10
HETATM   10  N3  UNL     1      29.385  74.538  13.237  1.00  0.00    -0.373 N 
ATOM     11  H3  UNL     1      29.450  75.320  12.587  1.00  0.00     0.161 HD
BRANCH  10  12
HETATM   12  C3  UNL     1      29.186  74.862  14.607  1.00  0.00     0.148 C 
BRANCH  12  13
HETATM   13  C4  UNL     1      30.299  75.596  15.280  1.00  0.00     0.249 C 
BRANCH  13  14
HETATM   14  N4  UNL     1      30.406  75.079  16.650  1.00  0.00    -0.078 N 
ATOM     15  H43 UNL     1      30.020  74.140  16.751  1.00  0.00     0.274 HD
ATOM     16  H42 UNL     1      31.366  74.859  16.918  1.00  0.00     0.274 HD
ATOM     17  H41 UNL     1      29.966  75.759  17.271  1.00  0.00     0.274 HD
ENDBRANCH  13  14
ENDBRANCH  12  13
ENDBRANCH  10  12
ENDBRANCH   4  10
BRANCH   1  18
HETATM   18  N1  UNL     1      28.448  71.516   9.754  1.00  0.00    -0.233 N 
ATOM     19  H12 UNL     1      27.468  71.757   9.607  1.00  0.00     0.174 HD
ATOM     20  H11 UNL     1      28.958  71.065   8.995  1.00  0.00     0.174 HD
ENDBRANCH   1  18
TORSDOF 5
ENDMDL
MODEL 3
REMARK VINA RESULT: -4.967396023      1.592      2.608
REMARK  5 active torsions:
REMARK  status: ('A' for Active; 'I' for Inactive)
REMARK    1  A    between atoms: N1_1  and  C1_4 
REMARK    2  A    between atoms: C2_7  and  N3_8 
REMARK    3  A    between atoms: N3_8  and  C3_10 
REMARK    4  A    between atoms: C3_10  and  C4_11 
REMARK    5  A    between atoms: C4_11  and  N4_12 
ROOT
HETATM    1  C1  UNL     1      30.510  74.019  17.493  1.00  0.00     0.692 A 
HETATM    2  N2  UNL     1      30.024  73.246  16.511  1.00  0.00    -0.175 N 
ATOM      3  H2  UNL     1      29.910  72.244  16.663  1.00  0.00     0.186 HD
HETATM    4  C2  UNL     1      29.681  73.793  15.306  1.00  0.00     0.134 A 
HETATM    5  C5  UNL     1      29.831  75.139  15.091  1.00  0.00     0.156 A 
HETATM    6  N5  UNL     1      30.326  75.894  16.107  1.00  0.00    -0.294 N 
ATOM      7  H5  UNL     1      30.447  76.898  15.978  1.00  0.00     0.186 HD
HETATM    8  N6  UNL     1      30.650  75.336  17.264  1.00  0.00    -0.133 N 
ATOM      9  H6  UNL     1      31.019  75.927  18.008  1.00  0.00     0.205 HD
ENDROOT
BRANCH   4  10
HETATM   10  N3  UNL     1      29.194  72.934  14.300  1.00  0.00    -0.373 N 
ATOM     11  H3  UNL     1      28.346  72.410  14.516  1.00  0.00     0.161 HD
BRANCH  10  12
HETATM   12  C3  UNL     1      29.763  72.723  13.014  1.00  0.00     0.148 C 
BRANCH  12  13
HETATM   13  C4  UNL     1      28.911  73.093  11.846  1.00  0.00     0.249 C 
BRANCH  13  14
HETATM   14  N4  UNL     1      29.149  74.514  11.557  1.00  0.00    -0.078 N 
ATOM     15  H43 UNL     1      29.866  74.925  12.153  1.00  0.00     0.274 HD
ATOM     16  H42 UNL     1      29.616  74.664  10.662  1.00  0.00     0.274 HD
ATOM     17  H41 UNL     1      28.251  74.996  11.623  1.00  0.00     0.274 HD
ENDBRANCH  13  14
ENDBRANCH  12  13
ENDBRANCH  10  12
ENDBRANCH   4  10
BRANCH   1  18
HETATM   18  N1  UNL     1      30.852  73.540  18.661  1.00  0.00    -0.233 N 
ATOM     19  H12 UNL     1      31.003  74.186  19.436  1.00  0.00     0.174 HD
ATOM     20  H11 UNL     1      30.974  72.541  18.830  1.00  0.00     0.174 HD
ENDBRANCH   1  18
TORSDOF 5
ENDMDL
MODEL 4
REMARK VINA RESULT: -4.835289186      1.607      5.194
REMARK  5 active torsions:
REMARK  status: ('A' for Active; 'I' for Inactive)
REMARK    1  A    between atoms: N1_1  and  C1_4 
REMARK    2  A    between atoms: C2_7  and  N3_8 
REMARK    3  A    between atoms: N3_8  and  C3_10 
REMARK    4  A    between atoms: C3_10  and  C4_11 
REMARK    5  A    between atoms: C4_11  and  N4_12 
ROOT
HETATM    1  C1  UNL     1      28.918  71.523  10.361  1.00  0.00     0.692 A 
HETATM    2  N2  UNL     1      28.749  72.473  11.294  1.00  0.00    -0.175 N 
ATOM      3  H2  UNL     1      28.124  73.259  11.109  1.00  0.00     0.186 HD
HETATM    4  C2  UNL     1      29.407  72.395  12.489  1.00  0.00     0.134 A 
HETATM    5  C5  UNL     1      30.249  71.343  12.746  1.00  0.00     0.156 A 
HETATM    6  N5  UNL     1      30.398  70.398  11.781  1.00  0.00    -0.294 N 
ATOM      7  H5  UNL     1      31.016  69.604  11.943  1.00  0.00     0.186 HD
HETATM    8  N6  UNL     1      29.747  70.500  10.632  1.00  0.00    -0.133 N 
ATOM      9  H6  UNL     1      29.879  69.776   9.926  1.00  0.00     0.205 HD
ENDROOT
BRANCH   4  10
HETATM   10  N3  UNL     1      29.210  73.430  13.426  1.00  0.00    -0.373 N 
ATOM     11  H3  UNL     1      28.273  73.828  13.477  1.00  0.00     0.161 HD
BRANCH  10  12
HETATM   12  C3  UNL     1      30.183  73.974  14.308  1.00  0.00     0.148 C 
BRANCH  12  13
HETATM   13  C4  UNL     1      29.859  75.300  14.911  1.00  0.00     0.249 C 
BRANCH  13  14
HETATM   14  N4  UNL     1      28.402  75.474  14.842  1.00  0.00    -0.078 N 
ATOM     15  H43 UNL     1      27.913  75.039  15.624  1.00  0.00     0.274 HD
ATOM     16  H42 UNL     1      28.107  76.435  15.017  1.00  0.00     0.274 HD
ATOM     17  H41 UNL     1      28.093  75.123  13.935  1.00  0.00     0.274 HD
ENDBRANCH  13  14
ENDBRANCH  12  13
ENDBRANCH  10  12
ENDBRANCH   4  10
BRANCH   1  18
HETATM   18  N1  UNL     1      28.310  71.557   9.204  1.00  0.00    -0.233 N 
ATOM     19  H12 UNL     1      27.343  71.238   9.146  1.00  0.00     0.174 HD
ATOM     20  H11 UNL     1      28.765  71.890   8.355  1.00  0.00     0.174 HD
ENDBRANCH   1  18
TORSDOF 5
ENDMDL
MODEL 5
REMARK VINA RESULT: -4.812775318      1.572      1.963
REMARK  5 active torsions:
REMARK  status: ('A' for Active; 'I' for Inactive)
REMARK    1  A    between atoms: N1_1  and  C1_4 
REMARK    2  A    between atoms: C2_7  and  N3_8 
REMARK    3  A    between atoms: N3_8  and  C3_10 
REMARK    4  A    between atoms: C3_10  and  C4_11 
REMARK    5  A    between atoms: C4_11  and  N4_12 
ROOT
HETATM    1  C1  UNL     1      29.392  74.513  14.531  1.00  0.00     0.692 A 
HETATM    2  N2  UNL     1      29.188  73.422  13.778  1.00  0.00    -0.175 N 
ATOM      3  H2  UNL     1      28.236  73.113  13.581  1.00  0.00     0.186 HD
HETATM    4  C2  UNL     1      30.248  72.722  13.274  1.00  0.00     0.134 A 
HETATM    5  C5  UNL     1      31.532  73.129  13.533  1.00  0.00     0.156 A 
HETATM    6  N5  UNL     1      31.703  74.239  14.299  1.00  0.00    -0.294 N 
ATOM      7  H5  UNL     1      32.646  74.568  14.508  1.00  0.00     0.186 HD
HETATM    8  N6  UNL     1      30.657  74.898  14.774  1.00  0.00    -0.133 N 
ATOM      9  H6  UNL     1      30.817  75.726  15.346  1.00  0.00     0.205 HD
ENDROOT
BRANCH   4  10
HETATM   10  N3  UNL     1      29.980  71.570  12.505  1.00  0.00    -0.373 N 
ATOM     11  H3  UNL     1      30.375  70.693  12.843  1.00  0.00     0.161 HD
BRANCH  10  12
HETATM   12  C3  UNL     1      29.216  71.507  11.308  1.00  0.00     0.148 C 
BRANCH  12  13
HETATM   13  C4  UNL     1      29.127  70.169  10.652  1.00  0.00     0.249 C 
BRANCH  13  14
HETATM   14  N4  UNL     1      27.732  69.970  10.238  1.00  0.00    -0.078 N 
ATOM     15  H43 UNL     1      27.067  70.133  10.993  1.00  0.00     0.274 HD
ATOM     16  H42 UNL     1      27.398  70.699   9.606  1.00  0.00     0.274 HD
ATOM     17  H41 UNL     1      27.660  69.034   9.838  1.00  0.00     0.274 HD
ENDBRANCH  13  14
ENDBRANCH  12  13
ENDBRANCH  10  12
ENDBRANCH   4  10
BRANCH   1  18
HETATM   18  N1  UNL     1      28.409  75.214  15.035  1.00  0.00    -0.233 N 
ATOM     19  H12 UNL     1      28.380  76.219  14.862  1.00  0.00     0.174 HD
ATOM     20  H11 UNL     1      27.668  74.794  15.596  1.00  0.00     0.174 HD
ENDBRANCH   1  18
TORSDOF 5
ENDMDL
