MODEL 1
REMARK VINA RESULT: -4.561328958      0.000      0.000
REMARK  5 active torsions:
REMARK  status: ('A' for Active; 'I' for Inactive)
REMARK    1  A    between atoms: N1_1  and  C1_4 
REMARK    2  A    between atoms: C2_10  and  S1_11 
REMARK    3  A    between atoms: S1_11  and  C3_12 
REMARK    4  A    between atoms: C3_12  and  C4_13 
REMARK    5  A    between atoms: C4_13  and  N4_14 
ROOT
HETATM    1  C1  UNL     1      29.229  73.265  11.855  1.00  0.00     0.157 A 
HETATM    2  N2  UNL     1      28.469  72.388  11.182  1.00  0.00    -0.223 N 
ATOM      3  H2  UNL     1      27.739  72.611  10.504  1.00  0.00     0.198 HD
HETATM    4  O1  UNL     1      28.841  71.196  11.560  1.00  0.00    -0.154 OA
HETATM    5  N3  UNL     1      29.781  71.260  12.425  1.00  0.00    -0.231 N 
ATOM      6  H3  UNL     1      30.226  70.452  12.860  1.00  0.00     0.197 HD
HETATM    7  C2  UNL     1      30.098  72.530  12.676  1.00  0.00     0.138 A 
ENDROOT
BRANCH   7   8
HETATM    8  S1  UNL     1      31.253  73.296  13.747  1.00  0.00    -0.105 SA
BRANCH   8   9
HETATM    9  C3  UNL     1      30.635  73.836  15.318  1.00  0.00     0.108 C 
BRANCH   9  10
HETATM   10  C4  UNL     1      29.948  75.166  15.190  1.00  0.00     0.240 C 
BRANCH  10  11
HETATM   11  N4  UNL     1      28.515  75.113  15.119  1.00  0.00    -0.079 N 
ATOM     12  H43 UNL     1      28.225  74.465  14.387  1.00  0.00     0.274 HD
ATOM     13  H42 UNL     1      28.141  74.636  15.939  1.00  0.00     0.274 HD
ATOM     14  H41 UNL     1      28.051  76.013  14.995  1.00  0.00     0.274 HD
ENDBRANCH  10  11
ENDBRANCH   9  10
ENDBRANCH   8   9
ENDBRANCH   7   8
BRANCH   1  15
HETATM   15  N1  UNL     1      29.148  74.545  11.741  1.00  0.00    -0.382 N 
ATOM     16  H12 UNL     1      28.915  75.083  10.907  1.00  0.00     0.157 HD
ATOM     17  H11 UNL     1      29.311  75.208  12.499  1.00  0.00     0.157 HD
ENDBRANCH   1  15
TORSDOF 5
ENDMDL
MODEL 2
REMARK VINA RESULT: -4.509724244      1.989      2.257
REMARK  5 active torsions:
REMARK  status: ('A' for Active; 'I' for Inactive)
REMARK    1  A    between atoms: N1_1  and  C1_4 
REMARK    2  A    between atoms: C2_10  and  S1_11 
REMARK    3  A    between atoms: S1_11  and  C3_12 
REMARK    4  A    between atoms: C3_12  and  C4_13 
REMARK    5  A    between atoms: C4_13  and  N4_14 
ROOT
HETATM    1  C1  UNL     1      28.866  71.046  10.265  1.00  0.00     0.157 A 
HETATM    2  N2  UNL     1      29.095  69.727  10.175  1.00  0.00    -0.223 N 
ATOM      3  H2  UNL     1      28.894  69.128   9.374  1.00  0.00     0.198 HD
HETATM    4  O1  UNL     1      29.624  69.357  11.309  1.00  0.00    -0.154 OA
HETATM    5  N3  UNL     1      29.745  70.350  12.107  1.00  0.00    -0.231 N 
ATOM      6  H3  UNL     1      30.133  70.295  13.048  1.00  0.00     0.197 HD
HETATM    7  C2  UNL     1      29.292  71.465  11.534  1.00  0.00     0.138 A 
ENDROOT
BRANCH   7   8
HETATM    8  S1  UNL     1      29.150  73.126  12.073  1.00  0.00    -0.105 SA
BRANCH   8   9
HETATM    9  C3  UNL     1      30.042  73.557  13.544  1.00  0.00     0.108 C 
BRANCH   9  10
HETATM   10  C4  UNL     1      29.449  74.777  14.186  1.00  0.00     0.240 C 
BRANCH  10  11
HETATM   11  N4  UNL     1      28.570  74.523  15.293  1.00  0.00    -0.079 N 
ATOM     12  H43 UNL     1      28.900  75.017  16.122  1.00  0.00     0.274 HD
ATOM     13  H42 UNL     1      27.677  74.995  15.147  1.00  0.00     0.274 HD
ATOM     14  H41 UNL     1      28.414  73.539  15.509  1.00  0.00     0.274 HD
ENDBRANCH  10  11
ENDBRANCH   9  10
ENDBRANCH   8   9
ENDBRANCH   7   8
BRANCH   1  15
HETATM   15  N1  UNL     1      28.347  71.765   9.331  1.00  0.00    -0.382 N 
ATOM     16  H12 UNL     1      28.540  71.722   8.331  1.00  0.00     0.157 HD
ATOM     17  H11 UNL     1      27.651  72.496   9.479  1.00  0.00     0.157 HD
ENDBRANCH   1  15
TORSDOF 5
ENDMDL
MODEL 3
REMARK VINA RESULT: -4.497133565      2.685      4.593
REMARK  5 active torsions:
REMARK  status: ('A' for Active; 'I' for Inactive)
REMARK    1  A    between atoms: N1_1  and  C1_4 
REMARK    2  A    between atoms: C2_10  and  S1_11 
REMARK    3  A    between atoms: S1_11  and  C3_12 
REMARK    4  A    between atoms: C3_12  and  C4_13 
REMARK    5  A    between atoms: C4_13  and  N4_14 
ROOT
HETATM    1  C1  UNL     1      29.878  74.539  14.721  1.00  0.00     0.157 A 
HETATM    2  N2  UNL     1      30.985  74.964  15.347  1.00  0.00    -0.223 N 
ATOM      3  H2  UNL     1      31.026  75.522  16.200  1.00  0.00     0.198 HD
HETATM    4  O1  UNL     1      32.002  74.528  14.655  1.00  0.00    -0.154 OA
HETATM    5  N3  UNL     1      31.614  73.858  13.637  1.00  0.00    -0.231 N 
ATOM      6  H3  UNL     1      32.235  73.423  12.956  1.00  0.00     0.197 HD
HETATM    7  C2  UNL     1      30.282  73.808  13.593  1.00  0.00     0.138 A 
ENDROOT
BRANCH   7   8
HETATM    8  S1  UNL     1      29.139  73.089  12.478  1.00  0.00    -0.105 SA
BRANCH   8   9
HETATM    9  C3  UNL     1      29.568  71.498  11.824  1.00  0.00     0.108 C 
BRANCH   9  10
HETATM   10  C4  UNL     1      28.723  71.170  10.627  1.00  0.00     0.240 C 
BRANCH  10  11
HETATM   11  N4  UNL     1      28.486  69.771  10.407  1.00  0.00    -0.079 N 
ATOM     12  H43 UNL     1      28.961  69.465   9.558  1.00  0.00     0.274 HD
ATOM     13  H42 UNL     1      28.986  69.217  11.102  1.00  0.00     0.274 HD
ATOM     14  H41 UNL     1      27.504  69.494  10.380  1.00  0.00     0.274 HD
ENDBRANCH  10  11
ENDBRANCH   9  10
ENDBRANCH   8   9
ENDBRANCH   7   8
BRANCH   1  15
HETATM   15  N1  UNL     1      28.675  74.777  15.115  1.00  0.00    -0.382 N 
ATOM     16  H12 UNL     1      28.341  75.580  15.647  1.00  0.00     0.157 HD
ATOM     17  H11 UNL     1      27.874  74.171  14.937  1.00  0.00     0.157 HD
ENDBRANCH   1  15
TORSDOF 5
ENDMDL
MODEL 4
REMARK VINA RESULT: -4.470962395      2.429      4.084
REMARK  5 active torsions:
REMARK  status: ('A' for Active; 'I' for Inactive)
REMARK    1  A    between atoms: N1_1  and  C1_4 
REMARK    2  A    between atoms: C2_10  and  S1_11 
REMARK    3  A    between atoms: S1_11  and  C3_12 
REMARK    4  A    between atoms: C3_12  and  C4_13 
REMARK    5  A    between atoms: C4_13  and  N4_14 
ROOT
HETATM    1  C1  UNL     1      29.600  73.615  15.402  1.00  0.00     0.157 A 
HETATM    2  N2  UNL     1      29.911  74.835  15.864  1.00  0.00    -0.223 N 
ATOM      3  H2  UNL     1      29.427  75.348  16.601  1.00  0.00     0.198 HD
HETATM    4  O1  UNL     1      30.953  75.241  15.191  1.00  0.00    -0.154 OA
HETATM    5  N3  UNL     1      31.320  74.362  14.336  1.00  0.00    -0.231 N 
ATOM      6  H3  UNL     1      32.110  74.465  13.700  1.00  0.00     0.197 HD
HETATM    7  C2  UNL     1      30.524  73.295  14.395  1.00  0.00     0.138 A 
ENDROOT
BRANCH   7   8
HETATM    8  S1  UNL     1      30.462  71.786  13.507  1.00  0.00    -0.105 SA
BRANCH   8   9
HETATM    9  C3  UNL     1      29.598  71.817  11.959  1.00  0.00     0.108 C 
BRANCH   9  10
HETATM   10  C4  UNL     1      28.595  72.933  11.934  1.00  0.00     0.240 C 
BRANCH  10  11
HETATM   11  N4  UNL     1      29.109  74.213  11.534  1.00  0.00    -0.079 N 
ATOM     12  H43 UNL     1      28.843  74.925  12.214  1.00  0.00     0.274 HD
ATOM     13  H42 UNL     1      30.123  74.233  11.642  1.00  0.00     0.274 HD
ATOM     14  H41 UNL     1      28.852  74.512  10.593  1.00  0.00     0.274 HD
ENDBRANCH  10  11
ENDBRANCH   9  10
ENDBRANCH   8   9
ENDBRANCH   7   8
BRANCH   1  15
HETATM   15  N1  UNL     1      28.623  72.895  15.832  1.00  0.00    -0.382 N 
ATOM     16  H12 UNL     1      27.633  73.137  15.852  1.00  0.00     0.157 HD
ATOM     17  H11 UNL     1      28.718  71.957  16.219  1.00  0.00     0.157 HD
ENDBRANCH   1  15
TORSDOF 5
ENDMDL
MODEL 5
REMARK VINA RESULT: -4.455456183      2.529      4.664
REMARK  5 active torsions:
REMARK  status: ('A' for Active; 'I' for Inactive)
REMARK    1  A    between atoms: N1_1  and  C1_4 
REMARK    2  A    between atoms: C2_10  and  S1_11 
REMARK    3  A    between atoms: S1_11  and  C3_12 
REMARK    4  A    between atoms: C3_12  and  C4_13 
REMARK    5  A    between atoms: C4_13  and  N4_14 
ROOT
HETATM    1  C1  UNL     1      29.142  73.622  14.948  1.00  0.00     0.157 A 
HETATM    2  N2  UNL     1      28.802  74.892  15.217  1.00  0.00    -0.223 N 
ATOM      3  H2  UNL     1      28.524  75.268  16.123  1.00  0.00     0.198 HD
HETATM    4  O1  UNL     1      28.895  75.554  14.096  1.00  0.00    -0.154 OA
HETATM    5  N3  UNL     1      29.269  74.791  13.140  1.00  0.00    -0.231 N 
ATOM      6  H3  UNL     1      29.408  75.093  12.176  1.00  0.00     0.197 HD
HETATM    7  C2  UNL     1      29.452  73.547  13.581  1.00  0.00     0.138 A 
ENDROOT
BRANCH   7   8
HETATM    8  S1  UNL     1      29.928  72.050  12.807  1.00  0.00    -0.105 SA
BRANCH   8   9
HETATM    9  C3  UNL     1      29.130  71.669  11.269  1.00  0.00     0.108 C 
BRANCH   9  10
HETATM   10  C4  UNL     1      29.295  70.215  10.931  1.00  0.00     0.240 C 
BRANCH  10  11
HETATM   11  N4  UNL     1      28.145  69.587  10.344  1.00  0.00    -0.079 N 
ATOM     12  H43 UNL     1      27.938  68.713  10.828  1.00  0.00     0.274 HD
ATOM     13  H42 UNL     1      27.303  70.119  10.565  1.00  0.00     0.274 HD
ATOM     14  H41 UNL     1      28.203  69.425   9.338  1.00  0.00     0.274 HD
ENDBRANCH  10  11
ENDBRANCH   9  10
ENDBRANCH   8   9
ENDBRANCH   7   8
BRANCH   1  15
HETATM   15  N1  UNL     1      29.168  72.671  15.815  1.00  0.00    -0.382 N 
ATOM     16  H12 UNL     1      29.601  72.680  16.738  1.00  0.00     0.157 HD
ATOM     17  H11 UNL     1      28.742  71.754  15.685  1.00  0.00     0.157 HD
ENDBRANCH   1  15
TORSDOF 5
ENDMDL
