MODEL 1
REMARK VINA RESULT: -4.619737662      0.000      0.000
REMARK  5 active torsions:
REMARK  status: ('A' for Active; 'I' for Inactive)
REMARK    1  A    between atoms: N1_1  and  C1_5 
REMARK    2  A    between atoms: C1_5  and  N2_6 
REMARK    3  A    between atoms: C1_5  and  C2_10 
REMARK    4  A    between atoms: C2_10  and  N3_11 
REMARK    5  A    between atoms: C2_10  and  C3_15 
ROOT
HETATM    1  C2  UNL     1      29.867  73.895  14.942  1.00  0.00     0.272 C 
ENDROOT
BRANCH   1   2
HETATM    2  C1  UNL     1      29.698  75.378  14.813  1.00  0.00     0.410 C 
BRANCH   2   3
HETATM    3  N1  UNL     1      30.343  76.065  15.913  1.00  0.00    -0.048 N 
ATOM      4  H13 UNL     1      29.683  76.484  16.568  1.00  0.00     0.276 HD
ATOM      5  H12 UNL     1      30.795  75.433  16.573  1.00  0.00     0.276 HD
ATOM      6  H11 UNL     1      30.986  76.742  15.501  1.00  0.00     0.276 HD
ENDBRANCH   2   3
BRANCH   2   7
HETATM    7  N2  UNL     1      28.286  75.710  14.882  1.00  0.00    -0.048 N 
ATOM      8  H23 UNL     1      28.112  76.663  15.201  1.00  0.00     0.276 HD
ATOM      9  H22 UNL     1      27.848  75.799  13.966  1.00  0.00     0.276 HD
ATOM     10  H21 UNL     1      27.846  75.003  15.471  1.00  0.00     0.276 HD
ENDBRANCH   2   7
ENDBRANCH   1   2
BRANCH   1  11
HETATM   11  N3  UNL     1      28.696  73.270  15.556  1.00  0.00    -0.069 N 
ATOM     12  H33 UNL     1      28.646  73.473  16.555  1.00  0.00     0.274 HD
ATOM     13  H32 UNL     1      27.832  73.724  15.259  1.00  0.00     0.274 HD
ATOM     14  H31 UNL     1      28.670  72.266  15.379  1.00  0.00     0.274 HD
ENDBRANCH   1  11
BRANCH   1  15
HETATM   15  C3  UNL     1      30.097  73.172  13.652  1.00  0.00     0.230 C 
HETATM   16  C4  UNL     1      30.669  71.780  13.806  1.00  0.00     0.110 C 
HETATM   17  S1  UNL     1      30.106  71.048  12.208  1.00  0.00    -0.140 SA
HETATM   18  C5  UNL     1      29.065  72.470  11.681  1.00  0.00     0.306 C 
HETATM   19  N4  UNL     1      28.789  73.016  13.022  1.00  0.00    -0.060 N 
ATOM     20  H42 UNL     1      28.134  72.454  13.568  1.00  0.00     0.278 HD
ATOM     21  H41 UNL     1      28.232  73.871  13.012  1.00  0.00     0.278 HD
ENDBRANCH   1  15
TORSDOF 5
ENDMDL
MODEL 2
REMARK VINA RESULT: -4.542729226      1.511      2.203
REMARK  5 active torsions:
REMARK  status: ('A' for Active; 'I' for Inactive)
REMARK    1  A    between atoms: N1_1  and  C1_5 
REMARK    2  A    between atoms: C1_5  and  N2_6 
REMARK    3  A    between atoms: C1_5  and  C2_10 
REMARK    4  A    between atoms: C2_10  and  N3_11 
REMARK    5  A    between atoms: C2_10  and  C3_15 
ROOT
HETATM    1  C2  UNL     1      29.163  73.365  12.946  1.00  0.00     0.272 C 
ENDROOT
BRANCH   1   2
HETATM    2  C1  UNL     1      29.588  74.055  14.206  1.00  0.00     0.410 C 
BRANCH   2   3
HETATM    3  N1  UNL     1      28.703  73.714  15.301  1.00  0.00    -0.048 N 
ATOM      4  H13 UNL     1      27.739  74.010  15.146  1.00  0.00     0.276 HD
ATOM      5  H12 UNL     1      28.519  72.714  15.373  1.00  0.00     0.276 HD
ATOM      6  H11 UNL     1      29.114  74.109  16.147  1.00  0.00     0.276 HD
ENDBRANCH   2   3
BRANCH   2   7
HETATM    7  N2  UNL     1      29.495  75.492  14.024  1.00  0.00    -0.048 N 
ATOM      8  H23 UNL     1      28.884  75.761  13.253  1.00  0.00     0.276 HD
ATOM      9  H22 UNL     1      28.976  75.959  14.768  1.00  0.00     0.276 HD
ATOM     10  H21 UNL     1      30.448  75.838  13.921  1.00  0.00     0.276 HD
ENDBRANCH   2   7
ENDBRANCH   1   2
BRANCH   1  11
HETATM   11  N3  UNL     1      29.154  74.282  11.807  1.00  0.00    -0.069 N 
ATOM     12  H33 UNL     1      28.233  74.324  11.370  1.00  0.00     0.274 HD
ATOM     13  H32 UNL     1      29.229  75.253  12.109  1.00  0.00     0.274 HD
ATOM     14  H31 UNL     1      29.878  74.045  11.128  1.00  0.00     0.274 HD
ENDBRANCH   1  11
BRANCH   1  15
HETATM   15  C3  UNL     1      30.018  72.206  12.542  1.00  0.00     0.230 C 
HETATM   16  C4  UNL     1      30.445  71.312  13.684  1.00  0.00     0.110 C 
HETATM   17  S1  UNL     1      30.773  69.759  12.743  1.00  0.00    -0.140 SA
HETATM   18  C5  UNL     1      30.130  70.355  11.126  1.00  0.00     0.306 C 
HETATM   19  N4  UNL     1      29.209  71.380  11.649  1.00  0.00    -0.060 N 
ATOM     20  H42 UNL     1      28.373  70.996  12.090  1.00  0.00     0.278 HD
ATOM     21  H41 UNL     1      28.727  71.911  10.923  1.00  0.00     0.278 HD
ENDBRANCH   1  15
TORSDOF 5
ENDMDL
MODEL 3
REMARK VINA RESULT: -4.488275380      0.992      1.333
REMARK  5 active torsions:
REMARK  status: ('A' for Active; 'I' for Inactive)
REMARK    1  A    between atoms: N1_1  and  C1_5 
REMARK    2  A    between atoms: C1_5  and  N2_6 
REMARK    3  A    between atoms: C1_5  and  C2_10 
REMARK    4  A    between atoms: C2_10  and  N3_11 
REMARK    5  A    between atoms: C2_10  and  C3_15 
ROOT
HETATM    1  C2  UNL     1      29.567  74.103  15.414  1.00  0.00     0.272 C 
ENDROOT
BRANCH   1   2
HETATM    2  C1  UNL     1      30.622  74.924  16.090  1.00  0.00     0.410 C 
BRANCH   2   3
HETATM    3  N1  UNL     1      30.617  74.690  17.519  1.00  0.00    -0.048 N 
ATOM      4  H13 UNL     1      31.250  73.943  17.807  1.00  0.00     0.276 HD
ATOM      5  H12 UNL     1      31.054  75.441  18.052  1.00  0.00     0.276 HD
ATOM      6  H11 UNL     1      29.647  74.520  17.786  1.00  0.00     0.276 HD
ENDBRANCH   2   3
BRANCH   2   7
HETATM    7  N2  UNL     1      30.335  76.334  15.896  1.00  0.00    -0.048 N 
ATOM      8  H23 UNL     1      31.039  76.948  16.305  1.00  0.00     0.276 HD
ATOM      9  H22 UNL     1      30.446  76.638  14.929  1.00  0.00     0.276 HD
ATOM     10  H21 UNL     1      29.398  76.497  16.263  1.00  0.00     0.276 HD
ENDBRANCH   2   7
ENDBRANCH   1   2
BRANCH   1  11
HETATM   11  N3  UNL     1      28.409  74.916  15.041  1.00  0.00    -0.069 N 
ATOM     12  H33 UNL     1      27.835  74.447  14.340  1.00  0.00     0.274 HD
ATOM     13  H32 UNL     1      27.727  74.962  15.798  1.00  0.00     0.274 HD
ATOM     14  H31 UNL     1      28.688  75.848  14.733  1.00  0.00     0.274 HD
ENDBRANCH   1  11
BRANCH   1  15
HETATM   15  C3  UNL     1      30.010  73.411  14.163  1.00  0.00     0.230 C 
HETATM   16  C4  UNL     1      30.593  72.033  14.382  1.00  0.00     0.110 C 
HETATM   17  S1  UNL     1      30.300  71.316  12.707  1.00  0.00    -0.140 SA
HETATM   18  C5  UNL     1      29.310  72.719  12.048  1.00  0.00     0.306 C 
HETATM   19  N4  UNL     1      28.817  73.232  13.340  1.00  0.00    -0.060 N 
ATOM     20  H42 UNL     1      28.105  72.643  13.772  1.00  0.00     0.278 HD
ATOM     21  H41 UNL     1      28.244  74.072  13.258  1.00  0.00     0.278 HD
ENDBRANCH   1  15
TORSDOF 5
ENDMDL
MODEL 4
REMARK VINA RESULT: -4.428982801      1.464      2.234
REMARK  5 active torsions:
REMARK  status: ('A' for Active; 'I' for Inactive)
REMARK    1  A    between atoms: N1_1  and  C1_5 
REMARK    2  A    between atoms: C1_5  and  N2_6 
REMARK    3  A    between atoms: C1_5  and  C2_10 
REMARK    4  A    between atoms: C2_10  and  N3_11 
REMARK    5  A    between atoms: C2_10  and  C3_15 
ROOT
HETATM    1  C2  UNL     1      29.995  73.832  13.777  1.00  0.00     0.272 C 
ENDROOT
BRANCH   1   2
HETATM    2  C1  UNL     1      29.441  74.096  15.144  1.00  0.00     0.410 C 
BRANCH   2   3
HETATM    3  N1  UNL     1      28.776  72.919  15.664  1.00  0.00    -0.048 N 
ATOM      4  H13 UNL     1      28.405  72.311  14.934  1.00  0.00     0.276 HD
ATOM      5  H12 UNL     1      29.419  72.244  16.078  1.00  0.00     0.276 HD
ATOM      6  H11 UNL     1      28.063  73.247  16.316  1.00  0.00     0.276 HD
ENDBRANCH   2   3
BRANCH   2   7
HETATM    7  N2  UNL     1      28.438  75.143  15.064  1.00  0.00    -0.048 N 
ATOM      8  H23 UNL     1      28.000  75.211  14.146  1.00  0.00     0.276 HD
ATOM      9  H22 UNL     1      27.592  74.931  15.594  1.00  0.00     0.276 HD
ATOM     10  H21 UNL     1      28.891  76.008  15.359  1.00  0.00     0.276 HD
ENDBRANCH   2   7
ENDBRANCH   1   2
BRANCH   1  11
HETATM   11  N3  UNL     1      31.457  73.854  13.774  1.00  0.00    -0.069 N 
ATOM     12  H33 UNL     1      31.823  74.372  14.573  1.00  0.00     0.274 HD
ATOM     13  H32 UNL     1      31.844  72.935  13.991  1.00  0.00     0.274 HD
ATOM     14  H31 UNL     1      31.825  74.215  12.895  1.00  0.00     0.274 HD
ENDBRANCH   1  11
BRANCH   1  15
HETATM   15  C3  UNL     1      29.596  72.520  13.177  1.00  0.00     0.230 C 
HETATM   16  C4  UNL     1      28.969  72.622  11.805  1.00  0.00     0.110 C 
HETATM   17  S1  UNL     1      29.325  70.920  11.187  1.00  0.00    -0.140 SA
HETATM   18  C5  UNL     1      30.382  70.401  12.600  1.00  0.00     0.306 C 
HETATM   19  N4  UNL     1      30.823  71.744  13.017  1.00  0.00    -0.060 N 
ATOM     20  H42 UNL     1      31.499  72.171  12.382  1.00  0.00     0.278 HD
ATOM     21  H41 UNL     1      31.420  71.744  13.844  1.00  0.00     0.278 HD
ENDBRANCH   1  15
TORSDOF 5
ENDMDL
MODEL 5
REMARK VINA RESULT: -4.394482266      2.149      4.080
REMARK  5 active torsions:
REMARK  status: ('A' for Active; 'I' for Inactive)
REMARK    1  A    between atoms: N1_1  and  C1_5 
REMARK    2  A    between atoms: C1_5  and  N2_6 
REMARK    3  A    between atoms: C1_5  and  C2_10 
REMARK    4  A    between atoms: C2_10  and  N3_11 
REMARK    5  A    between atoms: C2_10  and  C3_15 
ROOT
HETATM    1  C2  UNL     1      29.505  73.361  11.985  1.00  0.00     0.272 C 
ENDROOT
BRANCH   1   2
HETATM    2  C1  UNL     1      28.473  72.330  11.645  1.00  0.00     0.410 C 
BRANCH   2   3
HETATM    3  N1  UNL     1      28.644  71.860  10.286  1.00  0.00    -0.048 N 
ATOM      4  H13 UNL     1      28.197  72.460   9.593  1.00  0.00     0.276 HD
ATOM      5  H12 UNL     1      29.600  71.960   9.944  1.00  0.00     0.276 HD
ATOM      6  H11 UNL     1      28.308  70.897  10.262  1.00  0.00     0.276 HD
ENDBRANCH   2   3
BRANCH   2   7
HETATM    7  N2  UNL     1      27.151  72.928  11.718  1.00  0.00    -0.048 N 
ATOM      8  H23 UNL     1      27.023  73.520  12.538  1.00  0.00     0.276 HD
ATOM      9  H22 UNL     1      26.997  73.650  11.013  1.00  0.00     0.276 HD
ATOM     10  H21 UNL     1      26.479  72.164  11.665  1.00  0.00     0.276 HD
ENDBRANCH   2   7
ENDBRANCH   1   2
BRANCH   1  11
HETATM   11  N3  UNL     1      29.086  74.700  11.572  1.00  0.00    -0.069 N 
ATOM     12  H33 UNL     1      29.824  75.179  11.055  1.00  0.00     0.274 HD
ATOM     13  H32 UNL     1      28.379  74.659  10.837  1.00  0.00     0.274 HD
ATOM     14  H31 UNL     1      28.766  75.255  12.366  1.00  0.00     0.274 HD
ENDBRANCH   1  11
BRANCH   1  15
HETATM   15  C3  UNL     1      29.844  73.460  13.439  1.00  0.00     0.230 C 
HETATM   16  C4  UNL     1      31.273  73.098  13.776  1.00  0.00     0.110 C 
HETATM   17  S1  UNL     1      31.447  74.020  15.365  1.00  0.00    -0.140 SA
HETATM   18  C5  UNL     1      29.831  74.894  15.279  1.00  0.00     0.306 C 
HETATM   19  N4  UNL     1      29.671  74.861  13.813  1.00  0.00    -0.060 N 
ATOM     20  H42 UNL     1      30.293  75.499  13.316  1.00  0.00     0.278 HD
ATOM     21  H41 UNL     1      28.796  75.269  13.485  1.00  0.00     0.278 HD
ENDBRANCH   1  15
TORSDOF 5
ENDMDL
