MODEL 1
REMARK VINA RESULT: -5.310376452      0.000      0.000
REMARK  4 active torsions:
REMARK  status: ('A' for Active; 'I' for Inactive)
REMARK    1  A    between atoms: C1_4  and  C2_6 
REMARK    2  A    between atoms: C4_8  and  C5_9 
REMARK    3  A    between atoms: C5_9  and  O1_10 
REMARK    4  A    between atoms: O1_10  and  C6_11 
ROOT
HETATM    1  C2  UNL     1      12.855  10.812  20.434  1.00  0.00     0.250 C 
HETATM    2  C3  UNL     1      14.249  10.447  19.902  1.00  0.00     0.049 C 
HETATM    3  C4  UNL     1      15.087  11.201  20.951  1.00  0.00     0.038 C 
HETATM    4  C7  UNL     1      14.220  11.097  22.205  1.00  0.00     0.240 C 
HETATM    5  N4  UNL     1      13.013  10.396  21.817  1.00  0.00    -0.064 N 
ATOM      6  H41 UNL     1      13.033   9.387  21.965  1.00  0.00     0.278 HD
ATOM      7  H42 UNL     1      12.205  10.565  22.415  1.00  0.00     0.278 HD
ENDROOT
BRANCH   1   8
HETATM    8  C1  UNL     1      11.799  10.073  19.732  1.00  0.00     0.117 C 
HETATM    9  N1  UNL     1      12.121   9.217  18.827  1.00  0.00    -0.389 N 
ATOM     10  H12 UNL     1      11.387   8.704  18.339  1.00  0.00     0.157 HD
ATOM     11  H11 UNL     1      13.104   9.059  18.603  1.00  0.00     0.157 HD
HETATM   12  N2  UNL     1      10.447  10.292  20.040  1.00  0.00    -0.086 NA
ENDBRANCH   1   8
BRANCH   3  13
HETATM   13  C5  UNL     1      16.418  10.557  21.145  1.00  0.00     0.186 C 
BRANCH  13  14
HETATM   14  O1  UNL     1      16.299   9.442  21.993  1.00  0.00    -0.306 OA
BRANCH  14  15
HETATM   15  C6  UNL     1      17.089   9.226  23.101  1.00  0.00     0.372 C 
HETATM   16  N3  UNL     1      17.137  10.267  24.095  1.00  0.00    -0.032 NA
HETATM   17  O2  UNL     1      17.744   8.175  23.251  1.00  0.00    -0.242 OA
ENDBRANCH  14  15
ENDBRANCH  13  14
ENDBRANCH   3  13
TORSDOF 4
ENDMDL
MODEL 2
REMARK VINA RESULT: -5.262509226      6.451      7.689
REMARK  4 active torsions:
REMARK  status: ('A' for Active; 'I' for Inactive)
REMARK    1  A    between atoms: C1_4  and  C2_6 
REMARK    2  A    between atoms: C4_8  and  C5_9 
REMARK    3  A    between atoms: C5_9  and  O1_10 
REMARK    4  A    between atoms: O1_10  and  C6_11 
ROOT
HETATM    1  C2  UNL     1      14.511  11.405  27.926  1.00  0.00     0.250 C 
HETATM    2  C3  UNL     1      14.034  12.862  27.815  1.00  0.00     0.049 C 
HETATM    3  C4  UNL     1      15.199  13.528  28.571  1.00  0.00     0.038 C 
HETATM    4  C7  UNL     1      16.381  12.627  28.221  1.00  0.00     0.240 C 
HETATM    5  N4  UNL     1      15.856  11.556  27.399  1.00  0.00    -0.064 N 
ATOM      6  H41 UNL     1      15.912  11.716  26.393  1.00  0.00     0.278 HD
ATOM      7  H42 UNL     1      16.415  10.704  27.392  1.00  0.00     0.278 HD
ENDROOT
BRANCH   1   8
HETATM    8  C1  UNL     1      13.679  10.504  27.119  1.00  0.00     0.117 C 
HETATM    9  N1  UNL     1      13.253  10.896  25.970  1.00  0.00    -0.389 N 
ATOM     10  H12 UNL     1      12.674  10.269  25.410  1.00  0.00     0.157 HD
ATOM     11  H11 UNL     1      13.494  11.826  25.628  1.00  0.00     0.157 HD
HETATM   12  N2  UNL     1      13.347   9.223  27.591  1.00  0.00    -0.086 NA
ENDBRANCH   1   8
BRANCH   3  13
HETATM   13  C5  UNL     1      15.416  14.928  28.106  1.00  0.00     0.186 C 
BRANCH  13  14
HETATM   14  O1  UNL     1      15.474  14.970  26.702  1.00  0.00    -0.306 OA
BRANCH  14  15
HETATM   15  C6  UNL     1      14.843  15.921  25.930  1.00  0.00     0.372 C 
HETATM   16  N3  UNL     1      14.279  15.492  24.676  1.00  0.00    -0.032 NA
HETATM   17  O2  UNL     1      14.757  17.113  26.289  1.00  0.00    -0.242 OA
ENDBRANCH  14  15
ENDBRANCH  13  14
ENDBRANCH   3  13
TORSDOF 4
ENDMDL
MODEL 3
REMARK VINA RESULT: -5.251242441      2.660      5.570
REMARK  4 active torsions:
REMARK  status: ('A' for Active; 'I' for Inactive)
REMARK    1  A    between atoms: C1_4  and  C2_6 
REMARK    2  A    between atoms: C4_8  and  C5_9 
REMARK    3  A    between atoms: C5_9  and  O1_10 
REMARK    4  A    between atoms: O1_10  and  C6_11 
ROOT
HETATM    1  C2  UNL     1      15.674  10.583  22.133  1.00  0.00     0.250 C 
HETATM    2  C3  UNL     1      14.196  10.932  22.368  1.00  0.00     0.049 C 
HETATM    3  C4  UNL     1      13.839  11.344  20.928  1.00  0.00     0.038 C 
HETATM    4  C7  UNL     1      14.733  10.432  20.090  1.00  0.00     0.240 C 
HETATM    5  N4  UNL     1      15.524   9.657  21.023  1.00  0.00    -0.064 N 
ATOM      6  H41 UNL     1      15.134   8.747  21.269  1.00  0.00     0.278 HD
ATOM      7  H42 UNL     1      16.397   9.288  20.647  1.00  0.00     0.278 HD
ENDROOT
BRANCH   1   8
HETATM    8  C1  UNL     1      16.276   9.962  23.318  1.00  0.00     0.117 C 
HETATM    9  N1  UNL     1      16.134  10.524  24.467  1.00  0.00    -0.389 N 
ATOM     10  H12 UNL     1      16.553  10.092  25.291  1.00  0.00     0.157 HD
ATOM     11  H11 UNL     1      15.608  11.394  24.546  1.00  0.00     0.157 HD
HETATM   12  N2  UNL     1      17.002   8.765  23.209  1.00  0.00    -0.086 NA
ENDBRANCH   1   8
BRANCH   3  13
HETATM   13  C5  UNL     1      12.394  11.112  20.642  1.00  0.00     0.186 C 
BRANCH  13  14
HETATM   14  O1  UNL     1      12.247  10.159  19.619  1.00  0.00    -0.306 OA
BRANCH  14  15
HETATM   15  C6  UNL     1      11.034   9.660  19.195  1.00  0.00     0.372 C 
HETATM   16  N3  UNL     1       9.865  10.025  19.952  1.00  0.00    -0.032 NA
HETATM   17  O2  UNL     1      10.938   8.919  18.196  1.00  0.00    -0.242 OA
ENDBRANCH  14  15
ENDBRANCH  13  14
ENDBRANCH   3  13
TORSDOF 4
ENDMDL
MODEL 4
REMARK VINA RESULT: -5.130823844      3.734      5.764
REMARK  4 active torsions:
REMARK  status: ('A' for Active; 'I' for Inactive)
REMARK    1  A    between atoms: C1_4  and  C2_6 
REMARK    2  A    between atoms: C4_8  and  C5_9 
REMARK    3  A    between atoms: C5_9  and  O1_10 
REMARK    4  A    between atoms: O1_10  and  C6_11 
ROOT
HETATM    1  C2  UNL     1      14.075  12.592  26.320  1.00  0.00     0.250 C 
HETATM    2  C3  UNL     1      13.871  11.084  26.108  1.00  0.00     0.049 C 
HETATM    3  C4  UNL     1      13.941  11.070  24.569  1.00  0.00     0.038 C 
HETATM    4  C7  UNL     1      14.930  12.196  24.273  1.00  0.00     0.240 C 
HETATM    5  N4  UNL     1      15.293  12.776  25.549  1.00  0.00    -0.064 N 
ATOM      6  H41 UNL     1      16.136  12.391  25.974  1.00  0.00     0.278 HD
ATOM      7  H42 UNL     1      15.636  13.735  25.506  1.00  0.00     0.278 HD
ENDROOT
BRANCH   1   8
HETATM    8  C1  UNL     1      14.243  12.917  27.741  1.00  0.00     0.117 C 
HETATM    9  N1  UNL     1      14.347  11.965  28.600  1.00  0.00    -0.389 N 
ATOM     10  H12 UNL     1      14.464  12.192  29.588  1.00  0.00     0.157 HD
ATOM     11  H11 UNL     1      14.311  10.994  28.290  1.00  0.00     0.157 HD
HETATM   12  N2  UNL     1      14.292  14.255  28.168  1.00  0.00    -0.086 NA
ENDBRANCH   1   8
BRANCH   3  13
HETATM   13  C5  UNL     1      14.433   9.757  24.062  1.00  0.00     0.186 C 
BRANCH  13  14
HETATM   14  O1  UNL     1      15.837   9.714  24.106  1.00  0.00    -0.306 OA
BRANCH  14  15
HETATM   15  C6  UNL     1      16.626   9.181  23.109  1.00  0.00     0.372 C 
HETATM   16  N3  UNL     1      16.179   9.345  21.750  1.00  0.00    -0.032 NA
HETATM   17  O2  UNL     1      17.688   8.577  23.359  1.00  0.00    -0.242 OA
ENDBRANCH  14  15
ENDBRANCH  13  14
ENDBRANCH   3  13
TORSDOF 4
ENDMDL
MODEL 5
REMARK VINA RESULT: -5.092199359      3.640      5.664
REMARK  4 active torsions:
REMARK  status: ('A' for Active; 'I' for Inactive)
REMARK    1  A    between atoms: C1_4  and  C2_6 
REMARK    2  A    between atoms: C4_8  and  C5_9 
REMARK    3  A    between atoms: C5_9  and  O1_10 
REMARK    4  A    between atoms: O1_10  and  C6_11 
ROOT
HETATM    1  C2  UNL     1      14.972  10.518  20.056  1.00  0.00     0.250 C 
HETATM    2  C3  UNL     1      13.579  10.366  19.425  1.00  0.00     0.049 C 
HETATM    3  C4  UNL     1      12.739  10.606  20.693  1.00  0.00     0.038 C 
HETATM    4  C7  UNL     1      13.596  11.600  21.476  1.00  0.00     0.240 C 
HETATM    5  N4  UNL     1      14.801  11.809  20.699  1.00  0.00    -0.064 N 
ATOM      6  H41 UNL     1      14.773  12.608  20.065  1.00  0.00     0.278 HD
ATOM      7  H42 UNL     1      15.606  12.137  21.231  1.00  0.00     0.278 HD
ENDROOT
BRANCH   1   8
HETATM    8  C1  UNL     1      16.027  10.523  19.036  1.00  0.00     0.117 C 
HETATM    9  N1  UNL     1      15.704  10.571  17.792  1.00  0.00    -0.389 N 
ATOM     10  H12 UNL     1      16.438  10.574  17.083  1.00  0.00     0.157 HD
ATOM     11  H11 UNL     1      14.720  10.604  17.522  1.00  0.00     0.157 HD
HETATM   12  N2  UNL     1      17.381  10.476  19.407  1.00  0.00    -0.086 NA
ENDBRANCH   1   8
BRANCH   3  13
HETATM   13  C5  UNL     1      11.402  11.175  20.358  1.00  0.00     0.186 C 
BRANCH  13  14
HETATM   14  O1  UNL     1      10.482  10.142  20.113  1.00  0.00    -0.306 OA
BRANCH  14  15
HETATM   15  C6  UNL     1       9.943   9.863  18.875  1.00  0.00     0.372 C 
HETATM   16  N3  UNL     1       8.806  10.641  18.455  1.00  0.00    -0.032 NA
HETATM   17  O2  UNL     1      10.411   8.973  18.137  1.00  0.00    -0.242 OA
ENDBRANCH  14  15
ENDBRANCH  13  14
ENDBRANCH   3  13
TORSDOF 4
ENDMDL
