MODEL 1
REMARK VINA RESULT: -5.591542146      0.000      0.000
REMARK  4 active torsions:
REMARK  status: ('A' for Active; 'I' for Inactive)
REMARK    1  A    between atoms: C3_8  and  C4_9 
REMARK    2  A    between atoms: N3_10  and  O1_12 
REMARK    3  A    between atoms: O1_12  and  C5_13 
REMARK    4  A    between atoms: C5_13  and  C6_14 
ROOT
HETATM    1  N1  UNL     1      14.304   9.923  24.967  1.00  0.00    -0.234 N 
ATOM      2  H11 UNL     1      14.017   8.955  25.113  1.00  0.00     0.174 HD
ATOM      3  H12 UNL     1      14.640  10.279  25.863  1.00  0.00     0.174 HD
HETATM    4  C1  UNL     1      14.293  10.549  23.823  1.00  0.00     0.676 A 
HETATM    5  N2  UNL     1      14.679  11.848  23.627  1.00  0.00    -0.200 N 
ATOM      6  H2  UNL     1      15.061  12.470  24.340  1.00  0.00     0.183 HD
HETATM    7  C2  UNL     1      14.469  12.166  22.340  1.00  0.00     0.137 A 
HETATM    8  C3  UNL     1      13.946  11.048  21.714  1.00  0.00     0.082 A 
HETATM    9  N5  UNL     1      13.856  10.085  22.656  1.00  0.00    -0.189 N 
ATOM     10  H5  UNL     1      13.505   9.141  22.496  1.00  0.00     0.184 HD
ENDROOT
BRANCH   8  11
HETATM   11  C4  UNL     1      13.449  10.923  20.361  1.00  0.00     0.145 C 
HETATM   12  N3  UNL     1      12.486  10.070  20.116  1.00  0.00    -0.275 N 
ATOM     13  H3  UNL     1      12.081   9.470  20.834  1.00  0.00     0.193 HD
BRANCH  12  14
HETATM   14  O1  UNL     1      12.074  10.055  18.820  1.00  0.00    -0.272 OA
BRANCH  14  15
HETATM   15  C5  UNL     1      10.889   9.277  18.490  1.00  0.00     0.300 C 
BRANCH  15  16
HETATM   16  C6  UNL     1       9.710  10.081  19.037  1.00  0.00     0.257 C 
HETATM   17  N4  UNL     1       8.738  10.705  18.245  1.00  0.00    -0.060 NA
HETATM   18  O2  UNL     1       9.666  10.135  20.328  1.00  0.00    -0.274 OA
ENDBRANCH  15  16
ENDBRANCH  14  15
ENDBRANCH  12  14
ENDBRANCH   8  11
TORSDOF 4
ENDMDL
MODEL 2
REMARK VINA RESULT: -5.491562526      2.896      4.014
REMARK  4 active torsions:
REMARK  status: ('A' for Active; 'I' for Inactive)
REMARK    1  A    between atoms: C3_8  and  C4_9 
REMARK    2  A    between atoms: N3_10  and  O1_12 
REMARK    3  A    between atoms: O1_12  and  C5_13 
REMARK    4  A    between atoms: C5_13  and  C6_14 
ROOT
HETATM    1  N1  UNL     1      17.005  10.750  16.495  1.00  0.00    -0.234 N 
ATOM      2  H11 UNL     1      16.476  10.880  15.633  1.00  0.00     0.174 HD
ATOM      3  H12 UNL     1      17.993  10.720  16.244  1.00  0.00     0.174 HD
HETATM    4  C1  UNL     1      16.492  10.697  17.693  1.00  0.00     0.676 A 
HETATM    5  N2  UNL     1      17.201  10.523  18.851  1.00  0.00    -0.200 N 
ATOM      6  H2  UNL     1      18.217  10.456  18.924  1.00  0.00     0.183 HD
HETATM    7  C2  UNL     1      16.336  10.454  19.876  1.00  0.00     0.137 A 
HETATM    8  C3  UNL     1      15.062  10.591  19.354  1.00  0.00     0.082 A 
HETATM    9  N5  UNL     1      15.204  10.737  18.020  1.00  0.00    -0.189 N 
ATOM     10  H5  UNL     1      14.436  10.860  17.360  1.00  0.00     0.184 HD
ENDROOT
BRANCH   8  11
HETATM   11  C4  UNL     1      13.791  10.469  20.037  1.00  0.00     0.145 C 
HETATM   12  N3  UNL     1      12.790   9.898  19.416  1.00  0.00    -0.275 N 
ATOM     13  H3  UNL     1      12.857   9.551  18.459  1.00  0.00     0.193 HD
BRANCH  12  14
HETATM   14  O1  UNL     1      11.655   9.809  20.159  1.00  0.00    -0.272 OA
BRANCH  14  15
HETATM   15  C5  UNL     1      10.607  10.792  19.923  1.00  0.00     0.300 C 
BRANCH  15  16
HETATM   16  C6  UNL     1       9.776  10.232  18.770  1.00  0.00     0.257 C 
HETATM   17  N4  UNL     1       8.624  10.838  18.253  1.00  0.00    -0.060 NA
HETATM   18  O2  UNL     1      10.236   9.127  18.280  1.00  0.00    -0.274 OA
ENDBRANCH  15  16
ENDBRANCH  14  15
ENDBRANCH  12  14
ENDBRANCH   8  11
TORSDOF 4
ENDMDL
MODEL 3
REMARK VINA RESULT: -5.398653486      1.065      1.065
REMARK  4 active torsions:
REMARK  status: ('A' for Active; 'I' for Inactive)
REMARK    1  A    between atoms: C3_8  and  C4_9 
REMARK    2  A    between atoms: N3_10  and  O1_12 
REMARK    3  A    between atoms: O1_12  and  C5_13 
REMARK    4  A    between atoms: C5_13  and  C6_14 
ROOT
HETATM    1  N1  UNL     1      16.376   9.326  23.374  1.00  0.00    -0.234 N 
ATOM      2  H11 UNL     1      16.884   8.555  22.942  1.00  0.00     0.174 HD
ATOM      3  H12 UNL     1      16.734   9.433  24.324  1.00  0.00     0.174 HD
HETATM    4  C1  UNL     1      15.481  10.066  22.780  1.00  0.00     0.676 A 
HETATM    5  N2  UNL     1      14.798  11.102  23.359  1.00  0.00    -0.200 N 
ATOM      6  H2  UNL     1      14.936  11.449  24.308  1.00  0.00     0.183 HD
HETATM    7  C2  UNL     1      13.918  11.585  22.468  1.00  0.00     0.137 A 
HETATM    8  C3  UNL     1      14.051  10.842  21.307  1.00  0.00     0.082 A 
HETATM    9  N5  UNL     1      15.015   9.927  21.542  1.00  0.00    -0.189 N 
ATOM     10  H5  UNL     1      15.339   9.232  20.870  1.00  0.00     0.184 HD
ENDROOT
BRANCH   8  11
HETATM   11  C4  UNL     1      13.248  10.899  20.105  1.00  0.00     0.145 C 
HETATM   12  N3  UNL     1      12.778   9.785  19.603  1.00  0.00    -0.275 N 
ATOM     13  H3  UNL     1      12.969   8.870  20.010  1.00  0.00     0.193 HD
BRANCH  12  14
HETATM   14  O1  UNL     1      12.013   9.956  18.491  1.00  0.00    -0.272 OA
BRANCH  14  15
HETATM   15  C5  UNL     1      10.770   9.205  18.397  1.00  0.00     0.300 C 
BRANCH  15  16
HETATM   16  C6  UNL     1       9.699  10.114  18.999  1.00  0.00     0.257 C 
HETATM   17  N4  UNL     1       8.721  10.788  18.258  1.00  0.00    -0.060 NA
HETATM   18  O2  UNL     1       9.754  10.207  20.287  1.00  0.00    -0.274 OA
ENDBRANCH  15  16
ENDBRANCH  14  15
ENDBRANCH  12  14
ENDBRANCH   8  11
TORSDOF 4
ENDMDL
MODEL 4
REMARK VINA RESULT: -5.292119544      6.051      8.002
REMARK  4 active torsions:
REMARK  status: ('A' for Active; 'I' for Inactive)
REMARK    1  A    between atoms: C3_8  and  C4_9 
REMARK    2  A    between atoms: N3_10  and  O1_12 
REMARK    3  A    between atoms: O1_12  and  C5_13 
REMARK    4  A    between atoms: C5_13  and  C6_14 
ROOT
HETATM    1  N1  UNL     1      13.135   8.308  25.562  1.00  0.00    -0.234 N 
ATOM      2  H11 UNL     1      12.718   7.729  26.291  1.00  0.00     0.174 HD
ATOM      3  H12 UNL     1      13.165   7.749  24.709  1.00  0.00     0.174 HD
HETATM    4  C1  UNL     1      13.497   9.553  25.703  1.00  0.00     0.676 A 
HETATM    5  N2  UNL     1      14.056  10.332  24.725  1.00  0.00    -0.200 N 
ATOM      6  H2  UNL     1      14.217  10.048  23.758  1.00  0.00     0.183 HD
HETATM    7  C2  UNL     1      14.356  11.530  25.251  1.00  0.00     0.137 A 
HETATM    8  C3  UNL     1      13.976  11.506  26.582  1.00  0.00     0.082 A 
HETATM    9  N5  UNL     1      13.457  10.282  26.814  1.00  0.00    -0.189 N 
ATOM     10  H5  UNL     1      13.089   9.963  27.710  1.00  0.00     0.184 HD
ENDROOT
BRANCH   8  11
HETATM   11  C4  UNL     1      14.197  12.512  27.599  1.00  0.00     0.145 C 
HETATM   12  N3  UNL     1      14.008  13.771  27.296  1.00  0.00    -0.275 N 
ATOM     13  H3  UNL     1      13.732  14.082  26.365  1.00  0.00     0.193 HD
BRANCH  12  14
HETATM   14  O1  UNL     1      14.215  14.628  28.332  1.00  0.00    -0.272 OA
BRANCH  14  15
HETATM   15  C5  UNL     1      15.400  15.472  28.293  1.00  0.00     0.300 C 
BRANCH  15  16
HETATM   16  C6  UNL     1      15.530  15.926  26.840  1.00  0.00     0.257 C 
HETATM   17  N4  UNL     1      14.768  16.945  26.255  1.00  0.00    -0.060 NA
HETATM   18  O2  UNL     1      16.432  15.288  26.169  1.00  0.00    -0.274 OA
ENDBRANCH  15  16
ENDBRANCH  14  15
ENDBRANCH  12  14
ENDBRANCH   8  11
TORSDOF 4
ENDMDL
MODEL 5
REMARK VINA RESULT: -5.263849456      2.530      5.937
REMARK  4 active torsions:
REMARK  status: ('A' for Active; 'I' for Inactive)
REMARK    1  A    between atoms: C3_8  and  C4_9 
REMARK    2  A    between atoms: N3_10  and  O1_12 
REMARK    3  A    between atoms: O1_12  and  C5_13 
REMARK    4  A    between atoms: C5_13  and  C6_14 
ROOT
HETATM    1  N1  UNL     1       9.041   9.954  18.716  1.00  0.00    -0.234 N 
ATOM      2  H11 UNL     1       8.268  10.468  19.140  1.00  0.00     0.174 HD
ATOM      3  H12 UNL     1       8.653   9.394  17.956  1.00  0.00     0.174 HD
HETATM    4  C1  UNL     1      10.295  10.060  19.059  1.00  0.00     0.676 A 
HETATM    5  N2  UNL     1      11.332   9.371  18.490  1.00  0.00    -0.200 N 
ATOM      6  H2  UNL     1      11.259   8.726  17.702  1.00  0.00     0.183 HD
HETATM    7  C2  UNL     1      12.463   9.686  19.141  1.00  0.00     0.137 A 
HETATM    8  C3  UNL     1      12.132  10.591  20.135  1.00  0.00     0.082 A 
HETATM    9  N5  UNL     1      10.800  10.790  20.048  1.00  0.00    -0.189 N 
ATOM     10  H5  UNL     1      10.260  11.410  20.652  1.00  0.00     0.184 HD
ENDROOT
BRANCH   8  11
HETATM   11  C4  UNL     1      12.979  11.137  21.174  1.00  0.00     0.145 C 
HETATM   12  N3  UNL     1      13.573  10.317  22.003  1.00  0.00    -0.275 N 
ATOM     13  H3  UNL     1      13.451   9.306  21.965  1.00  0.00     0.193 HD
BRANCH  12  14
HETATM   14  O1  UNL     1      14.367  10.933  22.919  1.00  0.00    -0.272 OA
BRANCH  14  15
HETATM   15  C5  UNL     1      15.778  11.098  22.599  1.00  0.00     0.300 C 
BRANCH  15  16
HETATM   16  C6  UNL     1      16.301   9.687  22.329  1.00  0.00     0.257 C 
HETATM   17  N4  UNL     1      16.855   8.846  23.301  1.00  0.00    -0.060 NA
HETATM   18  O2  UNL     1      16.177   9.308  21.099  1.00  0.00    -0.274 OA
ENDBRANCH  15  16
ENDBRANCH  14  15
ENDBRANCH  12  14
ENDBRANCH   8  11
TORSDOF 4
ENDMDL
