MODEL 1
REMARK VINA RESULT: -5.340399445      0.000      0.000
REMARK  4 active torsions:
REMARK  status: ('A' for Active; 'I' for Inactive)
REMARK    1  A    between atoms: C1_2  and  N1_3 
REMARK    2  A    between atoms: N1_3  and  C2_5 
REMARK    3  A    between atoms: C2_5  and  C3_6 
REMARK       I    between atoms: C3_6  and  N2_8 
REMARK    4  A    between atoms: N2_8  and  C4_10 
ROOT
HETATM    1  C3  UNL     1      13.884  12.953  25.068  1.00  0.00     0.240 C 
HETATM    2  O2  UNL     1      12.661  13.075  25.386  1.00  0.00    -0.271 OA
HETATM    3  N2  UNL     1      14.588  11.766  25.322  1.00  0.00    -0.320 N 
ATOM      4  H2  UNL     1      15.566  11.700  25.042  1.00  0.00     0.169 HD
ENDROOT
BRANCH   3   5
HETATM    5  C4  UNL     1      13.971  10.642  25.966  1.00  0.00     0.130 A 
HETATM    6  C5  UNL     1      13.445   9.488  25.455  1.00  0.00     0.203 A 
HETATM    7  O3  UNL     1      13.003   8.790  26.488  1.00  0.00    -0.245 OA
HETATM    8  N3  UNL     1      13.202   9.396  27.597  1.00  0.00    -0.224 N 
HETATM    9  C6  UNL     1      13.803  10.563  27.360  1.00  0.00     0.294 A 
ATOM     10  H3  UNL     1      12.942   9.042  28.518  1.00  0.00     0.198 HD
HETATM   11  O4  UNL     1      14.159  11.440  28.221  1.00  0.00    -0.264 OA
ENDBRANCH   3   5
BRANCH   1  12
HETATM   12  C2  UNL     1      14.548  14.103  24.411  1.00  0.00     0.225 C 
BRANCH  12  13
HETATM   13  N1  UNL     1      14.254  15.356  24.995  1.00  0.00    -0.359 N 
ATOM     14  H1  UNL     1      13.368  15.786  24.727  1.00  0.00     0.162 HD
BRANCH  13  15
HETATM   15  C1  UNL     1      15.048  16.072  25.903  1.00  0.00     0.348 C 
HETATM   16  O1  UNL     1      14.700  17.203  26.313  1.00  0.00    -0.284 OA
ENDBRANCH  13  15
ENDBRANCH  12  13
ENDBRANCH   1  12
TORSDOF 4
ENDMDL
MODEL 2
REMARK VINA RESULT: -5.162473624      2.249      2.924
REMARK  4 active torsions:
REMARK  status: ('A' for Active; 'I' for Inactive)
REMARK    1  A    between atoms: C1_2  and  N1_3 
REMARK    2  A    between atoms: N1_3  and  C2_5 
REMARK    3  A    between atoms: C2_5  and  C3_6 
REMARK       I    between atoms: C3_6  and  N2_8 
REMARK    4  A    between atoms: N2_8  and  C4_10 
ROOT
HETATM    1  C3  UNL     1      15.669  12.061  28.012  1.00  0.00     0.240 C 
HETATM    2  O2  UNL     1      16.501  11.113  27.873  1.00  0.00    -0.271 OA
HETATM    3  N2  UNL     1      14.316  11.897  27.675  1.00  0.00    -0.320 N 
ATOM      4  H2  UNL     1      13.673  12.678  27.811  1.00  0.00     0.169 HD
ENDROOT
BRANCH   3   5
HETATM    5  C4  UNL     1      13.811  10.664  27.145  1.00  0.00     0.130 A 
HETATM    6  C5  UNL     1      13.418   9.510  27.765  1.00  0.00     0.203 A 
HETATM    7  O3  UNL     1      13.037   8.683  26.807  1.00  0.00    -0.245 OA
HETATM    8  N3  UNL     1      13.152   9.207  25.646  1.00  0.00    -0.224 N 
HETATM    9  C6  UNL     1      13.630  10.447  25.768  1.00  0.00     0.294 A 
ATOM     10  H3  UNL     1      12.916   8.749  24.765  1.00  0.00     0.198 HD
HETATM   11  O4  UNL     1      13.877  11.278  24.826  1.00  0.00    -0.264 OA
ENDBRANCH   3   5
BRANCH   1  12
HETATM   12  C2  UNL     1      16.167  13.349  28.548  1.00  0.00     0.225 C 
BRANCH  12  13
HETATM   13  N1  UNL     1      15.211  14.389  28.545  1.00  0.00    -0.359 N 
ATOM     14  H1  UNL     1      14.640  14.484  29.386  1.00  0.00     0.162 HD
BRANCH  13  15
HETATM   15  C1  UNL     1      14.960  15.305  27.513  1.00  0.00     0.348 C 
HETATM   16  O1  UNL     1      14.573  14.919  26.386  1.00  0.00    -0.284 OA
ENDBRANCH  13  15
ENDBRANCH  12  13
ENDBRANCH   1  12
TORSDOF 4
ENDMDL
MODEL 3
REMARK VINA RESULT: -5.118155690      7.138      8.243
REMARK  4 active torsions:
REMARK  status: ('A' for Active; 'I' for Inactive)
REMARK    1  A    between atoms: C1_2  and  N1_3 
REMARK    2  A    between atoms: N1_3  and  C2_5 
REMARK    3  A    between atoms: C2_5  and  C3_6 
REMARK       I    between atoms: C3_6  and  N2_8 
REMARK    4  A    between atoms: N2_8  and  C4_10 
ROOT
HETATM    1  C3  UNL     1      14.061  10.713  19.921  1.00  0.00     0.240 C 
HETATM    2  O2  UNL     1      13.754  11.628  20.745  1.00  0.00    -0.271 OA
HETATM    3  N2  UNL     1      13.073   9.954  19.275  1.00  0.00    -0.320 N 
ATOM      4  H2  UNL     1      13.357   9.234  18.610  1.00  0.00     0.169 HD
ENDROOT
BRANCH   3   5
HETATM    5  C4  UNL     1      11.675  10.161  19.522  1.00  0.00     0.130 A 
HETATM    6  C5  UNL     1      11.028  10.979  20.407  1.00  0.00     0.203 A 
HETATM    7  O3  UNL     1       9.734  10.780  20.220  1.00  0.00    -0.245 OA
HETATM    8  N3  UNL     1       9.508   9.917  19.304  1.00  0.00    -0.224 N 
HETATM    9  C6  UNL     1      10.670   9.480  18.814  1.00  0.00     0.294 A 
ATOM     10  H3  UNL     1       8.585   9.612  18.995  1.00  0.00     0.198 HD
HETATM   11  O4  UNL     1      10.843   8.614  17.888  1.00  0.00    -0.264 OA
ENDBRANCH   3   5
BRANCH   1  12
HETATM   12  C2  UNL     1      15.498  10.472  19.656  1.00  0.00     0.225 C 
BRANCH  12  13
HETATM   13  N1  UNL     1      15.789  10.102  18.323  1.00  0.00    -0.359 N 
ATOM     14  H1  UNL     1      15.460   9.183  18.025  1.00  0.00     0.162 HD
BRANCH  13  15
HETATM   15  C1  UNL     1      16.481  10.860  17.367  1.00  0.00     0.348 C 
HETATM   16  O1  UNL     1      16.099  10.900  16.175  1.00  0.00    -0.284 OA
ENDBRANCH  13  15
ENDBRANCH  12  13
ENDBRANCH   1  12
TORSDOF 4
ENDMDL
MODEL 4
REMARK VINA RESULT: -5.099773602      1.010      1.637
REMARK  4 active torsions:
REMARK  status: ('A' for Active; 'I' for Inactive)
REMARK    1  A    between atoms: C1_2  and  N1_3 
REMARK    2  A    between atoms: N1_3  and  C2_5 
REMARK    3  A    between atoms: C2_5  and  C3_6 
REMARK       I    between atoms: C3_6  and  N2_8 
REMARK    4  A    between atoms: N2_8  and  C4_10 
ROOT
HETATM    1  C3  UNL     1      14.043  13.347  25.257  1.00  0.00     0.240 C 
HETATM    2  O2  UNL     1      12.805  13.448  25.515  1.00  0.00    -0.271 OA
HETATM    3  N2  UNL     1      14.775  12.212  25.638  1.00  0.00    -0.320 N 
ATOM      4  H2  UNL     1      15.767  12.160  25.403  1.00  0.00     0.169 HD
ENDROOT
BRANCH   3   5
HETATM    5  C4  UNL     1      14.170  11.123  26.348  1.00  0.00     0.130 A 
HETATM    6  C5  UNL     1      13.928  10.940  27.682  1.00  0.00     0.203 A 
HETATM    7  O3  UNL     1      13.347   9.757  27.797  1.00  0.00    -0.245 OA
HETATM    8  N3  UNL     1      13.201   9.182  26.664  1.00  0.00    -0.224 N 
HETATM    9  C6  UNL     1      13.690   9.969  25.703  1.00  0.00     0.294 A 
ATOM     10  H3  UNL     1      12.778   8.266  26.517  1.00  0.00     0.198 HD
HETATM   11  O4  UNL     1      13.720   9.730  24.447  1.00  0.00    -0.264 OA
ENDBRANCH   3   5
BRANCH   1  12
HETATM   12  C2  UNL     1      14.695  14.463  24.533  1.00  0.00     0.225 C 
BRANCH  12  13
HETATM   13  N1  UNL     1      15.543  15.260  25.335  1.00  0.00    -0.359 N 
ATOM     14  H1  UNL     1      16.532  15.266  25.085  1.00  0.00     0.162 HD
BRANCH  13  15
HETATM   15  C1  UNL     1      15.172  16.045  26.437  1.00  0.00     0.348 C 
HETATM   16  O1  UNL     1      14.709  17.198  26.283  1.00  0.00    -0.284 OA
ENDBRANCH  13  15
ENDBRANCH  12  13
ENDBRANCH   1  12
TORSDOF 4
ENDMDL
MODEL 5
REMARK VINA RESULT: -5.099613904      6.667      7.985
REMARK  4 active torsions:
REMARK  status: ('A' for Active; 'I' for Inactive)
REMARK    1  A    between atoms: C1_2  and  N1_3 
REMARK    2  A    between atoms: N1_3  and  C2_5 
REMARK    3  A    between atoms: C2_5  and  C3_6 
REMARK       I    between atoms: C3_6  and  N2_8 
REMARK    4  A    between atoms: N2_8  and  C4_10 
ROOT
HETATM    1  C3  UNL     1      13.137  10.787  20.181  1.00  0.00     0.240 C 
HETATM    2  O2  UNL     1      13.523  11.819  20.811  1.00  0.00    -0.271 OA
HETATM    3  N2  UNL     1      14.044   9.987  19.470  1.00  0.00    -0.320 N 
ATOM      4  H2  UNL     1      13.700   9.157  18.985  1.00  0.00     0.169 HD
ENDROOT
BRANCH   3   5
HETATM    5  C4  UNL     1      15.442  10.301  19.404  1.00  0.00     0.130 A 
HETATM    6  C5  UNL     1      16.168  10.990  18.472  1.00  0.00     0.203 A 
HETATM    7  O3  UNL     1      17.420  10.987  18.897  1.00  0.00    -0.245 OA
HETATM    8  N3  UNL     1      17.548  10.363  20.006  1.00  0.00    -0.224 N 
HETATM    9  C6  UNL     1      16.357   9.902  20.393  1.00  0.00     0.294 A 
ATOM     10  H3  UNL     1      18.424  10.238  20.515  1.00  0.00     0.198 HD
HETATM   11  O4  UNL     1      16.093   9.231  21.450  1.00  0.00    -0.264 OA
ENDBRANCH   3   5
BRANCH   1  12
HETATM   12  C2  UNL     1      11.695  10.445  20.225  1.00  0.00     0.225 C 
BRANCH  12  13
HETATM   13  N1  UNL     1      11.183   9.929  19.014  1.00  0.00    -0.359 N 
ATOM     14  H1  UNL     1      11.868   9.679  18.300  1.00  0.00     0.162 HD
BRANCH  13  15
HETATM   15  C1  UNL     1       9.835   9.723  18.686  1.00  0.00     0.348 C 
HETATM   16  O1  UNL     1       9.000  10.653  18.767  1.00  0.00    -0.284 OA
ENDBRANCH  13  15
ENDBRANCH  12  13
ENDBRANCH   1  12
TORSDOF 4
ENDMDL
