MODEL 1
REMARK VINA RESULT: -5.526855047      0.000      0.000
REMARK  5 active torsions:
REMARK  status: ('A' for Active; 'I' for Inactive)
REMARK    1  A    between atoms: C2_2  and  C3_3 
REMARK    2  A    between atoms: C3_3  and  N1_4 
REMARK    3  A    between atoms: N1_4  and  C4_6 
REMARK    4  A    between atoms: C6_9  and  C7_10 
REMARK    5  A    between atoms: C8_13  and  N3_14 
ROOT
HETATM    1  C4  UNL     1      14.415  10.527  19.836  1.00  0.00     0.102 C 
HETATM    2  C5  UNL     1      15.624   9.667  19.970  1.00  0.00     0.193 C 
HETATM    3  O1  UNL     1      16.034   9.414  21.245  1.00  0.00    -0.373 OA
HETATM    4  C6  UNL     1      16.141  10.491  22.086  1.00  0.00     0.240 C 
HETATM    5  C8  UNL     1      15.123  11.549  21.903  1.00  0.00     0.223 C 
HETATM    6  C9  UNL     1      13.912  10.966  21.210  1.00  0.00     0.062 C 
ENDROOT
BRANCH   1   7
HETATM    7  N1  UNL     1      13.307   9.924  19.177  1.00  0.00    -0.412 N 
ATOM      8  H1  UNL     1      13.436   9.323  18.363  1.00  0.00     0.153 HD
BRANCH   7   9
HETATM    9  C3  UNL     1      12.014  10.193  19.697  1.00  0.00     0.141 C 
BRANCH   9  10
HETATM   10  C2  UNL     1      11.012   9.553  18.797  1.00  0.00    -0.018 C 
HETATM   11  C1  UNL     1       9.724   9.804  18.864  1.00  0.00     0.008 C 
ENDBRANCH   9  10
ENDBRANCH   7   9
ENDBRANCH   1   7
BRANCH   5  12
HETATM   12  N3  UNL     1      14.744  12.260  23.090  1.00  0.00    -0.072 N 
ATOM     13  H33 UNL     1      15.101  11.778  23.914  1.00  0.00     0.274 HD
ATOM     14  H32 UNL     1      15.265  13.135  23.152  1.00  0.00     0.274 HD
ATOM     15  H31 UNL     1      13.745  12.441  23.198  1.00  0.00     0.274 HD
ENDBRANCH   5  12
BRANCH   4  16
HETATM   16  C7  UNL     1      16.088  10.008  23.479  1.00  0.00     0.262 C 
HETATM   17  N2  UNL     1      17.000  10.420  24.483  1.00  0.00    -0.060 NA
HETATM   18  O2  UNL     1      15.198   9.191  23.810  1.00  0.00    -0.274 OA
ENDBRANCH   4  16
TORSDOF 5
ENDMDL
MODEL 2
REMARK VINA RESULT: -5.269175424      1.543      1.632
REMARK  5 active torsions:
REMARK  status: ('A' for Active; 'I' for Inactive)
REMARK    1  A    between atoms: C2_2  and  C3_3 
REMARK    2  A    between atoms: C3_3  and  N1_4 
REMARK    3  A    between atoms: N1_4  and  C4_6 
REMARK    4  A    between atoms: C6_9  and  C7_10 
REMARK    5  A    between atoms: C8_13  and  N3_14 
ROOT
HETATM    1  C4  UNL     1      13.251  10.973  20.409  1.00  0.00     0.102 C 
HETATM    2  C5  UNL     1      14.331  10.457  19.523  1.00  0.00     0.193 C 
HETATM    3  O1  UNL     1      15.500  10.127  20.142  1.00  0.00    -0.373 OA
HETATM    4  C6  UNL     1      16.021  11.049  21.012  1.00  0.00     0.240 C 
HETATM    5  C8  UNL     1      15.032  11.812  21.804  1.00  0.00     0.223 C 
HETATM    6  C9  UNL     1      13.731  11.043  21.858  1.00  0.00     0.062 C 
ENDROOT
BRANCH   1   7
HETATM    7  N1  UNL     1      12.052  10.207  20.421  1.00  0.00    -0.412 N 
ATOM      8  H1  UNL     1      11.601   9.940  21.297  1.00  0.00     0.153 HD
BRANCH   7   9
HETATM    9  C3  UNL     1      11.508   9.828  19.167  1.00  0.00     0.141 C 
BRANCH   9  10
HETATM   10  C2  UNL     1      10.020   9.883  19.273  1.00  0.00    -0.018 C 
HETATM   11  C1  UNL     1       9.243  10.233  18.273  1.00  0.00     0.008 C 
ENDBRANCH   9  10
ENDBRANCH   7   9
ENDBRANCH   1   7
BRANCH   5  12
HETATM   12  N3  UNL     1      15.454  12.204  23.117  1.00  0.00    -0.072 N 
ATOM     13  H33 UNL     1      16.472  12.211  23.169  1.00  0.00     0.274 HD
ATOM     14  H32 UNL     1      15.259  13.194  23.265  1.00  0.00     0.274 HD
ATOM     15  H31 UNL     1      15.071  11.655  23.888  1.00  0.00     0.274 HD
ENDBRANCH   5  12
BRANCH   4  16
HETATM   16  C7  UNL     1      16.945  10.359  21.933  1.00  0.00     0.262 C 
HETATM   17  N2  UNL     1      16.634   9.136  22.578  1.00  0.00    -0.060 NA
HETATM   18  O2  UNL     1      18.066  10.866  22.167  1.00  0.00    -0.274 OA
ENDBRANCH   4  16
TORSDOF 5
ENDMDL
MODEL 3
REMARK VINA RESULT: -5.097965892      1.431      1.481
REMARK  5 active torsions:
REMARK  status: ('A' for Active; 'I' for Inactive)
REMARK    1  A    between atoms: C2_2  and  C3_3 
REMARK    2  A    between atoms: C3_3  and  N1_4 
REMARK    3  A    between atoms: N1_4  and  C4_6 
REMARK    4  A    between atoms: C6_9  and  C7_10 
REMARK    5  A    between atoms: C8_13  and  N3_14 
ROOT
HETATM    1  C4  UNL     1      13.924  11.177  20.989  1.00  0.00     0.102 C 
HETATM    2  C5  UNL     1      15.357  11.400  20.649  1.00  0.00     0.193 C 
HETATM    3  O1  UNL     1      16.261  10.915  21.546  1.00  0.00    -0.373 OA
HETATM    4  C6  UNL     1      16.049  11.219  22.865  1.00  0.00     0.240 C 
HETATM    5  C8  UNL     1      14.634  11.261  23.293  1.00  0.00     0.223 C 
HETATM    6  C9  UNL     1      13.794  10.454  22.328  1.00  0.00     0.062 C 
ENDROOT
BRANCH   1   7
HETATM    7  N1  UNL     1      13.185  10.409  20.046  1.00  0.00    -0.412 N 
ATOM      8  H1  UNL     1      13.654   9.849  19.334  1.00  0.00     0.153 HD
BRANCH   7   9
HETATM    9  C3  UNL     1      11.769  10.454  20.135  1.00  0.00     0.141 C 
BRANCH   9  10
HETATM   10  C2  UNL     1      11.210   9.674  18.992  1.00  0.00    -0.018 C 
HETATM   11  C1  UNL     1       9.941   9.708  18.653  1.00  0.00     0.008 C 
ENDBRANCH   9  10
ENDBRANCH   7   9
ENDBRANCH   1   7
BRANCH   5  12
HETATM   12  N3  UNL     1      14.380  10.869  24.649  1.00  0.00    -0.072 N 
ATOM     13  H33 UNL     1      13.684  10.125  24.671  1.00  0.00     0.274 HD
ATOM     14  H32 UNL     1      15.188  10.372  25.024  1.00  0.00     0.274 HD
ATOM     15  H31 UNL     1      14.108  11.620  25.284  1.00  0.00     0.274 HD
ENDBRANCH   5  12
BRANCH   4  16
HETATM   16  C7  UNL     1      16.774  10.239  23.697  1.00  0.00     0.262 C 
HETATM   17  N2  UNL     1      16.845   8.857  23.392  1.00  0.00    -0.060 NA
HETATM   18  O2  UNL     1      17.363  10.632  24.731  1.00  0.00    -0.274 OA
ENDBRANCH   4  16
TORSDOF 5
ENDMDL
MODEL 4
REMARK VINA RESULT: -5.048315174      2.935      3.787
REMARK  5 active torsions:
REMARK  status: ('A' for Active; 'I' for Inactive)
REMARK    1  A    between atoms: C2_2  and  C3_3 
REMARK    2  A    between atoms: C3_3  and  N1_4 
REMARK    3  A    between atoms: N1_4  and  C4_6 
REMARK    4  A    between atoms: C6_9  and  C7_10 
REMARK    5  A    between atoms: C8_13  and  N3_14 
ROOT
HETATM    1  C4  UNL     1      14.673  10.512  23.210  1.00  0.00     0.102 C 
HETATM    2  C5  UNL     1      14.097   9.954  24.465  1.00  0.00     0.193 C 
HETATM    3  O1  UNL     1      13.639  10.869  25.366  1.00  0.00    -0.373 OA
HETATM    4  C6  UNL     1      14.475  11.912  25.669  1.00  0.00     0.240 C 
HETATM    5  C8  UNL     1      15.292  12.423  24.547  1.00  0.00     0.223 C 
HETATM    6  C9  UNL     1      14.641  12.040  23.236  1.00  0.00     0.062 C 
ENDROOT
BRANCH   1   7
HETATM    7  N1  UNL     1      14.017  10.119  22.010  1.00  0.00    -0.412 N 
ATOM      8  H1  UNL     1      13.833   9.137  21.803  1.00  0.00     0.153 HD
BRANCH   7   9
HETATM    9  C3  UNL     1      13.630  11.147  21.111  1.00  0.00     0.141 C 
BRANCH   9  10
HETATM   10  C2  UNL     1      12.290  10.795  20.557  1.00  0.00    -0.018 C 
HETATM   11  C1  UNL     1      12.128  10.017  19.511  1.00  0.00     0.008 C 
ENDBRANCH   9  10
ENDBRANCH   7   9
ENDBRANCH   1   7
BRANCH   5  12
HETATM   12  N3  UNL     1      15.592  13.825  24.582  1.00  0.00    -0.072 N 
ATOM     13  H33 UNL     1      16.571  13.978  24.342  1.00  0.00     0.274 HD
ATOM     14  H32 UNL     1      15.138  14.297  23.800  1.00  0.00     0.274 HD
ATOM     15  H31 UNL     1      15.368  14.305  25.455  1.00  0.00     0.274 HD
ENDBRANCH   5  12
BRANCH   4  16
HETATM   16  C7  UNL     1      13.669  13.018  26.220  1.00  0.00     0.262 C 
HETATM   17  N2  UNL     1      13.917  13.610  27.484  1.00  0.00    -0.060 NA
HETATM   18  O2  UNL     1      12.712  13.469  25.550  1.00  0.00    -0.274 OA
ENDBRANCH   4  16
TORSDOF 5
ENDMDL
MODEL 5
REMARK VINA RESULT: -5.031231894      3.586      4.742
REMARK  5 active torsions:
REMARK  status: ('A' for Active; 'I' for Inactive)
REMARK    1  A    between atoms: C2_2  and  C3_3 
REMARK    2  A    between atoms: C3_3  and  N1_4 
REMARK    3  A    between atoms: N1_4  and  C4_6 
REMARK    4  A    between atoms: C6_9  and  C7_10 
REMARK    5  A    between atoms: C8_13  and  N3_14 
ROOT
HETATM    1  C4  UNL     1      14.461  12.510  23.528  1.00  0.00     0.102 C 
HETATM    2  C5  UNL     1      14.535  13.836  24.202  1.00  0.00     0.193 C 
HETATM    3  O1  UNL     1      14.686  13.806  25.556  1.00  0.00    -0.373 OA
HETATM    4  C6  UNL     1      13.843  12.982  26.255  1.00  0.00     0.240 C 
HETATM    5  C8  UNL     1      13.494  11.709  25.588  1.00  0.00     0.223 C 
HETATM    6  C9  UNL     1      14.547  11.380  24.552  1.00  0.00     0.062 C 
ENDROOT
BRANCH   1   7
HETATM    7  N1  UNL     1      15.479  12.256  22.566  1.00  0.00    -0.412 N 
ATOM      8  H1  UNL     1      16.419  12.639  22.674  1.00  0.00     0.153 HD
BRANCH   7   9
HETATM    9  C3  UNL     1      15.135  11.450  21.450  1.00  0.00     0.141 C 
BRANCH   9  10
HETATM   10  C2  UNL     1      13.747  11.804  21.035  1.00  0.00    -0.018 C 
HETATM   11  C1  UNL     1      12.874  10.915  20.618  1.00  0.00     0.008 C 
ENDBRANCH   9  10
ENDBRANCH   7   9
ENDBRANCH   1   7
BRANCH   5  12
HETATM   12  N3  UNL     1      13.262  10.592  26.458  1.00  0.00    -0.072 N 
ATOM     13  H33 UNL     1      12.262  10.404  26.523  1.00  0.00     0.274 HD
ATOM     14  H32 UNL     1      13.580   9.732  26.012  1.00  0.00     0.274 HD
ATOM     15  H31 UNL     1      13.663  10.669  27.394  1.00  0.00     0.274 HD
ENDBRANCH   5  12
BRANCH   4  16
HETATM   16  C7  UNL     1      14.451  12.688  27.567  1.00  0.00     0.262 C 
HETATM   17  N2  UNL     1      15.804  12.301  27.730  1.00  0.00    -0.060 NA
HETATM   18  O2  UNL     1      13.749  12.779  28.600  1.00  0.00    -0.274 OA
ENDBRANCH   4  16
TORSDOF 5
ENDMDL
