MODEL 1
REMARK VINA RESULT: -9.455488781      0.000      0.000
REMARK  13 active torsions:
REMARK  status: ('A' for Active; 'I' for Inactive)
REMARK    1  A    between atoms: N1_1  and  C1_4 
REMARK    2  A    between atoms: C3_6  and  O1_7 
REMARK    3  A    between atoms: O1_7  and  C4_8 
REMARK    4  A    between atoms: C4_8  and  C5_9 
REMARK    5  A    between atoms: C5_9  and  C6_10 
REMARK    6  A    between atoms: C6_10  and  C7_11 
REMARK    7  A    between atoms: C7_11  and  N2_12 
REMARK    8  A    between atoms: C9_20  and  C10_21 
REMARK       I    between atoms: C10_21  and  N6_23 
REMARK    9  A    between atoms: N6_23  and  C11_25 
REMARK   10  A    between atoms: C11_25  and  C12_26 
REMARK   11  A    between atoms: C12_26  and  N7_27 
REMARK   12  A    between atoms: N7_27  and  C13_29 
REMARK   13  A    between atoms: C15_41  and  N14_42 
ROOT
HETATM    1  N2  UNL     1      15.199  14.211  28.570  1.00  0.00    -0.258 N 
HETATM    2  N3  UNL     1      15.576  14.796  27.450  1.00  0.00    -0.224 N 
ATOM      3  H3  UNL     1      15.951  15.744  27.493  1.00  0.00     0.210 HD
HETATM    4  N4  UNL     1      15.487  14.197  26.268  1.00  0.00    -0.216 N 
ATOM      5  H4  UNL     1      15.794  14.695  25.432  1.00  0.00     0.210 HD
HETATM    6  N5  UNL     1      15.011  12.972  26.152  1.00  0.00    -0.181 N 
HETATM    7  C8  UNL     1      14.925  12.371  24.937  1.00  0.00     0.303 A 
HETATM    8  O2  UNL     1      15.309  13.003  23.922  1.00  0.00    -0.263 OA
HETATM    9  C9  UNL     1      14.431  11.111  24.841  1.00  0.00     0.186 A 
HETATM   10  N12 UNL     1      14.037  10.497  25.993  1.00  0.00    -0.289 N 
ATOM     11  H12 UNL     1      13.664   9.550  25.934  1.00  0.00     0.187 HD
HETATM   12  N13 UNL     1      14.113  11.064  27.177  1.00  0.00    -0.280 N 
ATOM     13  H13 UNL     1      13.806  10.570  28.015  1.00  0.00     0.188 HD
HETATM   14  C14 UNL     1      14.608  12.321  27.251  1.00  0.00     0.192 A 
HETATM   15  C15 UNL     1      14.707  12.966  28.493  1.00  0.00     0.165 A 
ENDROOT
BRANCH   1  16
HETATM   16  C7  UNL     1      15.309  14.878  29.846  1.00  0.00     0.152 C 
BRANCH  16  17
HETATM   17  C6  UNL     1      16.435  14.217  30.611  1.00  0.00     0.024 C 
BRANCH  17  18
HETATM   18  C5  UNL     1      17.714  15.005  30.372  1.00  0.00     0.028 C 
BRANCH  18  19
HETATM   19  C4  UNL     1      18.852  14.095  30.037  1.00  0.00     0.175 C 
BRANCH  19  20
HETATM   20  O1  UNL     1      19.658  14.421  28.992  1.00  0.00    -0.351 OA
BRANCH  20  21
HETATM   21  C3  UNL     1      19.350  14.868  27.745  1.00  0.00     0.073 A 
HETATM   22  C2  UNL     1      19.053  14.067  26.666  1.00  0.00     0.084 A 
HETATM   23  C1  UNL     1      18.751  14.650  25.443  1.00  0.00     0.101 A 
HETATM   24  N15 UNL     1      18.729  15.976  25.241  1.00  0.00    -0.353 N 
HETATM   25  C17 UNL     1      19.014  16.794  26.268  1.00  0.00     0.092 A 
ATOM     26  H15 UNL     1      18.500  16.357  24.323  1.00  0.00     0.166 HD
HETATM   27  C16 UNL     1      19.315  16.255  27.485  1.00  0.00     0.054 A 
BRANCH  23  28
HETATM   28  N1  UNL     1      18.475  13.894  24.442  1.00  0.00    -0.385 N 
ATOM     29  H12 UNL     1      19.198  13.247  24.128  1.00  0.00     0.157 HD
ATOM     30  H11 UNL     1      17.557  13.967  24.003  1.00  0.00     0.157 HD
ENDBRANCH  23  28
ENDBRANCH  20  21
ENDBRANCH  19  20
ENDBRANCH  18  19
ENDBRANCH  17  18
ENDBRANCH  16  17
ENDBRANCH   1  16
BRANCH  15  31
HETATM   31  N14 UNL     1      14.305  12.303  29.513  1.00  0.00    -0.381 N 
ATOM     32 2H14 UNL     1      14.662  12.604  30.419  1.00  0.00     0.157 HD
ATOM     33 1H14 UNL     1      13.664  11.512  29.451  1.00  0.00     0.157 HD
ENDBRANCH  15  31
BRANCH   9  34
HETATM   34  C10 UNL     1      14.316  10.408  23.552  1.00  0.00     0.275 C 
HETATM   35  O3  UNL     1      13.575   9.393  23.532  1.00  0.00    -0.266 OA
HETATM   36  N6  UNL     1      15.019  10.881  22.418  1.00  0.00    -0.354 N 
ATOM     37  H6  UNL     1      15.605  11.712  22.505  1.00  0.00     0.162 HD
BRANCH  36  38
HETATM   38  C11 UNL     1      14.927  10.222  21.153  1.00  0.00     0.143 C 
BRANCH  38  39
HETATM   39  C12 UNL     1      14.243  11.025  20.074  1.00  0.00     0.157 C 
BRANCH  39  40
HETATM   40  N7  UNL     1      13.455  10.080  19.291  1.00  0.00    -0.223 N 
ATOM     41  H7  UNL     1      13.919   9.457  18.629  1.00  0.00     0.177 HD
BRANCH  40  42
HETATM   42  C13 UNL     1      12.173  10.028  19.433  1.00  0.00     0.703 A 
HETATM   43  N8  UNL     1      11.385   9.153  18.753  1.00  0.00    -0.117 N 
HETATM   44  N9  UNL     1      10.133   9.360  19.127  1.00  0.00     0.006 NA
ATOM     45  H8  UNL     1      11.702   8.459  18.076  1.00  0.00     0.202 HD
HETATM   46  N10 UNL     1      10.077  10.333  20.023  1.00  0.00     0.006 NA
HETATM   47  N11 UNL     1      11.341  10.728  20.196  1.00  0.00    -0.117 N 
ATOM     48  H11 UNL     1      11.629  11.473  20.831  1.00  0.00     0.202 HD
ENDBRANCH  40  42
ENDBRANCH  39  40
ENDBRANCH  38  39
ENDBRANCH  36  38
ENDBRANCH   9  34
TORSDOF 13
ENDMDL
MODEL 2
REMARK VINA RESULT: -9.407326156      1.096      1.645
REMARK  13 active torsions:
REMARK  status: ('A' for Active; 'I' for Inactive)
REMARK    1  A    between atoms: N1_1  and  C1_4 
REMARK    2  A    between atoms: C3_6  and  O1_7 
REMARK    3  A    between atoms: O1_7  and  C4_8 
REMARK    4  A    between atoms: C4_8  and  C5_9 
REMARK    5  A    between atoms: C5_9  and  C6_10 
REMARK    6  A    between atoms: C6_10  and  C7_11 
REMARK    7  A    between atoms: C7_11  and  N2_12 
REMARK    8  A    between atoms: C9_20  and  C10_21 
REMARK       I    between atoms: C10_21  and  N6_23 
REMARK    9  A    between atoms: N6_23  and  C11_25 
REMARK   10  A    between atoms: C11_25  and  C12_26 
REMARK   11  A    between atoms: C12_26  and  N7_27 
REMARK   12  A    between atoms: N7_27  and  C13_29 
REMARK   13  A    between atoms: C15_41  and  N14_42 
ROOT
HETATM    1  N2  UNL     1      15.283  14.184  28.483  1.00  0.00    -0.258 N 
HETATM    2  N3  UNL     1      15.702  14.761  27.374  1.00  0.00    -0.224 N 
ATOM      3  H3  UNL     1      16.109  15.695  27.429  1.00  0.00     0.210 HD
HETATM    4  N4  UNL     1      15.614  14.173  26.186  1.00  0.00    -0.216 N 
ATOM      5  H4  UNL     1      15.953  14.663  25.359  1.00  0.00     0.210 HD
HETATM    6  N5  UNL     1      15.096  12.966  26.054  1.00  0.00    -0.181 N 
HETATM    7  C8  UNL     1      15.011  12.376  24.834  1.00  0.00     0.303 A 
HETATM    8  O2  UNL     1      15.436  12.999  23.830  1.00  0.00    -0.263 OA
HETATM    9  C9  UNL     1      14.475  11.134  24.721  1.00  0.00     0.186 A 
HETATM   10  N12 UNL     1      14.037  10.528  25.862  1.00  0.00    -0.289 N 
ATOM     11  H12 UNL     1      13.632   9.595  25.790  1.00  0.00     0.187 HD
HETATM   12  N13 UNL     1      14.111  11.086  27.050  1.00  0.00    -0.280 N 
ATOM     13  H13 UNL     1      13.772  10.599  27.879  1.00  0.00     0.188 HD
HETATM   14  C14 UNL     1      14.650  12.324  27.142  1.00  0.00     0.192 A 
HETATM   15  C15 UNL     1      14.749  12.957  28.389  1.00  0.00     0.165 A 
ENDROOT
BRANCH   1  16
HETATM   16  C7  UNL     1      15.394  14.840  29.765  1.00  0.00     0.152 C 
BRANCH  16  17
HETATM   17  C6  UNL     1      16.532  14.183  30.517  1.00  0.00     0.024 C 
BRANCH  17  18
HETATM   18  C5  UNL     1      17.763  15.069  30.405  1.00  0.00     0.028 C 
BRANCH  18  19
HETATM   19  C4  UNL     1      18.731  14.520  29.404  1.00  0.00     0.175 C 
BRANCH  19  20
HETATM   20  O1  UNL     1      18.654  14.956  28.119  1.00  0.00    -0.351 OA
BRANCH  20  21
HETATM   21  C3  UNL     1      19.060  16.126  27.558  1.00  0.00     0.073 A 
HETATM   22  C2  UNL     1      19.759  17.117  28.208  1.00  0.00     0.084 A 
HETATM   23  C1  UNL     1      20.120  18.267  27.519  1.00  0.00     0.101 A 
HETATM   24  N15 UNL     1      19.823  18.478  26.228  1.00  0.00    -0.353 N 
HETATM   25  C17 UNL     1      19.141  17.536  25.555  1.00  0.00     0.092 A 
ATOM     26  H15 UNL     1      20.111  19.340  25.764  1.00  0.00     0.166 HD
HETATM   27  C16 UNL     1      18.771  16.393  26.202  1.00  0.00     0.054 A 
BRANCH  23  28
HETATM   28  N1  UNL     1      20.772  19.186  28.134  1.00  0.00    -0.385 N 
ATOM     29  H12 UNL     1      20.404  20.136  28.088  1.00  0.00     0.157 HD
ATOM     30  H11 UNL     1      21.623  18.938  28.639  1.00  0.00     0.157 HD
ENDBRANCH  23  28
ENDBRANCH  20  21
ENDBRANCH  19  20
ENDBRANCH  18  19
ENDBRANCH  17  18
ENDBRANCH  16  17
ENDBRANCH   1  16
BRANCH  15  31
HETATM   31  N14 UNL     1      14.305  12.304  29.397  1.00  0.00    -0.381 N 
ATOM     32 2H14 UNL     1      14.247  12.813  30.279  1.00  0.00     0.157 HD
ATOM     33 1H14 UNL     1      14.019  11.326  29.350  1.00  0.00     0.157 HD
ENDBRANCH  15  31
BRANCH   9  34
HETATM   34  C10 UNL     1      14.358  10.443  23.426  1.00  0.00     0.275 C 
HETATM   35  O3  UNL     1      13.617   9.428  23.397  1.00  0.00    -0.266 OA
HETATM   36  N6  UNL     1      15.061  10.927  22.295  1.00  0.00    -0.354 N 
ATOM     37  H6  UNL     1      15.646  11.757  22.389  1.00  0.00     0.162 HD
BRANCH  36  38
HETATM   38  C11 UNL     1      14.967  10.279  21.024  1.00  0.00     0.143 C 
BRANCH  38  39
HETATM   39  C12 UNL     1      14.097  10.992  20.019  1.00  0.00     0.157 C 
BRANCH  39  40
HETATM   40  N7  UNL     1      13.327   9.960  19.332  1.00  0.00    -0.223 N 
ATOM     41  H7  UNL     1      13.808   9.254  18.774  1.00  0.00     0.177 HD
BRANCH  40  42
HETATM   42  C13 UNL     1      12.041   9.937  19.430  1.00  0.00     0.703 A 
HETATM   43  N8  UNL     1      11.251   9.135  18.665  1.00  0.00    -0.117 N 
HETATM   44  N9  UNL     1       9.994   9.354  19.012  1.00  0.00     0.006 NA
ATOM     45  H8  UNL     1      11.573   8.481  17.950  1.00  0.00     0.202 HD
HETATM   46  N10 UNL     1       9.934  10.263  19.972  1.00  0.00     0.006 NA
HETATM   47  N11 UNL     1      11.202  10.607  20.212  1.00  0.00    -0.117 N 
ATOM     48  H11 UNL     1      11.489  11.296  20.908  1.00  0.00     0.202 HD
ENDBRANCH  40  42
ENDBRANCH  39  40
ENDBRANCH  38  39
ENDBRANCH  36  38
ENDBRANCH   9  34
TORSDOF 13
ENDMDL
MODEL 3
REMARK VINA RESULT: -9.335233214      2.276      2.671
REMARK  13 active torsions:
REMARK  status: ('A' for Active; 'I' for Inactive)
REMARK    1  A    between atoms: N1_1  and  C1_4 
REMARK    2  A    between atoms: C3_6  and  O1_7 
REMARK    3  A    between atoms: O1_7  and  C4_8 
REMARK    4  A    between atoms: C4_8  and  C5_9 
REMARK    5  A    between atoms: C5_9  and  C6_10 
REMARK    6  A    between atoms: C6_10  and  C7_11 
REMARK    7  A    between atoms: C7_11  and  N2_12 
REMARK    8  A    between atoms: C9_20  and  C10_21 
REMARK       I    between atoms: C10_21  and  N6_23 
REMARK    9  A    between atoms: N6_23  and  C11_25 
REMARK   10  A    between atoms: C11_25  and  C12_26 
REMARK   11  A    between atoms: C12_26  and  N7_27 
REMARK   12  A    between atoms: N7_27  and  C13_29 
REMARK   13  A    between atoms: C15_41  and  N14_42 
ROOT
HETATM    1  N2  UNL     1      15.306  14.076  28.589  1.00  0.00    -0.258 N 
HETATM    2  N3  UNL     1      15.736  14.645  27.480  1.00  0.00    -0.224 N 
ATOM      3  H3  UNL     1      16.170  15.567  27.538  1.00  0.00     0.210 HD
HETATM    4  N4  UNL     1      15.626  14.065  26.291  1.00  0.00    -0.216 N 
ATOM      5  H4  UNL     1      15.976  14.549  25.464  1.00  0.00     0.210 HD
HETATM    6  N5  UNL     1      15.074  12.873  26.157  1.00  0.00    -0.181 N 
HETATM    7  C8  UNL     1      14.968  12.291  24.934  1.00  0.00     0.303 A 
HETATM    8  O2  UNL     1      15.406  12.906  23.932  1.00  0.00    -0.263 OA
HETATM    9  C9  UNL     1      14.396  11.065  24.819  1.00  0.00     0.186 A 
HETATM   10  N12 UNL     1      13.947  10.467  25.959  1.00  0.00    -0.289 N 
ATOM     11  H12 UNL     1      13.515   9.546  25.885  1.00  0.00     0.187 HD
HETATM   12  N13 UNL     1      14.042  11.018  27.149  1.00  0.00    -0.280 N 
ATOM     13  H13 UNL     1      13.692  10.537  27.978  1.00  0.00     0.188 HD
HETATM   14  C14 UNL     1      14.615  12.240  27.243  1.00  0.00     0.192 A 
HETATM   15  C15 UNL     1      14.737  12.865  28.493  1.00  0.00     0.165 A 
ENDROOT
BRANCH   1  16
HETATM   16  C7  UNL     1      15.440  14.723  29.873  1.00  0.00     0.152 C 
BRANCH  16  17
HETATM   17  C6  UNL     1      16.718  14.216  30.509  1.00  0.00     0.024 C 
BRANCH  17  18
HETATM   18  C5  UNL     1      17.844  15.181  30.171  1.00  0.00     0.028 C 
BRANCH  18  19
HETATM   19  C4  UNL     1      19.105  14.807  30.883  1.00  0.00     0.175 C 
BRANCH  19  20
HETATM   20  O1  UNL     1      20.274  15.361  30.467  1.00  0.00    -0.351 OA
BRANCH  20  21
HETATM   21  C3  UNL     1      21.408  14.778  29.993  1.00  0.00     0.073 A 
HETATM   22  C2  UNL     1      22.670  14.962  30.510  1.00  0.00     0.084 A 
HETATM   23  C1  UNL     1      23.749  14.304  29.935  1.00  0.00     0.101 A 
HETATM   24  N15 UNL     1      23.636  13.479  28.883  1.00  0.00    -0.353 N 
HETATM   25  C17 UNL     1      22.422  13.272  28.347  1.00  0.00     0.092 A 
ATOM     26  H15 UNL     1      24.459  13.017  28.496  1.00  0.00     0.166 HD
HETATM   27  C16 UNL     1      21.339  13.903  28.887  1.00  0.00     0.054 A 
BRANCH  23  28
HETATM   28  N1  UNL     1      24.922  14.482  30.425  1.00  0.00    -0.385 N 
ATOM     29  H12 UNL     1      25.360  13.690  30.895  1.00  0.00     0.157 HD
ATOM     30  H11 UNL     1      25.368  15.394  30.329  1.00  0.00     0.157 HD
ENDBRANCH  23  28
ENDBRANCH  20  21
ENDBRANCH  19  20
ENDBRANCH  18  19
ENDBRANCH  17  18
ENDBRANCH  16  17
ENDBRANCH   1  16
BRANCH  15  31
HETATM   31  N14 UNL     1      14.279  12.220  29.500  1.00  0.00    -0.381 N 
ATOM     32 2H14 UNL     1      14.958  11.946  30.210  1.00  0.00     0.157 HD
ATOM     33 1H14 UNL     1      13.295  11.979  29.611  1.00  0.00     0.157 HD
ENDBRANCH  15  31
BRANCH   9  34
HETATM   34  C10 UNL     1      14.255  10.383  23.522  1.00  0.00     0.275 C 
HETATM   35  O3  UNL     1      13.460   9.410  23.483  1.00  0.00    -0.266 OA
HETATM   36  N6  UNL     1      14.993  10.829  22.398  1.00  0.00    -0.354 N 
ATOM     37  H6  UNL     1      15.623  11.626  22.500  1.00  0.00     0.162 HD
BRANCH  36  38
HETATM   38  C11 UNL     1      14.877  10.189  21.126  1.00  0.00     0.143 C 
BRANCH  38  39
HETATM   39  C12 UNL     1      14.223  11.030  20.057  1.00  0.00     0.157 C 
BRANCH  39  40
HETATM   40  N7  UNL     1      13.443  10.116  19.230  1.00  0.00    -0.223 N 
ATOM     41  H7  UNL     1      13.909   9.543  18.526  1.00  0.00     0.177 HD
BRANCH  40  42
HETATM   42  C13 UNL     1      12.165  10.029  19.388  1.00  0.00     0.703 A 
HETATM   43  N8  UNL     1      11.392   9.137  18.712  1.00  0.00    -0.117 N 
HETATM   44  N9  UNL     1      10.140   9.309  19.101  1.00  0.00     0.006 NA
ATOM     45  H8  UNL     1      11.720   8.456  18.026  1.00  0.00     0.202 HD
HETATM   46  N10 UNL     1      10.068  10.274  20.004  1.00  0.00     0.006 NA
HETATM   47  N11 UNL     1      11.323  10.702  20.164  1.00  0.00    -0.117 N 
ATOM     48  H11 UNL     1      11.599  11.450  20.801  1.00  0.00     0.202 HD
ENDBRANCH  40  42
ENDBRANCH  39  40
ENDBRANCH  38  39
ENDBRANCH  36  38
ENDBRANCH   9  34
TORSDOF 13
ENDMDL
MODEL 4
REMARK VINA RESULT: -9.323454681      1.906      4.046
REMARK  13 active torsions:
REMARK  status: ('A' for Active; 'I' for Inactive)
REMARK    1  A    between atoms: N1_1  and  C1_4 
REMARK    2  A    between atoms: C3_6  and  O1_7 
REMARK    3  A    between atoms: O1_7  and  C4_8 
REMARK    4  A    between atoms: C4_8  and  C5_9 
REMARK    5  A    between atoms: C5_9  and  C6_10 
REMARK    6  A    between atoms: C6_10  and  C7_11 
REMARK    7  A    between atoms: C7_11  and  N2_12 
REMARK    8  A    between atoms: C9_20  and  C10_21 
REMARK       I    between atoms: C10_21  and  N6_23 
REMARK    9  A    between atoms: N6_23  and  C11_25 
REMARK   10  A    between atoms: C11_25  and  C12_26 
REMARK   11  A    between atoms: C12_26  and  N7_27 
REMARK   12  A    between atoms: N7_27  and  C13_29 
REMARK   13  A    between atoms: C15_41  and  N14_42 
ROOT
HETATM    1  N2  UNL     1      18.661  13.669  28.408  1.00  0.00    -0.258 N 
HETATM    2  N3  UNL     1      18.026  12.515  28.354  1.00  0.00    -0.224 N 
ATOM      3  H3  UNL     1      17.887  11.990  29.217  1.00  0.00     0.210 HD
HETATM    4  N4  UNL     1      17.560  12.010  27.217  1.00  0.00    -0.216 N 
ATOM      5  H4  UNL     1      17.075  11.112  27.232  1.00  0.00     0.210 HD
HETATM    6  N5  UNL     1      17.711  12.644  26.070  1.00  0.00    -0.181 N 
HETATM    7  C8  UNL     1      17.230  12.116  24.915  1.00  0.00     0.303 A 
HETATM    8  O2  UNL     1      16.636  11.011  24.957  1.00  0.00    -0.263 OA
HETATM    9  C9  UNL     1      17.396  12.786  23.747  1.00  0.00     0.186 A 
HETATM   10  N12 UNL     1      18.053  13.980  23.790  1.00  0.00    -0.289 N 
ATOM     11  H12 UNL     1      18.185  14.492  22.918  1.00  0.00     0.187 HD
HETATM   12  N13 UNL     1      18.525  14.505  24.899  1.00  0.00    -0.280 N 
ATOM     13  H13 UNL     1      19.011  15.401  24.889  1.00  0.00     0.188 HD
HETATM   14  C14 UNL     1      18.349  13.822  26.054  1.00  0.00     0.192 A 
HETATM   15  C15 UNL     1      18.836  14.343  27.261  1.00  0.00     0.165 A 
ENDROOT
BRANCH   1  16
HETATM   16  C7  UNL     1      19.155  14.204  29.655  1.00  0.00     0.152 C 
BRANCH  16  17
HETATM   17  C6  UNL     1      18.118  15.173  30.180  1.00  0.00     0.024 C 
BRANCH  17  18
HETATM   18  C5  UNL     1      16.969  14.377  30.779  1.00  0.00     0.028 C 
BRANCH  18  19
HETATM   19  C4  UNL     1      15.674  14.712  30.109  1.00  0.00     0.175 C 
BRANCH  19  20
HETATM   20  O1  UNL     1      14.819  13.700  29.807  1.00  0.00    -0.351 OA
BRANCH  20  21
HETATM   21  C3  UNL     1      14.518  13.124  28.612  1.00  0.00     0.073 A 
HETATM   22  C2  UNL     1      14.368  13.799  27.422  1.00  0.00     0.084 A 
HETATM   23  C1  UNL     1      14.063  13.093  26.267  1.00  0.00     0.101 A 
HETATM   24  N15 UNL     1      13.902  11.761  26.237  1.00  0.00    -0.353 N 
HETATM   25  C17 UNL     1      14.038  11.063  27.376  1.00  0.00     0.092 A 
ATOM     26  H15 UNL     1      13.679  11.286  25.362  1.00  0.00     0.166 HD
HETATM   27  C16 UNL     1      14.338  11.726  28.531  1.00  0.00     0.054 A 
BRANCH  23  28
HETATM   28  N1  UNL     1      13.927  13.731  25.161  1.00  0.00    -0.385 N 
ATOM     29  H12 UNL     1      13.160  13.452  24.549  1.00  0.00     0.157 HD
ATOM     30  H11 UNL     1      14.579  14.483  24.938  1.00  0.00     0.157 HD
ENDBRANCH  23  28
ENDBRANCH  20  21
ENDBRANCH  19  20
ENDBRANCH  18  19
ENDBRANCH  17  18
ENDBRANCH  16  17
ENDBRANCH   1  16
BRANCH  15  31
HETATM   31  N14 UNL     1      19.442  15.470  27.192  1.00  0.00    -0.381 N 
ATOM     32 2H14 UNL     1      19.116  16.118  26.475  1.00  0.00     0.157 HD
ATOM     33 1H14 UNL     1      20.212  15.731  27.807  1.00  0.00     0.157 HD
ENDBRANCH  15  31
BRANCH   9  34
HETATM   34  C10 UNL     1      16.895  12.264  22.464  1.00  0.00     0.275 C 
HETATM   35  O3  UNL     1      17.710  12.252  21.506  1.00  0.00    -0.266 OA
HETATM   36  N6  UNL     1      15.558  11.809  22.353  1.00  0.00    -0.354 N 
ATOM     37  H6  UNL     1      14.949  11.848  23.171  1.00  0.00     0.162 HD
BRANCH  36  38
HETATM   38  C11 UNL     1      15.043  11.297  21.122  1.00  0.00     0.143 C 
BRANCH  38  39
HETATM   39  C12 UNL     1      13.546  11.109  21.099  1.00  0.00     0.157 C 
BRANCH  39  40
HETATM   40  N7  UNL     1      13.241  10.360  19.885  1.00  0.00    -0.223 N 
ATOM     41  H7  UNL     1      13.995  10.083  19.256  1.00  0.00     0.177 HD
BRANCH  40  42
HETATM   42  C13 UNL     1      12.022  10.047  19.604  1.00  0.00     0.703 A 
HETATM   43  N8  UNL     1      10.948  10.626  20.205  1.00  0.00    -0.117 N 
HETATM   44  N9  UNL     1       9.855  10.083  19.694  1.00  0.00     0.006 NA
ATOM     45  H8  UNL     1      10.979  11.351  20.923  1.00  0.00     0.202 HD
HETATM   46  N10 UNL     1      10.175   9.177  18.784  1.00  0.00     0.006 NA
HETATM   47  N11 UNL     1      11.510   9.171  18.746  1.00  0.00    -0.117 N 
ATOM     48  H11 UNL     1      12.066   8.570  18.135  1.00  0.00     0.202 HD
ENDBRANCH  40  42
ENDBRANCH  39  40
ENDBRANCH  38  39
ENDBRANCH  36  38
ENDBRANCH   9  34
TORSDOF 13
ENDMDL
MODEL 5
REMARK VINA RESULT: -9.285908851      2.574      3.108
REMARK  13 active torsions:
REMARK  status: ('A' for Active; 'I' for Inactive)
REMARK    1  A    between atoms: N1_1  and  C1_4 
REMARK    2  A    between atoms: C3_6  and  O1_7 
REMARK    3  A    between atoms: O1_7  and  C4_8 
REMARK    4  A    between atoms: C4_8  and  C5_9 
REMARK    5  A    between atoms: C5_9  and  C6_10 
REMARK    6  A    between atoms: C6_10  and  C7_11 
REMARK    7  A    between atoms: C7_11  and  N2_12 
REMARK    8  A    between atoms: C9_20  and  C10_21 
REMARK       I    between atoms: C10_21  and  N6_23 
REMARK    9  A    between atoms: N6_23  and  C11_25 
REMARK   10  A    between atoms: C11_25  and  C12_26 
REMARK   11  A    between atoms: C12_26  and  N7_27 
REMARK   12  A    between atoms: N7_27  and  C13_29 
REMARK   13  A    between atoms: C15_41  and  N14_42 
ROOT
HETATM    1  N2  UNL     1      16.431  13.507  28.919  1.00  0.00    -0.258 N 
HETATM    2  N3  UNL     1      17.274  13.594  27.910  1.00  0.00    -0.224 N 
ATOM      3  H3  UNL     1      18.131  14.134  28.031  1.00  0.00     0.210 HD
HETATM    4  N4  UNL     1      17.052  13.004  26.741  1.00  0.00    -0.216 N 
ATOM      5  H4  UNL     1      17.738  13.103  25.993  1.00  0.00     0.210 HD
HETATM    6  N5  UNL     1      15.961  12.293  26.527  1.00  0.00    -0.181 N 
HETATM    7  C8  UNL     1      15.745  11.695  25.327  1.00  0.00     0.303 A 
HETATM    8  O2  UNL     1      16.604  11.830  24.421  1.00  0.00    -0.263 OA
HETATM    9  C9  UNL     1      14.616  10.968  25.128  1.00  0.00     0.186 A 
HETATM   10  N12 UNL     1      13.736  10.873  26.165  1.00  0.00    -0.289 N 
ATOM     11  H12 UNL     1      12.884  10.329  26.028  1.00  0.00     0.187 HD
HETATM   12  N13 UNL     1      13.929  11.445  27.332  1.00  0.00    -0.280 N 
ATOM     13  H13 UNL     1      13.245  11.349  28.083  1.00  0.00     0.188 HD
HETATM   14  C14 UNL     1      15.061  12.165  27.510  1.00  0.00     0.192 A 
HETATM   15  C15 UNL     1      15.309  12.793  28.740  1.00  0.00     0.165 A 
ENDROOT
BRANCH   1  16
HETATM   16  C7  UNL     1      16.694  14.151  30.184  1.00  0.00     0.152 C 
BRANCH  16  17
HETATM   17  C6  UNL     1      17.957  14.972  30.024  1.00  0.00     0.024 C 
BRANCH  17  18
HETATM   18  C5  UNL     1      18.910  14.623  31.157  1.00  0.00     0.028 C 
BRANCH  18  19
HETATM   19  C4  UNL     1      20.334  14.734  30.715  1.00  0.00     0.175 C 
BRANCH  19  20
HETATM   20  O1  UNL     1      21.072  15.785  31.160  1.00  0.00    -0.351 OA
BRANCH  20  21
HETATM   21  C3  UNL     1      21.042  17.098  30.808  1.00  0.00     0.073 A 
HETATM   22  C2  UNL     1      21.045  18.155  31.688  1.00  0.00     0.084 A 
HETATM   23  C1  UNL     1      21.015  19.454  31.199  1.00  0.00     0.101 A 
HETATM   24  N15 UNL     1      20.984  19.751  29.891  1.00  0.00    -0.353 N 
HETATM   25  C17 UNL     1      20.979  18.748  28.997  1.00  0.00     0.092 A 
ATOM     26  H15 UNL     1      20.964  20.722  29.580  1.00  0.00     0.166 HD
HETATM   27  C16 UNL     1      21.008  17.459  29.443  1.00  0.00     0.054 A 
BRANCH  23  28
HETATM   28  N1  UNL     1      21.019  20.435  32.028  1.00  0.00    -0.385 N 
ATOM     29  H12 UNL     1      21.328  20.243  32.981  1.00  0.00     0.157 HD
ATOM     30  H11 UNL     1      20.719  21.356  31.710  1.00  0.00     0.157 HD
ENDBRANCH  23  28
ENDBRANCH  20  21
ENDBRANCH  19  20
ENDBRANCH  18  19
ENDBRANCH  17  18
ENDBRANCH  16  17
ENDBRANCH   1  16
BRANCH  15  31
HETATM   31  N14 UNL     1      14.416  12.645  29.646  1.00  0.00    -0.381 N 
ATOM     32 2H14 UNL     1      14.569  13.147  30.520  1.00  0.00     0.157 HD
ATOM     33 1H14 UNL     1      13.589  12.061  29.528  1.00  0.00     0.157 HD
ENDBRANCH  15  31
BRANCH   9  34
HETATM   34  C10 UNL     1      14.329  10.297  23.850  1.00  0.00     0.275 C 
HETATM   35  O3  UNL     1      13.760   9.177  23.920  1.00  0.00    -0.266 OA
HETATM   36  N6  UNL     1      14.691  10.910  22.626  1.00  0.00    -0.354 N 
ATOM     37  H6  UNL     1      15.151  11.821  22.641  1.00  0.00     0.162 HD
BRANCH  36  38
HETATM   38  C11 UNL     1      14.425  10.284  21.369  1.00  0.00     0.143 C 
BRANCH  38  39
HETATM   39  C12 UNL     1      13.437  11.020  20.497  1.00  0.00     0.157 C 
BRANCH  39  40
HETATM   40  N7  UNL     1      12.891  10.037  19.568  1.00  0.00    -0.223 N 
ATOM     41  H7  UNL     1      13.517   9.397  19.079  1.00  0.00     0.177 HD
BRANCH  40  42
HETATM   42  C13 UNL     1      11.618   9.974  19.364  1.00  0.00     0.703 A 
HETATM   43  N8  UNL     1      11.054   9.160  18.431  1.00  0.00    -0.117 N 
HETATM   44  N9  UNL     1       9.744   9.336  18.479  1.00  0.00     0.006 NA
ATOM     45  H8  UNL     1      11.553   8.526  17.806  1.00  0.00     0.202 HD
HETATM   46  N10 UNL     1       9.434  10.229  19.405  1.00  0.00     0.006 NA
HETATM   47  N11 UNL     1      10.600  10.608  19.935  1.00  0.00    -0.117 N 
ATOM     48  H11 UNL     1      10.695  11.296  20.683  1.00  0.00     0.202 HD
ENDBRANCH  40  42
ENDBRANCH  39  40
ENDBRANCH  38  39
ENDBRANCH  36  38
ENDBRANCH   9  34
TORSDOF 13
ENDMDL
