MODEL 1
REMARK VINA RESULT: -7.781061217      0.000      0.000
REMARK  12 active torsions:
REMARK  status: ('A' for Active; 'I' for Inactive)
REMARK       I    between atoms: C2_2  and  N1_4 
REMARK    1  A    between atoms: N1_4  and  C3_6 
REMARK    2  A    between atoms: C5_8  and  O2_9 
REMARK    3  A    between atoms: C5_8  and  N2_11 
REMARK    4  A    between atoms: N2_11  and  C6_13 
REMARK    5  A    between atoms: C6_13  and  C7_14 
REMARK    6  A    between atoms: N6_20  and  N7_21 
REMARK       I    between atoms: N7_21  and  C8_23 
REMARK    7  A    between atoms: C8_23  and  C9_25 
REMARK    8  A    between atoms: C9_25  and  N8_26 
REMARK    9  A    between atoms: C10_30  and  N9_31 
REMARK       I    between atoms: N9_31  and  C11_33 
REMARK   10  A    between atoms: C11_33  and  C12_35 
REMARK   11  A    between atoms: C12_35  and  C13_36 
REMARK   12  A    between atoms: C13_36  and  N10_37 
ROOT
HETATM    1  C3  UNL     1      18.646  13.068  25.886  1.00  0.00     0.129 A 
HETATM    2  C4  UNL     1      17.316  12.839  25.373  1.00  0.00     0.087 A 
HETATM    3  C5  UNL     1      16.309  13.835  25.595  1.00  0.00     0.152 C 
HETATM    4  C10 UNL     1      17.079  11.773  24.547  1.00  0.00     0.079 A 
HETATM    5  C14 UNL     1      18.161  10.952  24.230  1.00  0.00     0.140 A 
HETATM    6  C15 UNL     1      17.941   9.831  23.361  1.00  0.00     0.107 C 
HETATM    7  N11 UNL     1      17.784   8.922  22.660  1.00  0.00    -0.191 NA
HETATM    8  C16 UNL     1      19.409  11.189  24.721  1.00  0.00     0.272 A 
HETATM    9  O5  UNL     1      20.407  10.441  24.434  1.00  0.00    -0.266 OA
HETATM   10  N12 UNL     1      19.656  12.254  25.558  1.00  0.00    -0.302 N 
HETATM   11  C17 UNL     1      20.971  12.397  26.087  1.00  0.00     0.161 C 
ENDROOT
BRANCH   4  12
HETATM   12  N9  UNL     1      15.814  11.368  24.015  1.00  0.00    -0.325 N 
HETATM   13  C11 UNL     1      15.369  11.832  22.744  1.00  0.00     0.223 C 
HETATM   14  O4  UNL     1      16.112  12.605  22.108  1.00  0.00    -0.273 OA
ATOM     15  H9  UNL     1      15.222  10.737  24.555  1.00  0.00     0.169 HD
BRANCH  13  16
HETATM   16  C12 UNL     1      14.077  11.427  22.176  1.00  0.00     0.130 C 
BRANCH  16  17
HETATM   17  C13 UNL     1      14.302  10.771  20.831  1.00  0.00     0.238 C 
BRANCH  17  18
HETATM   18  N10 UNL     1      15.071   9.562  21.094  1.00  0.00    -0.079 N 
ATOM     19 3H10 UNL     1      16.080   9.707  21.058  1.00  0.00     0.274 HD
ATOM     20 2H10 UNL     1      15.024   9.254  22.065  1.00  0.00     0.274 HD
ATOM     21 1H10 UNL     1      14.738   8.864  20.429  1.00  0.00     0.274 HD
ENDBRANCH  17  18
ENDBRANCH  16  17
ENDBRANCH  13  16
ENDBRANCH   4  12
BRANCH   1  22
HETATM   22  N1  UNL     1      18.776  14.052  26.865  1.00  0.00    -0.312 N 
HETATM   23  C2  UNL     1      19.328  15.284  27.017  1.00  0.00     0.219 C 
HETATM   24  C1  UNL     1      19.450  15.903  28.396  1.00  0.00     0.117 C 
HETATM   25  O1  UNL     1      19.772  16.017  26.120  1.00  0.00    -0.274 OA
ATOM     26  H1  UNL     1      18.318  13.758  27.728  1.00  0.00     0.170 HD
ENDBRANCH   1  22
BRANCH   3  27
HETATM   27  O2  UNL     1      16.732  14.929  26.169  1.00  0.00    -0.346 OA
ATOM     28  H2  UNL     1      16.401  15.076  27.048  1.00  0.00     0.219 HD
ENDBRANCH   3  27
BRANCH   3  29
HETATM   29  N2  UNL     1      14.948  13.902  25.332  1.00  0.00    -0.363 N 
ATOM     30  H2  UNL     1      14.650  14.111  24.379  1.00  0.00     0.162 HD
BRANCH  29  31
HETATM   31  C6  UNL     1      13.912  13.688  26.348  1.00  0.00     0.203 C 
BRANCH  31  32
HETATM   32  C7  UNL     1      13.912  12.365  26.950  1.00  0.00     0.153 A 
HETATM   33  N3  UNL     1      13.648  11.189  26.380  1.00  0.00    -0.272 N 
HETATM   34  N4  UNL     1      13.748  10.227  27.277  1.00  0.00    -0.223 N 
ATOM     35  H3  UNL     1      13.406  11.054  25.398  1.00  0.00     0.189 HD
HETATM   36  N5  UNL     1      14.079  10.775  28.435  1.00  0.00     0.018 NA
ATOM     37  H4  UNL     1      13.598   9.232  27.107  1.00  0.00     0.205 HD
HETATM   38  N6  UNL     1      14.180  12.090  28.239  1.00  0.00    -0.161 N 
BRANCH  38  39
HETATM   39  N7  UNL     1      14.502  13.005  29.220  1.00  0.00    -0.247 N 
HETATM   40  C8  UNL     1      15.829  13.439  29.475  1.00  0.00     0.262 C 
HETATM   41  O3  UNL     1      16.783  12.986  28.788  1.00  0.00    -0.270 OA
ATOM     42  H7  UNL     1      13.749  13.390  29.791  1.00  0.00     0.192 HD
BRANCH  40  43
HETATM   43  C9  UNL     1      16.147  14.425  30.546  1.00  0.00     0.333 C 
BRANCH  43  44
HETATM   44  N8  UNL     1      15.165  14.410  31.597  1.00  0.00    -0.071 N 
ATOM     45  H83 UNL     1      15.103  13.490  32.034  1.00  0.00     0.274 HD
ATOM     46  H82 UNL     1      15.477  14.950  32.404  1.00  0.00     0.274 HD
ATOM     47  H81 UNL     1      14.253  14.727  31.269  1.00  0.00     0.274 HD
ENDBRANCH  43  44
ENDBRANCH  40  43
ENDBRANCH  38  39
ENDBRANCH  31  32
ENDBRANCH  29  31
ENDBRANCH   3  29
TORSDOF 12
ENDMDL
MODEL 2
REMARK VINA RESULT: -7.666062882      1.179      1.210
REMARK  12 active torsions:
REMARK  status: ('A' for Active; 'I' for Inactive)
REMARK       I    between atoms: C2_2  and  N1_4 
REMARK    1  A    between atoms: N1_4  and  C3_6 
REMARK    2  A    between atoms: C5_8  and  O2_9 
REMARK    3  A    between atoms: C5_8  and  N2_11 
REMARK    4  A    between atoms: N2_11  and  C6_13 
REMARK    5  A    between atoms: C6_13  and  C7_14 
REMARK    6  A    between atoms: N6_20  and  N7_21 
REMARK       I    between atoms: N7_21  and  C8_23 
REMARK    7  A    between atoms: C8_23  and  C9_25 
REMARK    8  A    between atoms: C9_25  and  N8_26 
REMARK    9  A    between atoms: C10_30  and  N9_31 
REMARK       I    between atoms: N9_31  and  C11_33 
REMARK   10  A    between atoms: C11_33  and  C12_35 
REMARK   11  A    between atoms: C12_35  and  C13_36 
REMARK   12  A    between atoms: C13_36  and  N10_37 
ROOT
HETATM    1  C3  UNL     1      19.385  13.227  25.515  1.00  0.00     0.129 A 
HETATM    2  C4  UNL     1      17.979  13.002  25.273  1.00  0.00     0.087 A 
HETATM    3  C5  UNL     1      17.050  14.057  25.561  1.00  0.00     0.152 C 
HETATM    4  C10 UNL     1      17.573  11.869  24.621  1.00  0.00     0.079 A 
HETATM    5  C14 UNL     1      18.561  10.976  24.208  1.00  0.00     0.140 A 
HETATM    6  C15 UNL     1      18.163   9.782  23.517  1.00  0.00     0.107 C 
HETATM    7  N11 UNL     1      17.862   8.814  22.955  1.00  0.00    -0.191 NA
HETATM    8  C16 UNL     1      19.882  11.210  24.442  1.00  0.00     0.272 A 
HETATM    9  O5  UNL     1      20.795  10.396  24.065  1.00  0.00    -0.266 OA
HETATM   10  N12 UNL     1      20.300  12.343  25.103  1.00  0.00    -0.302 N 
HETATM   11  C17 UNL     1      21.692  12.484  25.373  1.00  0.00     0.161 C 
ENDROOT
BRANCH   4  12
HETATM   12  N9  UNL     1      16.224  11.465  24.367  1.00  0.00    -0.325 N 
HETATM   13  C11 UNL     1      15.558  11.842  23.167  1.00  0.00     0.223 C 
HETATM   14  O4  UNL     1      16.181  12.538  22.342  1.00  0.00    -0.273 OA
ATOM     15  H9  UNL     1      15.733  10.897  25.058  1.00  0.00     0.169 HD
BRANCH  13  16
HETATM   16  C12 UNL     1      14.176  11.436  22.883  1.00  0.00     0.130 C 
BRANCH  16  17
HETATM   17  C13 UNL     1      14.116   9.933  22.719  1.00  0.00     0.238 C 
BRANCH  17  18
HETATM   18  N10 UNL     1      15.030   9.607  21.633  1.00  0.00    -0.079 N 
ATOM     19 3H10 UNL     1      15.774  10.293  21.508  1.00  0.00     0.274 HD
ATOM     20 2H10 UNL     1      15.631   8.808  21.835  1.00  0.00     0.274 HD
ATOM     21 1H10 UNL     1      14.452   9.481  20.803  1.00  0.00     0.274 HD
ENDBRANCH  17  18
ENDBRANCH  16  17
ENDBRANCH  13  16
ENDBRANCH   4  12
BRANCH   1  22
HETATM   22  N1  UNL     1      19.711  14.299  26.345  1.00  0.00    -0.312 N 
HETATM   23  C2  UNL     1      20.151  14.521  27.611  1.00  0.00     0.219 C 
HETATM   24  C1  UNL     1      20.121  15.920  28.197  1.00  0.00     0.117 C 
HETATM   25  O1  UNL     1      20.606  13.679  28.400  1.00  0.00    -0.274 OA
ATOM     26  H1  UNL     1      19.578  15.183  25.854  1.00  0.00     0.170 HD
ENDBRANCH   1  22
BRANCH   3  27
HETATM   27  O2  UNL     1      17.595  15.185  25.931  1.00  0.00    -0.346 OA
ATOM     28  H2  UNL     1      16.993  15.917  26.004  1.00  0.00     0.219 HD
ENDBRANCH   3  27
BRANCH   3  29
HETATM   29  N2  UNL     1      15.666  14.152  25.537  1.00  0.00    -0.363 N 
ATOM     30  H2  UNL     1      15.197  14.136  24.631  1.00  0.00     0.162 HD
BRANCH  29  31
HETATM   31  C6  UNL     1      14.839  14.276  26.743  1.00  0.00     0.203 C 
BRANCH  31  32
HETATM   32  C7  UNL     1      14.509  13.016  27.388  1.00  0.00     0.153 A 
HETATM   33  N3  UNL     1      13.916  11.943  26.867  1.00  0.00    -0.272 N 
HETATM   34  N4  UNL     1      13.792  11.010  27.792  1.00  0.00    -0.223 N 
ATOM     35  H3  UNL     1      13.605  11.855  25.899  1.00  0.00     0.189 HD
HETATM   36  N5  UNL     1      14.306  11.474  28.918  1.00  0.00     0.018 NA
ATOM     37  H4  UNL     1      13.373  10.089  27.660  1.00  0.00     0.205 HD
HETATM   38  N6  UNL     1      14.748  12.709  28.675  1.00  0.00    -0.161 N 
BRANCH  38  39
HETATM   39  N7  UNL     1      15.346  13.526  29.613  1.00  0.00    -0.247 N 
HETATM   40  C8  UNL     1      16.752  13.671  29.737  1.00  0.00     0.262 C 
HETATM   41  O3  UNL     1      17.520  13.037  28.966  1.00  0.00    -0.270 OA
ATOM     42  H7  UNL     1      14.747  14.052  30.250  1.00  0.00     0.192 HD
BRANCH  40  43
HETATM   43  C9  UNL     1      17.369  14.556  30.764  1.00  0.00     0.333 C 
BRANCH  43  44
HETATM   44  N8  UNL     1      18.759  14.250  30.971  1.00  0.00    -0.071 N 
ATOM     45  H83 UNL     1      19.025  13.390  30.492  1.00  0.00     0.274 HD
ATOM     46  H82 UNL     1      19.361  14.904  30.471  1.00  0.00     0.274 HD
ATOM     47  H81 UNL     1      18.996  14.211  31.962  1.00  0.00     0.274 HD
ENDBRANCH  43  44
ENDBRANCH  40  43
ENDBRANCH  38  39
ENDBRANCH  31  32
ENDBRANCH  29  31
ENDBRANCH   3  29
TORSDOF 12
ENDMDL
MODEL 3
REMARK VINA RESULT: -7.634091697      2.133      6.142
REMARK  12 active torsions:
REMARK  status: ('A' for Active; 'I' for Inactive)
REMARK       I    between atoms: C2_2  and  N1_4 
REMARK    1  A    between atoms: N1_4  and  C3_6 
REMARK    2  A    between atoms: C5_8  and  O2_9 
REMARK    3  A    between atoms: C5_8  and  N2_11 
REMARK    4  A    between atoms: N2_11  and  C6_13 
REMARK    5  A    between atoms: C6_13  and  C7_14 
REMARK    6  A    between atoms: N6_20  and  N7_21 
REMARK       I    between atoms: N7_21  and  C8_23 
REMARK    7  A    between atoms: C8_23  and  C9_25 
REMARK    8  A    between atoms: C9_25  and  N8_26 
REMARK    9  A    between atoms: C10_30  and  N9_31 
REMARK       I    between atoms: N9_31  and  C11_33 
REMARK   10  A    between atoms: C11_33  and  C12_35 
REMARK   11  A    between atoms: C12_35  and  C13_36 
REMARK   12  A    between atoms: C13_36  and  N10_37 
ROOT
HETATM    1  C3  UNL     1      19.797  13.853  28.528  1.00  0.00     0.129 A 
HETATM    2  C4  UNL     1      18.631  13.341  27.845  1.00  0.00     0.087 A 
HETATM    3  C5  UNL     1      18.815  12.548  26.664  1.00  0.00     0.152 C 
HETATM    4  C10 UNL     1      17.396  13.470  28.418  1.00  0.00     0.079 A 
HETATM    5  C14 UNL     1      17.326  14.095  29.664  1.00  0.00     0.140 A 
HETATM    6  C15 UNL     1      16.042  14.238  30.290  1.00  0.00     0.107 C 
HETATM    7  N11 UNL     1      15.015  14.360  30.813  1.00  0.00    -0.191 NA
HETATM    8  C16 UNL     1      18.438  14.566  30.292  1.00  0.00     0.272 A 
HETATM    9  O5  UNL     1      18.383  15.140  31.435  1.00  0.00    -0.266 OA
HETATM   10  N12 UNL     1      19.686  14.448  29.721  1.00  0.00    -0.302 N 
HETATM   11  C17 UNL     1      20.792  15.027  30.406  1.00  0.00     0.161 C 
ENDROOT
BRANCH   4  12
HETATM   12  N9  UNL     1      16.143  13.084  27.846  1.00  0.00    -0.325 N 
HETATM   13  C11 UNL     1      15.428  13.961  26.980  1.00  0.00     0.223 C 
HETATM   14  O4  UNL     1      15.925  15.078  26.736  1.00  0.00    -0.273 OA
ATOM     15  H9  UNL     1      15.755  12.166  28.062  1.00  0.00     0.169 HD
BRANCH  13  16
HETATM   16  C12 UNL     1      14.143  13.585  26.379  1.00  0.00     0.130 C 
BRANCH  16  17
HETATM   17  C13 UNL     1      14.389  12.693  25.181  1.00  0.00     0.238 C 
BRANCH  17  18
HETATM   18  N10 UNL     1      15.043  13.528  24.182  1.00  0.00    -0.079 N 
ATOM     19 3H10 UNL     1      14.873  13.223  23.224  1.00  0.00     0.274 HD
ATOM     20 2H10 UNL     1      14.627  14.455  24.093  1.00  0.00     0.274 HD
ATOM     21 1H10 UNL     1      16.031  13.548  24.433  1.00  0.00     0.274 HD
ENDBRANCH  17  18
ENDBRANCH  16  17
ENDBRANCH  13  16
ENDBRANCH   4  12
BRANCH   1  22
HETATM   22  N1  UNL     1      20.990  13.859  27.806  1.00  0.00    -0.312 N 
HETATM   23  C2  UNL     1      22.223  13.291  27.856  1.00  0.00     0.219 C 
HETATM   24  C1  UNL     1      23.338  13.805  26.965  1.00  0.00     0.117 C 
HETATM   25  O1  UNL     1      22.580  12.347  28.577  1.00  0.00    -0.274 OA
ATOM     26  H1  UNL     1      20.914  14.474  26.996  1.00  0.00     0.170 HD
ENDBRANCH   1  22
BRANCH   3  27
HETATM   27  O2  UNL     1      20.059  12.276  26.370  1.00  0.00    -0.346 OA
ATOM     28  H2  UNL     1      20.186  11.814  25.549  1.00  0.00     0.219 HD
ENDBRANCH   3  27
BRANCH   3  29
HETATM   29  N2  UNL     1      17.947  11.991  25.736  1.00  0.00    -0.363 N 
ATOM     30  H2  UNL     1      17.024  11.697  26.055  1.00  0.00     0.162 HD
BRANCH  29  31
HETATM   31  C6  UNL     1      18.283  11.801  24.321  1.00  0.00     0.203 C 
BRANCH  31  32
HETATM   32  C7  UNL     1      18.438  10.415  23.910  1.00  0.00     0.153 A 
HETATM   33  N3  UNL     1      19.560   9.726  23.708  1.00  0.00    -0.272 N 
HETATM   34  N4  UNL     1      19.265   8.496  23.334  1.00  0.00    -0.223 N 
ATOM     35  H3  UNL     1      20.505  10.094  23.824  1.00  0.00     0.189 HD
HETATM   36  N5  UNL     1      17.948   8.381  23.294  1.00  0.00     0.018 NA
ATOM     37  H4  UNL     1      19.937   7.760  23.114  1.00  0.00     0.205 HD
HETATM   38  N6  UNL     1      17.434   9.560  23.647  1.00  0.00    -0.161 N 
BRANCH  38  39
HETATM   39  N7  UNL     1      16.085   9.836  23.717  1.00  0.00    -0.247 N 
HETATM   40  C8  UNL     1      15.208   9.730  22.605  1.00  0.00     0.262 C 
HETATM   41  O3  UNL     1      15.655   9.365  21.485  1.00  0.00    -0.270 OA
ATOM     42  H7  UNL     1      15.697  10.133  24.612  1.00  0.00     0.192 HD
BRANCH  40  43
HETATM   43  C9  UNL     1      13.755  10.041  22.710  1.00  0.00     0.333 C 
BRANCH  43  44
HETATM   44  N8  UNL     1      13.187  10.383  21.434  1.00  0.00    -0.071 N 
ATOM     45  H83 UNL     1      13.535  11.282  21.101  1.00  0.00     0.274 HD
ATOM     46  H82 UNL     1      13.553   9.785  20.693  1.00  0.00     0.274 HD
ATOM     47  H81 UNL     1      12.168  10.364  21.455  1.00  0.00     0.274 HD
ENDBRANCH  43  44
ENDBRANCH  40  43
ENDBRANCH  38  39
ENDBRANCH  31  32
ENDBRANCH  29  31
ENDBRANCH   3  29
TORSDOF 12
ENDMDL
MODEL 4
REMARK VINA RESULT: -7.629211288      2.307      6.343
REMARK  12 active torsions:
REMARK  status: ('A' for Active; 'I' for Inactive)
REMARK       I    between atoms: C2_2  and  N1_4 
REMARK    1  A    between atoms: N1_4  and  C3_6 
REMARK    2  A    between atoms: C5_8  and  O2_9 
REMARK    3  A    between atoms: C5_8  and  N2_11 
REMARK    4  A    between atoms: N2_11  and  C6_13 
REMARK    5  A    between atoms: C6_13  and  C7_14 
REMARK    6  A    between atoms: N6_20  and  N7_21 
REMARK       I    between atoms: N7_21  and  C8_23 
REMARK    7  A    between atoms: C8_23  and  C9_25 
REMARK    8  A    between atoms: C9_25  and  N8_26 
REMARK    9  A    between atoms: C10_30  and  N9_31 
REMARK       I    between atoms: N9_31  and  C11_33 
REMARK   10  A    between atoms: C11_33  and  C12_35 
REMARK   11  A    between atoms: C12_35  and  C13_36 
REMARK   12  A    between atoms: C13_36  and  N10_37 
ROOT
HETATM    1  C3  UNL     1      19.867  13.904  28.597  1.00  0.00     0.129 A 
HETATM    2  C4  UNL     1      18.710  13.350  27.935  1.00  0.00     0.087 A 
HETATM    3  C5  UNL     1      18.905  12.517  26.784  1.00  0.00     0.152 C 
HETATM    4  C10 UNL     1      17.472  13.482  28.503  1.00  0.00     0.079 A 
HETATM    5  C14 UNL     1      17.393  14.151  29.724  1.00  0.00     0.140 A 
HETATM    6  C15 UNL     1      16.107  14.298  30.345  1.00  0.00     0.107 C 
HETATM    7  N11 UNL     1      15.079  14.425  30.864  1.00  0.00    -0.191 NA
HETATM    8  C16 UNL     1      18.498  14.662  30.335  1.00  0.00     0.272 A 
HETATM    9  O5  UNL     1      18.434  15.277  31.456  1.00  0.00    -0.266 OA
HETATM   10  N12 UNL     1      19.747  14.541  29.767  1.00  0.00    -0.302 N 
HETATM   11  C17 UNL     1      20.845  15.162  30.429  1.00  0.00     0.161 C 
ENDROOT
BRANCH   4  12
HETATM   12  N9  UNL     1      16.225  13.056  27.946  1.00  0.00    -0.325 N 
HETATM   13  C11 UNL     1      15.520  13.870  27.013  1.00  0.00     0.223 C 
HETATM   14  O4  UNL     1      16.020  14.967  26.696  1.00  0.00    -0.273 OA
ATOM     15  H9  UNL     1      15.835  12.155  28.222  1.00  0.00     0.169 HD
BRANCH  13  16
HETATM   16  C12 UNL     1      14.241  13.452  26.426  1.00  0.00     0.130 C 
BRANCH  16  17
HETATM   17  C13 UNL     1      14.157  11.941  26.426  1.00  0.00     0.238 C 
BRANCH  17  18
HETATM   18  N10 UNL     1      13.131  11.593  25.452  1.00  0.00    -0.079 N 
ATOM     19 3H10 UNL     1      13.175  12.150  24.598  1.00  0.00     0.274 HD
ATOM     20 2H10 UNL     1      13.278  10.684  25.014  1.00  0.00     0.274 HD
ATOM     21 1H10 UNL     1      12.239  11.670  25.940  1.00  0.00     0.274 HD
ENDBRANCH  17  18
ENDBRANCH  16  17
ENDBRANCH  13  16
ENDBRANCH   4  12
BRANCH   1  22
HETATM   22  N1  UNL     1      21.060  13.901  27.875  1.00  0.00    -0.312 N 
HETATM   23  C2  UNL     1      22.288  13.322  27.923  1.00  0.00     0.219 C 
HETATM   24  C1  UNL     1      23.408  13.828  27.033  1.00  0.00     0.117 C 
HETATM   25  O1  UNL     1      22.638  12.374  28.642  1.00  0.00    -0.274 OA
ATOM     26  H1  UNL     1      20.989  14.519  27.066  1.00  0.00     0.170 HD
ENDBRANCH   1  22
BRANCH   3  27
HETATM   27  O2  UNL     1      20.153  12.253  26.499  1.00  0.00    -0.346 OA
ATOM     28  H2  UNL     1      20.332  12.102  25.578  1.00  0.00     0.219 HD
ENDBRANCH   3  27
BRANCH   3  29
HETATM   29  N2  UNL     1      18.046  11.913  25.877  1.00  0.00    -0.363 N 
ATOM     30  H2  UNL     1      17.087  11.729  26.171  1.00  0.00     0.162 HD
BRANCH  29  31
HETATM   31  C6  UNL     1      18.440  11.523  24.519  1.00  0.00     0.203 C 
BRANCH  31  32
HETATM   32  C7  UNL     1      17.437  10.771  23.784  1.00  0.00     0.153 A 
HETATM   33  N3  UNL     1      16.141  11.042  23.627  1.00  0.00    -0.272 N 
HETATM   34  N4  UNL     1      15.576  10.101  22.894  1.00  0.00    -0.223 N 
ATOM     35  H3  UNL     1      15.659  11.854  24.014  1.00  0.00     0.189 HD
HETATM   36  N5  UNL     1      16.503   9.216  22.572  1.00  0.00     0.018 NA
ATOM     37  H4  UNL     1      14.593  10.064  22.622  1.00  0.00     0.205 HD
HETATM   38  N6  UNL     1      17.650   9.623  23.118  1.00  0.00    -0.161 N 
BRANCH  38  39
HETATM   39  N7  UNL     1      18.851   8.952  23.009  1.00  0.00    -0.247 N 
HETATM   40  C8  UNL     1      19.048   7.625  23.472  1.00  0.00     0.262 C 
HETATM   41  O3  UNL     1      18.096   7.000  24.013  1.00  0.00    -0.270 OA
ATOM     42  H7  UNL     1      19.637   9.434  22.574  1.00  0.00     0.192 HD
BRANCH  40  43
HETATM   43  C9  UNL     1      20.358   6.929  23.346  1.00  0.00     0.333 C 
BRANCH  43  44
HETATM   44  N8  UNL     1      21.302   7.698  22.581  1.00  0.00    -0.071 N 
ATOM     45  H83 UNL     1      21.238   7.482  21.586  1.00  0.00     0.274 HD
ATOM     46  H82 UNL     1      21.039   8.683  22.548  1.00  0.00     0.274 HD
ATOM     47  H81 UNL     1      22.255   7.582  22.925  1.00  0.00     0.274 HD
ENDBRANCH  43  44
ENDBRANCH  40  43
ENDBRANCH  38  39
ENDBRANCH  31  32
ENDBRANCH  29  31
ENDBRANCH   3  29
TORSDOF 12
ENDMDL
MODEL 5
REMARK VINA RESULT: -7.574060753      1.792      5.653
REMARK  12 active torsions:
REMARK  status: ('A' for Active; 'I' for Inactive)
REMARK       I    between atoms: C2_2  and  N1_4 
REMARK    1  A    between atoms: N1_4  and  C3_6 
REMARK    2  A    between atoms: C5_8  and  O2_9 
REMARK    3  A    between atoms: C5_8  and  N2_11 
REMARK    4  A    between atoms: N2_11  and  C6_13 
REMARK    5  A    between atoms: C6_13  and  C7_14 
REMARK    6  A    between atoms: N6_20  and  N7_21 
REMARK       I    between atoms: N7_21  and  C8_23 
REMARK    7  A    between atoms: C8_23  and  C9_25 
REMARK    8  A    between atoms: C9_25  and  N8_26 
REMARK    9  A    between atoms: C10_30  and  N9_31 
REMARK       I    between atoms: N9_31  and  C11_33 
REMARK   10  A    between atoms: C11_33  and  C12_35 
REMARK   11  A    between atoms: C12_35  and  C13_36 
REMARK   12  A    between atoms: C13_36  and  N10_37 
ROOT
HETATM    1  C3  UNL     1      18.775  13.484  24.773  1.00  0.00     0.129 A 
HETATM    2  C4  UNL     1      18.087  13.976  25.944  1.00  0.00     0.087 A 
HETATM    3  C5  UNL     1      16.665  14.153  25.886  1.00  0.00     0.152 C 
HETATM    4  C10 UNL     1      18.762  14.102  27.127  1.00  0.00     0.079 A 
HETATM    5  C14 UNL     1      20.107  13.731  27.143  1.00  0.00     0.140 A 
HETATM    6  C15 UNL     1      20.837  13.848  28.374  1.00  0.00     0.107 C 
HETATM    7  N11 UNL     1      21.443  13.932  29.358  1.00  0.00    -0.191 NA
HETATM    8  C16 UNL     1      20.736  13.265  26.028  1.00  0.00     0.272 A 
HETATM    9  O5  UNL     1      21.969  12.922  26.035  1.00  0.00    -0.266 OA
HETATM   10  N12 UNL     1      20.067  13.141  24.831  1.00  0.00    -0.302 N 
HETATM   11  C17 UNL     1      20.808  12.714  23.693  1.00  0.00     0.161 C 
ENDROOT
BRANCH   4  12
HETATM   12  N9  UNL     1      18.251  14.636  28.352  1.00  0.00    -0.325 N 
HETATM   13  C11 UNL     1      17.530  13.816  29.267  1.00  0.00     0.223 C 
HETATM   14  O4  UNL     1      17.354  12.618  28.970  1.00  0.00    -0.273 OA
ATOM     15  H9  UNL     1      18.405  15.620  28.573  1.00  0.00     0.169 HD
BRANCH  13  16
HETATM   16  C12 UNL     1      16.999  14.341  30.530  1.00  0.00     0.130 C 
BRANCH  16  17
HETATM   17  C13 UNL     1      15.529  14.664  30.365  1.00  0.00     0.238 C 
BRANCH  17  18
HETATM   18  N10 UNL     1      14.889  14.293  31.620  1.00  0.00    -0.079 N 
ATOM     19 3H10 UNL     1      15.520  14.319  32.421  1.00  0.00     0.274 HD
ATOM     20 2H10 UNL     1      14.229  14.992  31.960  1.00  0.00     0.274 HD
ATOM     21 1H10 UNL     1      14.469  13.378  31.464  1.00  0.00     0.274 HD
ENDBRANCH  17  18
ENDBRANCH  16  17
ENDBRANCH  13  16
ENDBRANCH   4  12
BRANCH   1  22
HETATM   22  N1  UNL     1      18.083  13.561  23.565  1.00  0.00    -0.312 N 
HETATM   23  C2  UNL     1      17.785  12.773  22.500  1.00  0.00     0.219 C 
HETATM   24  C1  UNL     1      17.196  13.379  21.240  1.00  0.00     0.117 C 
HETATM   25  O1  UNL     1      17.939  11.545  22.415  1.00  0.00    -0.274 OA
ATOM     26  H1  UNL     1      17.677  14.490  23.445  1.00  0.00     0.170 HD
ENDBRANCH   1  22
BRANCH   3  27
HETATM   27  O2  UNL     1      16.103  13.744  24.780  1.00  0.00    -0.346 OA
ATOM     28  H2  UNL     1      15.272  14.159  24.575  1.00  0.00     0.219 HD
ENDBRANCH   3  27
BRANCH   3  29
HETATM   29  N2  UNL     1      15.725  14.675  26.763  1.00  0.00    -0.363 N 
ATOM     30  H2  UNL     1      16.005  15.452  27.363  1.00  0.00     0.162 HD
BRANCH  29  31
HETATM   31  C6  UNL     1      14.352  14.173  26.877  1.00  0.00     0.203 C 
BRANCH  31  32
HETATM   32  C7  UNL     1      14.243  12.779  27.276  1.00  0.00     0.153 A 
HETATM   33  N3  UNL     1      14.404  12.243  28.485  1.00  0.00    -0.272 N 
HETATM   34  N4  UNL     1      14.227  10.937  28.420  1.00  0.00    -0.223 N 
ATOM     35  H3  UNL     1      14.631  12.763  29.333  1.00  0.00     0.189 HD
HETATM   36  N5  UNL     1      13.948  10.620  27.167  1.00  0.00     0.018 NA
ATOM     37  H4  UNL     1      14.293  10.284  29.202  1.00  0.00     0.205 HD
HETATM   38  N6  UNL     1      13.958  11.750  26.458  1.00  0.00    -0.161 N 
BRANCH  38  39
HETATM   39  N7  UNL     1      13.717  11.826  25.102  1.00  0.00    -0.247 N 
HETATM   40  C8  UNL     1      14.577  11.261  24.124  1.00  0.00     0.262 C 
HETATM   41  O3  UNL     1      15.620  10.651  24.482  1.00  0.00    -0.270 OA
ATOM     42  H7  UNL     1      12.879  12.314  24.785  1.00  0.00     0.192 HD
BRANCH  40  43
HETATM   43  C9  UNL     1      14.294  11.365  22.666  1.00  0.00     0.333 C 
BRANCH  43  44
HETATM   44  N8  UNL     1      15.065  10.421  21.902  1.00  0.00    -0.071 N 
ATOM     45  H83 UNL     1      16.029  10.375  22.233  1.00  0.00     0.274 HD
ATOM     46  H82 UNL     1      14.781   9.462  22.101  1.00  0.00     0.274 HD
ATOM     47  H81 UNL     1      15.026  10.619  20.902  1.00  0.00     0.274 HD
ENDBRANCH  43  44
ENDBRANCH  40  43
ENDBRANCH  38  39
ENDBRANCH  31  32
ENDBRANCH  29  31
ENDBRANCH   3  29
TORSDOF 12
ENDMDL
