MODEL 1
REMARK VINA RESULT: -8.255595686      0.000      0.000
REMARK  15 active torsions:
REMARK  status: ('A' for Active; 'I' for Inactive)
REMARK    1  A    between atoms: C4_5  and  O2_6 
REMARK    2  A    between atoms: O2_6  and  C5_7 
REMARK    3  A    between atoms: C6_8  and  O3_9 
REMARK    4  A    between atoms: O3_9  and  C7_10 
REMARK    5  A    between atoms: C9_13  and  O5_14 
REMARK    6  A    between atoms: C10_16  and  O6_17 
REMARK    7  A    between atoms: C11_19  and  O7_20 
REMARK    8  A    between atoms: C13_24  and  O9_25 
REMARK    9  A    between atoms: O9_25  and  C14_26 
REMARK   10  A    between atoms: C14_26  and  O10_27 
REMARK   11  A    between atoms: O10_27  and  C15_28 
REMARK   12  A    between atoms: C15_28  and  C16_29 
REMARK   13  A    between atoms: C16_29  and  O11_30 
REMARK   14  A    between atoms: C17_32  and  O12_33 
REMARK   15  A    between atoms: C19_37  and  O14_38 
ROOT
HETATM    1  C5  UNL     1      15.277  11.045  23.345  1.00  0.00     0.189 C 
HETATM    2  C6  UNL     1      16.252  11.826  22.450  1.00  0.00     0.180 C 
HETATM    3  C12 UNL     1      15.657  11.996  21.080  1.00  0.00     0.205 C 
HETATM    4  O8  UNL     1      14.298  12.291  21.231  1.00  0.00    -0.356 OA
HETATM    5  C13 UNL     1      13.591  11.147  21.582  1.00  0.00     0.293 C 
HETATM    6  C17 UNL     1      14.434  10.208  22.422  1.00  0.00     0.205 C 
ENDROOT
BRANCH   2   7
HETATM    7  O3  UNL     1      17.457  11.211  22.491  1.00  0.00    -0.348 OA
BRANCH   7   8
HETATM    8  C7  UNL     1      17.633  10.281  23.499  1.00  0.00     0.291 C 
HETATM    9  O4  UNL     1      18.396  10.894  24.494  1.00  0.00    -0.356 OA
HETATM   10  C8  UNL     1      19.733  10.991  24.171  1.00  0.00     0.205 C 
HETATM   11  C9  UNL     1      20.271   9.555  24.233  1.00  0.00     0.173 C 
HETATM   12  C10 UNL     1      19.669   8.894  22.987  1.00  0.00     0.182 C 
HETATM   13  C11 UNL     1      18.186   8.974  23.038  1.00  0.00     0.204 C 
BRANCH  11  14
HETATM   14  O5  UNL     1      21.641   9.515  24.217  1.00  0.00    -0.391 OA
ATOM     15  H5  UNL     1      21.988   8.883  24.835  1.00  0.00     0.210 HD
ENDBRANCH  11  14
BRANCH  12  16
HETATM   16  O6  UNL     1      20.120   7.600  22.942  1.00  0.00    -0.390 OA
ATOM     17  H6  UNL     1      21.023   7.598  23.236  1.00  0.00     0.210 HD
ENDBRANCH  12  16
BRANCH  13  18
HETATM   18  O7  UNL     1      17.728   7.899  23.824  1.00  0.00    -0.388 OA
ATOM     19  H7  UNL     1      18.331   7.689  24.528  1.00  0.00     0.210 HD
ENDBRANCH  13  18
ENDBRANCH   7   8
ENDBRANCH   2   7
BRANCH   1  20
HETATM   20  O2  UNL     1      14.573  11.945  24.097  1.00  0.00    -0.348 OA
BRANCH  20  21
HETATM   21  C4  UNL     1      14.981  12.072  25.398  1.00  0.00     0.285 C 
HETATM   22  O1  UNL     1      15.089  13.380  25.828  1.00  0.00    -0.344 OA
HETATM   23  C2  UNL     1      15.225  13.564  27.158  1.00  0.00     0.106 C 
HETATM   24  C1  UNL     1      14.781  14.969  27.531  1.00  0.00     0.051 C 
HETATM   25  C3  UNL     1      16.728  13.512  27.476  1.00  0.00     0.051 C 
HETATM   26  C19 UNL     1      14.583  12.546  28.044  1.00  0.00     0.290 C 
HETATM   27  O13 UNL     1      14.551  11.276  27.545  1.00  0.00    -0.354 OA
HETATM   28  C18 UNL     1      13.996  11.317  26.267  1.00  0.00     0.232 C 
BRANCH  26  29
HETATM   29  O14 UNL     1      15.221  12.482  29.304  1.00  0.00    -0.368 OA
ATOM     30  H14 UNL     1      15.176  11.607  29.672  1.00  0.00     0.212 HD
ENDBRANCH  26  29
ENDBRANCH  20  21
ENDBRANCH   1  20
BRANCH   6  31
HETATM   31  O12 UNL     1      13.576   9.350  23.075  1.00  0.00    -0.388 OA
ATOM     32  H12 UNL     1      12.678   9.658  23.112  1.00  0.00     0.210 HD
ENDBRANCH   6  31
BRANCH   5  33
HETATM   33  O9  UNL     1      13.178  10.427  20.463  1.00  0.00    -0.335 OA
BRANCH  33  34
HETATM   34  C14 UNL     1      11.864  10.778  20.155  1.00  0.00     0.341 C 
BRANCH  34  35
HETATM   35  O10 UNL     1      11.074   9.679  19.906  1.00  0.00    -0.365 OA
BRANCH  35  36
HETATM   36  C15 UNL     1      10.734   9.510  18.585  1.00  0.00     0.196 C 
BRANCH  36  37
HETATM   37  C16 UNL     1       9.213   9.338  18.533  1.00  0.00     0.190 C 
BRANCH  37  38
HETATM   38  O11 UNL     1       8.675  10.584  18.266  1.00  0.00    -0.399 OA
ATOM     39  H11 UNL     1       8.006  10.461  17.603  1.00  0.00     0.209 HD
ENDBRANCH  37  38
ENDBRANCH  36  37
ENDBRANCH  35  36
ENDBRANCH  34  35
ENDBRANCH  33  34
ENDBRANCH   5  33
TORSDOF 15
ENDMDL
MODEL 2
REMARK VINA RESULT: -8.075070225      1.141      1.712
REMARK  15 active torsions:
REMARK  status: ('A' for Active; 'I' for Inactive)
REMARK    1  A    between atoms: C4_5  and  O2_6 
REMARK    2  A    between atoms: O2_6  and  C5_7 
REMARK    3  A    between atoms: C6_8  and  O3_9 
REMARK    4  A    between atoms: O3_9  and  C7_10 
REMARK    5  A    between atoms: C9_13  and  O5_14 
REMARK    6  A    between atoms: C10_16  and  O6_17 
REMARK    7  A    between atoms: C11_19  and  O7_20 
REMARK    8  A    between atoms: C13_24  and  O9_25 
REMARK    9  A    between atoms: O9_25  and  C14_26 
REMARK   10  A    between atoms: C14_26  and  O10_27 
REMARK   11  A    between atoms: O10_27  and  C15_28 
REMARK   12  A    between atoms: C15_28  and  C16_29 
REMARK   13  A    between atoms: C16_29  and  O11_30 
REMARK   14  A    between atoms: C17_32  and  O12_33 
REMARK   15  A    between atoms: C19_37  and  O14_38 
ROOT
HETATM    1  C5  UNL     1      15.213  10.502  24.458  1.00  0.00     0.189 C 
HETATM    2  C6  UNL     1      16.489  11.178  23.933  1.00  0.00     0.180 C 
HETATM    3  C12 UNL     1      16.305  11.559  22.491  1.00  0.00     0.205 C 
HETATM    4  O8  UNL     1      15.010  12.066  22.339  1.00  0.00    -0.356 OA
HETATM    5  C13 UNL     1      14.081  11.033  22.361  1.00  0.00     0.293 C 
HETATM    6  C17 UNL     1      14.531   9.898  23.261  1.00  0.00     0.205 C 
ENDROOT
BRANCH   2   7
HETATM    7  O3  UNL     1      17.541  10.367  24.193  1.00  0.00    -0.348 OA
BRANCH   7   8
HETATM    8  C7  UNL     1      18.213   9.867  23.092  1.00  0.00     0.291 C 
HETATM    9  O4  UNL     1      17.669   8.612  22.817  1.00  0.00    -0.356 OA
HETATM   10  C8  UNL     1      18.097   7.631  23.687  1.00  0.00     0.205 C 
HETATM   11  C9  UNL     1      19.574   7.394  23.339  1.00  0.00     0.173 C 
HETATM   12  C10 UNL     1      20.272   8.650  23.872  1.00  0.00     0.182 C 
HETATM   13  C11 UNL     1      19.699   9.861  23.231  1.00  0.00     0.204 C 
BRANCH  11  14
HETATM   14  O5  UNL     1      20.065   6.254  23.918  1.00  0.00    -0.391 OA
ATOM     15  H5  UNL     1      19.455   5.879  24.542  1.00  0.00     0.210 HD
ENDBRANCH  11  14
BRANCH  12  16
HETATM   16  O6  UNL     1      21.615   8.517  23.627  1.00  0.00    -0.390 OA
ATOM     17  H6  UNL     1      21.724   8.349  22.699  1.00  0.00     0.210 HD
ENDBRANCH  12  16
BRANCH  13  18
HETATM   18  O7  UNL     1      20.345  10.034  21.991  1.00  0.00    -0.388 OA
ATOM     19  H7  UNL     1      21.272  10.215  22.094  1.00  0.00     0.210 HD
ENDBRANCH  13  18
ENDBRANCH   7   8
ENDBRANCH   2   7
BRANCH   1  20
HETATM   20  O2  UNL     1      14.472  11.443  25.119  1.00  0.00    -0.348 OA
BRANCH  20  21
HETATM   21  C4  UNL     1      15.049  11.960  26.248  1.00  0.00     0.285 C 
HETATM   22  O1  UNL     1      14.966  13.336  26.342  1.00  0.00    -0.344 OA
HETATM   23  C2  UNL     1      15.274  13.874  27.541  1.00  0.00     0.106 C 
HETATM   24  C1  UNL     1      14.628  15.244  27.670  1.00  0.00     0.051 C 
HETATM   25  C3  UNL     1      16.789  14.132  27.552  1.00  0.00     0.051 C 
HETATM   26  C19 UNL     1      14.991  13.033  28.744  1.00  0.00     0.290 C 
HETATM   27  O13 UNL     1      15.129  11.688  28.560  1.00  0.00    -0.354 OA
HETATM   28  C18 UNL     1      14.381  11.315  27.445  1.00  0.00     0.232 C 
BRANCH  26  29
HETATM   29  O14 UNL     1      15.822  13.392  29.831  1.00  0.00    -0.368 OA
ATOM     30  H14 UNL     1      15.639  14.276  30.129  1.00  0.00     0.212 HD
ENDBRANCH  26  29
ENDBRANCH  20  21
ENDBRANCH   1  20
BRANCH   6  31
HETATM   31  O12 UNL     1      13.419   9.147  23.572  1.00  0.00    -0.388 OA
ATOM     32  H12 UNL     1      13.350   8.926  24.494  1.00  0.00     0.210 HD
ENDBRANCH   6  31
BRANCH   5  33
HETATM   33  O9  UNL     1      13.877  10.488  21.096  1.00  0.00    -0.335 OA
BRANCH  33  34
HETATM   34  C14 UNL     1      12.708  11.021  20.553  1.00  0.00     0.341 C 
BRANCH  34  35
HETATM   35  O10 UNL     1      11.755  10.057  20.316  1.00  0.00    -0.365 OA
BRANCH  35  36
HETATM   36  C15 UNL     1      11.557   9.766  18.988  1.00  0.00     0.196 C 
BRANCH  36  37
HETATM   37  C16 UNL     1      10.044   9.771  18.749  1.00  0.00     0.190 C 
BRANCH  37  38
HETATM   38  O11 UNL     1       9.439   9.650  19.987  1.00  0.00    -0.399 OA
ATOM     39  H11 UNL     1       9.725  10.390  20.510  1.00  0.00     0.209 HD
ENDBRANCH  37  38
ENDBRANCH  36  37
ENDBRANCH  35  36
ENDBRANCH  34  35
ENDBRANCH  33  34
ENDBRANCH   5  33
TORSDOF 15
ENDMDL
MODEL 3
REMARK VINA RESULT: -7.797196502      1.427      5.720
REMARK  15 active torsions:
REMARK  status: ('A' for Active; 'I' for Inactive)
REMARK    1  A    between atoms: C4_5  and  O2_6 
REMARK    2  A    between atoms: O2_6  and  C5_7 
REMARK    3  A    between atoms: C6_8  and  O3_9 
REMARK    4  A    between atoms: O3_9  and  C7_10 
REMARK    5  A    between atoms: C9_13  and  O5_14 
REMARK    6  A    between atoms: C10_16  and  O6_17 
REMARK    7  A    between atoms: C11_19  and  O7_20 
REMARK    8  A    between atoms: C13_24  and  O9_25 
REMARK    9  A    between atoms: O9_25  and  C14_26 
REMARK   10  A    between atoms: C14_26  and  O10_27 
REMARK   11  A    between atoms: O10_27  and  C15_28 
REMARK   12  A    between atoms: C15_28  and  C16_29 
REMARK   13  A    between atoms: C16_29  and  O11_30 
REMARK   14  A    between atoms: C17_32  and  O12_33 
REMARK   15  A    between atoms: C19_37  and  O14_38 
ROOT
HETATM    1  C5  UNL     1      16.910  11.448  23.091  1.00  0.00     0.189 C 
HETATM    2  C6  UNL     1      16.313  10.562  24.197  1.00  0.00     0.180 C 
HETATM    3  C12 UNL     1      15.084   9.867  23.681  1.00  0.00     0.205 C 
HETATM    4  O8  UNL     1      15.341   9.448  22.371  1.00  0.00    -0.356 OA
HETATM    5  C13 UNL     1      15.300  10.531  21.501  1.00  0.00     0.293 C 
HETATM    6  C17 UNL     1      15.772  11.805  22.175  1.00  0.00     0.205 C 
ENDROOT
BRANCH   2   7
HETATM    7  O3  UNL     1      16.134  11.321  25.303  1.00  0.00    -0.348 OA
BRANCH   7   8
HETATM    8  C7  UNL     1      14.834  11.432  25.762  1.00  0.00     0.291 C 
HETATM    9  O4  UNL     1      14.349  12.666  25.326  1.00  0.00    -0.356 OA
HETATM   10  C8  UNL     1      14.837  13.730  26.055  1.00  0.00     0.205 C 
HETATM   11  C9  UNL     1      14.165  13.622  27.431  1.00  0.00     0.173 C 
HETATM   12  C10 UNL     1      14.864  12.420  28.076  1.00  0.00     0.182 C 
HETATM   13  C11 UNL     1      14.681  11.212  27.230  1.00  0.00     0.204 C 
BRANCH  11  14
HETATM   14  O5  UNL     1      14.324  14.762  28.174  1.00  0.00    -0.391 OA
ATOM     15  H5  UNL     1      13.507  15.234  28.284  1.00  0.00     0.210 HD
ENDBRANCH  11  14
BRANCH  12  16
HETATM   16  O6  UNL     1      14.343  12.260  29.334  1.00  0.00    -0.390 OA
ATOM     17  H6  UNL     1      13.738  12.975  29.490  1.00  0.00     0.210 HD
ENDBRANCH  12  16
BRANCH  13  18
HETATM   18  O7  UNL     1      13.430  10.652  27.553  1.00  0.00    -0.388 OA
ATOM     19  H7  UNL     1      13.490   9.719  27.725  1.00  0.00     0.210 HD
ENDBRANCH  13  18
ENDBRANCH   7   8
ENDBRANCH   2   7
BRANCH   1  20
HETATM   20  O2  UNL     1      17.926  10.756  22.491  1.00  0.00    -0.348 OA
BRANCH  20  21
HETATM   21  C4  UNL     1      18.781  10.109  23.344  1.00  0.00     0.285 C 
HETATM   22  O1  UNL     1      19.761   9.374  22.706  1.00  0.00    -0.344 OA
HETATM   23  C2  UNL     1      20.780   8.938  23.477  1.00  0.00     0.106 C 
HETATM   24  C1  UNL     1      21.997   8.661  22.610  1.00  0.00     0.051 C 
HETATM   25  C3  UNL     1      20.368   7.574  24.052  1.00  0.00     0.051 C 
HETATM   26  C19 UNL     1      21.141   9.788  24.652  1.00  0.00     0.290 C 
HETATM   27  O13 UNL     1      20.100  10.452  25.233  1.00  0.00    -0.354 OA
HETATM   28  C18 UNL     1      19.414  11.152  24.242  1.00  0.00     0.232 C 
BRANCH  26  29
HETATM   29  O14 UNL     1      21.768   9.028  25.665  1.00  0.00    -0.368 OA
ATOM     30  H14 UNL     1      22.473   9.514  26.078  1.00  0.00     0.212 HD
ENDBRANCH  26  29
ENDBRANCH  20  21
ENDBRANCH   1  20
BRANCH   6  31
HETATM   31  O12 UNL     1      16.113  12.699  21.184  1.00  0.00    -0.388 OA
ATOM     32  H12 UNL     1      15.505  13.423  21.094  1.00  0.00     0.210 HD
ENDBRANCH   6  31
BRANCH   5  33
HETATM   33  O9  UNL     1      14.011  10.776  21.033  1.00  0.00    -0.335 OA
BRANCH  33  34
HETATM   34  C14 UNL     1      13.965  10.509  19.665  1.00  0.00     0.341 C 
BRANCH  34  35
HETATM   35  O10 UNL     1      12.718  10.094  19.255  1.00  0.00    -0.365 OA
BRANCH  35  36
HETATM   36  C15 UNL     1      11.694  10.449  20.098  1.00  0.00     0.196 C 
BRANCH  36  37
HETATM   37  C16 UNL     1      10.397  10.361  19.288  1.00  0.00     0.190 C 
BRANCH  37  38
HETATM   38  O11 UNL     1       9.519   9.577  20.014  1.00  0.00    -0.399 OA
ATOM     39  H11 UNL     1       8.651   9.730  19.660  1.00  0.00     0.209 HD
ENDBRANCH  37  38
ENDBRANCH  36  37
ENDBRANCH  35  36
ENDBRANCH  34  35
ENDBRANCH  33  34
ENDBRANCH   5  33
TORSDOF 15
ENDMDL
MODEL 4
REMARK VINA RESULT: -7.785413138      1.115      1.792
REMARK  15 active torsions:
REMARK  status: ('A' for Active; 'I' for Inactive)
REMARK    1  A    between atoms: C4_5  and  O2_6 
REMARK    2  A    between atoms: O2_6  and  C5_7 
REMARK    3  A    between atoms: C6_8  and  O3_9 
REMARK    4  A    between atoms: O3_9  and  C7_10 
REMARK    5  A    between atoms: C9_13  and  O5_14 
REMARK    6  A    between atoms: C10_16  and  O6_17 
REMARK    7  A    between atoms: C11_19  and  O7_20 
REMARK    8  A    between atoms: C13_24  and  O9_25 
REMARK    9  A    between atoms: O9_25  and  C14_26 
REMARK   10  A    between atoms: C14_26  and  O10_27 
REMARK   11  A    between atoms: O10_27  and  C15_28 
REMARK   12  A    between atoms: C15_28  and  C16_29 
REMARK   13  A    between atoms: C16_29  and  O11_30 
REMARK   14  A    between atoms: C17_32  and  O12_33 
REMARK   15  A    between atoms: C19_37  and  O14_38 
ROOT
HETATM    1  C5  UNL     1      15.257  10.976  23.460  1.00  0.00     0.189 C 
HETATM    2  C6  UNL     1      16.289  11.676  22.561  1.00  0.00     0.180 C 
HETATM    3  C12 UNL     1      15.727  11.840  21.177  1.00  0.00     0.205 C 
HETATM    4  O8  UNL     1      14.384  12.214  21.296  1.00  0.00    -0.356 OA
HETATM    5  C13 UNL     1      13.609  11.122  21.665  1.00  0.00     0.293 C 
HETATM    6  C17 UNL     1      14.383  10.162  22.546  1.00  0.00     0.205 C 
ENDROOT
BRANCH   2   7
HETATM    7  O3  UNL     1      17.457  10.996  22.641  1.00  0.00    -0.348 OA
BRANCH   7   8
HETATM    8  C7  UNL     1      18.582  11.747  22.929  1.00  0.00     0.291 C 
HETATM    9  O4  UNL     1      19.691  10.971  22.590  1.00  0.00    -0.356 OA
HETATM   10  C8  UNL     1      19.959   9.977  23.508  1.00  0.00     0.205 C 
HETATM   11  C9  UNL     1      20.481  10.705  24.755  1.00  0.00     0.173 C 
HETATM   12  C10 UNL     1      19.225  11.369  25.332  1.00  0.00     0.182 C 
HETATM   13  C11 UNL     1      18.623  12.278  24.323  1.00  0.00     0.204 C 
BRANCH  11  14
HETATM   14  O5  UNL     1      21.059   9.844  25.651  1.00  0.00    -0.391 OA
ATOM     15  H5  UNL     1      21.951  10.094  25.862  1.00  0.00     0.210 HD
ENDBRANCH  11  14
BRANCH  12  16
HETATM   16  O6  UNL     1      19.591  12.029  26.477  1.00  0.00    -0.390 OA
ATOM     17  H6  UNL     1      19.749  12.937  26.249  1.00  0.00     0.210 HD
ENDBRANCH  12  16
BRANCH  13  18
HETATM   18  O7  UNL     1      19.304  13.509  24.399  1.00  0.00    -0.388 OA
ATOM     19  H7  UNL     1      19.057  14.007  25.170  1.00  0.00     0.210 HD
ENDBRANCH  13  18
ENDBRANCH   7   8
ENDBRANCH   2   7
BRANCH   1  20
HETATM   20  O2  UNL     1      14.593  11.936  24.174  1.00  0.00    -0.348 OA
BRANCH  20  21
HETATM   21  C4  UNL     1      15.014  12.105  25.466  1.00  0.00     0.285 C 
HETATM   22  O1  UNL     1      15.069  13.425  25.871  1.00  0.00    -0.344 OA
HETATM   23  C2  UNL     1      15.216  13.639  27.196  1.00  0.00     0.106 C 
HETATM   24  C1  UNL     1      14.713  15.029  27.550  1.00  0.00     0.051 C 
HETATM   25  C3  UNL     1      16.724  13.662  27.491  1.00  0.00     0.051 C 
HETATM   26  C19 UNL     1      14.634  12.609  28.109  1.00  0.00     0.290 C 
HETATM   27  O13 UNL     1      14.652  11.331  27.633  1.00  0.00    -0.354 OA
HETATM   28  C18 UNL     1      14.077  11.323  26.364  1.00  0.00     0.232 C 
BRANCH  26  29
HETATM   29  O14 UNL     1      15.293  12.598  29.360  1.00  0.00    -0.368 OA
ATOM     30  H14 UNL     1      16.093  12.087  29.326  1.00  0.00     0.212 HD
ENDBRANCH  26  29
ENDBRANCH  20  21
ENDBRANCH   1  20
BRANCH   6  31
HETATM   31  O12 UNL     1      13.468   9.372  23.208  1.00  0.00    -0.388 OA
ATOM     32  H12 UNL     1      12.622   9.322  22.778  1.00  0.00     0.210 HD
ENDBRANCH   6  31
BRANCH   5  33
HETATM   33  O9  UNL     1      13.174  10.394  20.560  1.00  0.00    -0.335 OA
BRANCH  33  34
HETATM   34  C14 UNL     1      11.863  10.764  20.258  1.00  0.00     0.341 C 
BRANCH  34  35
HETATM   35  O10 UNL     1      11.069   9.680  19.963  1.00  0.00    -0.365 OA
BRANCH  35  36
HETATM   36  C15 UNL     1      10.793   9.523  18.626  1.00  0.00     0.196 C 
BRANCH  36  37
HETATM   37  C16 UNL     1       9.278   9.345  18.500  1.00  0.00     0.190 C 
BRANCH  37  38
HETATM   38  O11 UNL     1       8.733  10.608  18.353  1.00  0.00    -0.399 OA
ATOM     39  H11 UNL     1       9.206  11.184  18.941  1.00  0.00     0.209 HD
ENDBRANCH  37  38
ENDBRANCH  36  37
ENDBRANCH  35  36
ENDBRANCH  34  35
ENDBRANCH  33  34
ENDBRANCH   5  33
TORSDOF 15
ENDMDL
MODEL 5
REMARK VINA RESULT: -7.681651456      2.245      4.867
REMARK  15 active torsions:
REMARK  status: ('A' for Active; 'I' for Inactive)
REMARK    1  A    between atoms: C4_5  and  O2_6 
REMARK    2  A    between atoms: O2_6  and  C5_7 
REMARK    3  A    between atoms: C6_8  and  O3_9 
REMARK    4  A    between atoms: O3_9  and  C7_10 
REMARK    5  A    between atoms: C9_13  and  O5_14 
REMARK    6  A    between atoms: C10_16  and  O6_17 
REMARK    7  A    between atoms: C11_19  and  O7_20 
REMARK    8  A    between atoms: C13_24  and  O9_25 
REMARK    9  A    between atoms: O9_25  and  C14_26 
REMARK   10  A    between atoms: C14_26  and  O10_27 
REMARK   11  A    between atoms: O10_27  and  C15_28 
REMARK   12  A    between atoms: C15_28  and  C16_29 
REMARK   13  A    between atoms: C16_29  and  O11_30 
REMARK   14  A    between atoms: C17_32  and  O12_33 
REMARK   15  A    between atoms: C19_37  and  O14_38 
ROOT
HETATM    1  C5  UNL     1      16.091  12.862  23.842  1.00  0.00     0.189 C 
HETATM    2  C6  UNL     1      14.882  12.286  24.596  1.00  0.00     0.180 C 
HETATM    3  C12 UNL     1      14.013  11.513  23.645  1.00  0.00     0.205 C 
HETATM    4  O8  UNL     1      14.847  10.781  22.793  1.00  0.00    -0.356 OA
HETATM    5  C13 UNL     1      15.428  11.618  21.848  1.00  0.00     0.293 C 
HETATM    6  C17 UNL     1      15.664  13.008  22.407  1.00  0.00     0.205 C 
ENDROOT
BRANCH   2   7
HETATM    7  O3  UNL     1      14.269  13.297  25.257  1.00  0.00    -0.348 OA
BRANCH   7   8
HETATM    8  C7  UNL     1      13.842  13.014  26.541  1.00  0.00     0.291 C 
HETATM    9  O4  UNL     1      13.649  14.236  27.187  1.00  0.00    -0.356 OA
HETATM   10  C8  UNL     1      14.828  14.839  27.572  1.00  0.00     0.205 C 
HETATM   11  C9  UNL     1      15.367  13.981  28.725  1.00  0.00     0.173 C 
HETATM   12  C10 UNL     1      15.851  12.706  28.024  1.00  0.00     0.182 C 
HETATM   13  C11 UNL     1      14.726  12.073  27.289  1.00  0.00     0.204 C 
BRANCH  11  14
HETATM   14  O5  UNL     1      16.381  14.605  29.403  1.00  0.00    -0.391 OA
ATOM     15  H5  UNL     1      16.716  14.072  30.115  1.00  0.00     0.210 HD
ENDBRANCH  11  14
BRANCH  12  16
HETATM   16  O6  UNL     1      16.380  11.879  28.981  1.00  0.00    -0.390 OA
ATOM     17  H6  UNL     1      16.553  11.039  28.574  1.00  0.00     0.210 HD
ENDBRANCH  12  16
BRANCH  13  18
HETATM   18  O7  UNL     1      14.004  11.287  28.209  1.00  0.00    -0.388 OA
ATOM     19  H7  UNL     1      14.553  10.635  28.629  1.00  0.00     0.210 HD
ENDBRANCH  13  18
ENDBRANCH   7   8
ENDBRANCH   2   7
BRANCH   1  20
HETATM   20  O2  UNL     1      17.154  12.023  24.035  1.00  0.00    -0.348 OA
BRANCH  20  21
HETATM   21  C4  UNL     1      18.219  12.566  24.704  1.00  0.00     0.285 C 
HETATM   22  O1  UNL     1      18.039  13.886  25.070  1.00  0.00    -0.344 OA
HETATM   23  C2  UNL     1      18.928  14.389  25.953  1.00  0.00     0.106 C 
HETATM   24  C1  UNL     1      18.321  15.585  26.667  1.00  0.00     0.051 C 
HETATM   25  C3  UNL     1      20.108  14.950  25.143  1.00  0.00     0.051 C 
HETATM   26  C19 UNL     1      19.520  13.425  26.929  1.00  0.00     0.290 C 
HETATM   27  O13 UNL     1      19.687  12.153  26.465  1.00  0.00    -0.354 OA
HETATM   28  C18 UNL     1      18.477  11.715  25.931  1.00  0.00     0.232 C 
BRANCH  26  29
HETATM   29  O14 UNL     1      20.780  13.869  27.392  1.00  0.00    -0.368 OA
ATOM     30  H14 UNL     1      21.007  14.715  27.022  1.00  0.00     0.212 HD
ENDBRANCH  26  29
ENDBRANCH  20  21
ENDBRANCH   1  20
BRANCH   6  31
HETATM   31  O12 UNL     1      16.601  13.625  21.607  1.00  0.00    -0.388 OA
ATOM     32  H12 UNL     1      16.225  14.166  20.922  1.00  0.00     0.210 HD
ENDBRANCH   6  31
BRANCH   5  33
HETATM   33  O9  UNL     1      14.624  11.768  20.721  1.00  0.00    -0.335 OA
BRANCH  33  34
HETATM   34  C14 UNL     1      14.366  10.511  20.175  1.00  0.00     0.341 C 
BRANCH  34  35
HETATM   35  O10 UNL     1      13.211  10.492  19.427  1.00  0.00    -0.365 OA
BRANCH  35  36
HETATM   36  C15 UNL     1      12.053  10.515  20.166  1.00  0.00     0.196 C 
BRANCH  36  37
HETATM   37  C16 UNL     1      10.958   9.886  19.301  1.00  0.00     0.190 C 
BRANCH  37  38
HETATM   38  O11 UNL     1       9.789   9.919  20.039  1.00  0.00    -0.399 OA
ATOM     39  H11 UNL     1       9.083  10.117  19.435  1.00  0.00     0.209 HD
ENDBRANCH  37  38
ENDBRANCH  36  37
ENDBRANCH  35  36
ENDBRANCH  34  35
ENDBRANCH  33  34
ENDBRANCH   5  33
TORSDOF 15
ENDMDL
