MODEL 1
REMARK VINA RESULT: -7.729481674      0.000      0.000
REMARK  18 active torsions:
REMARK  status: ('A' for Active; 'I' for Inactive)
REMARK    1  A    between atoms: C2_2  and  N1_3 
REMARK    2  A    between atoms: C2_2  and  C3_7 
REMARK    3  A    between atoms: C3_7  and  O1_8 
REMARK    4  A    between atoms: O1_8  and  N2_9 
REMARK    5  A    between atoms: C4_11  and  N3_12 
REMARK    6  A    between atoms: C4_11  and  O6_33 
REMARK       I    between atoms: N3_12  and  C5_14 
REMARK       I    between atoms: C5_14  and  N4_16 
REMARK    7  A    between atoms: N4_16  and  N5_17 
REMARK    8  A    between atoms: N4_16  and  C6_21 
REMARK    9  A    between atoms: N5_17  and  O3_19 
REMARK   10  A    between atoms: C6_21  and  O4_22 
REMARK   11  A    between atoms: C6_21  and  N6_24 
REMARK   12  A    between atoms: C11_29  and  C12_30 
REMARK   13  A    between atoms: O6_33  and  C13_34 
REMARK   14  A    between atoms: C13_34  and  O7_35 
REMARK   15  A    between atoms: O7_35  and  C14_36 
REMARK   16  A    between atoms: C14_36  and  C15_38 
REMARK   17  A    between atoms: C15_38  and  O9_39 
REMARK   18  A    between atoms: C15_38  and  C16_41 
ROOT
HETATM    1  N2  UNL     1      13.607   9.432  22.647  1.00  0.00    -0.230 N 
ATOM      2  H2  UNL     1      13.576   8.569  22.103  1.00  0.00     0.198 HD
HETATM    3  C4  UNL     1      14.054  10.505  22.081  1.00  0.00     0.249 C 
ENDROOT
BRANCH   3   4
HETATM    4  N3  UNL     1      14.096  11.698  22.838  1.00  0.00    -0.271 N 
HETATM    5  C5  UNL     1      15.251  12.029  23.632  1.00  0.00     0.353 C 
HETATM    6  O2  UNL     1      16.244  11.258  23.666  1.00  0.00    -0.244 OA
HETATM    7  N4  UNL     1      15.295  13.228  24.392  1.00  0.00    -0.147 N 
ATOM      8  H3  UNL     1      13.298  12.333  22.821  1.00  0.00     0.174 HD
BRANCH   7   9
HETATM    9  N5  UNL     1      14.192  14.049  24.324  1.00  0.00    -0.196 N 
ATOM     10  H5  UNL     1      14.181  14.794  23.627  1.00  0.00     0.216 HD
BRANCH   9  11
HETATM   11  O3  UNL     1      13.198  13.923  25.084  1.00  0.00    -0.274 OA
ATOM     12  H3  UNL     1      12.326  14.214  24.846  1.00  0.00     0.246 HD
ENDBRANCH   9  11
ENDBRANCH   7   9
BRANCH   7  13
HETATM   13  C6  UNL     1      16.423  13.522  25.165  1.00  0.00     0.247 C 
BRANCH  13  14
HETATM   14  O4  UNL     1      17.574  13.582  24.522  1.00  0.00    -0.331 OA
ATOM     15  H4  UNL     1      17.712  14.348  23.976  1.00  0.00     0.221 HD
ENDBRANCH  13  14
BRANCH  13  16
HETATM   16  N6  UNL     1      16.550  13.768  26.541  1.00  0.00    -0.333 N 
HETATM   17  C7  UNL     1      17.141  14.891  27.168  1.00  0.00     0.127 C 
HETATM   18  C8  UNL     1      18.225  14.502  28.170  1.00  0.00     0.020 C 
HETATM   19  C9  UNL     1      17.719  13.452  29.133  1.00  0.00     0.004 C 
HETATM   20  C10 UNL     1      17.073  12.330  28.394  1.00  0.00     0.035 C 
HETATM   21  C11 UNL     1      16.004  12.738  27.449  1.00  0.00     0.177 C 
BRANCH  21  22
HETATM   22  C12 UNL     1      14.792  13.187  28.142  1.00  0.00     0.254 C 
HETATM   23  N7  UNL     1      14.053  12.281  28.986  1.00  0.00    -0.060 NA
HETATM   24  O5  UNL     1      14.299  14.345  28.073  1.00  0.00    -0.275 OA
ENDBRANCH  21  22
ENDBRANCH  13  16
ENDBRANCH   7  13
ENDBRANCH   3   4
BRANCH   3  25
HETATM   25  O6  UNL     1      14.459  10.406  20.771  1.00  0.00    -0.294 OA
BRANCH  25  26
HETATM   26  C13 UNL     1      13.518  10.497  19.695  1.00  0.00     0.358 C 
BRANCH  26  27
HETATM   27  O7  UNL     1      12.351  11.157  20.084  1.00  0.00    -0.293 OA
BRANCH  27  28
HETATM   28  C14 UNL     1      11.138  10.540  19.819  1.00  0.00     0.300 C 
HETATM   29  O8  UNL     1      10.231  10.529  20.715  1.00  0.00    -0.262 OA
BRANCH  28  30
HETATM   30  C15 UNL     1      10.884   9.886  18.487  1.00  0.00     0.319 C 
BRANCH  30  31
HETATM   31  O9  UNL     1      11.316   8.578  18.547  1.00  0.00    -0.376 OA
ATOM     32  H9  UNL     1      11.439   8.257  17.662  1.00  0.00     0.211 HD
ENDBRANCH  30  31
BRANCH  30  33
HETATM   33  C16 UNL     1       9.441  10.006  18.227  1.00  0.00     0.213 C 
HETATM   34  O10 UNL     1       8.981  11.050  17.722  1.00  0.00    -0.646 OA
HETATM   35  O11 UNL     1       8.600   8.967  18.538  1.00  0.00    -0.646 OA
ENDBRANCH  30  33
ENDBRANCH  28  30
ENDBRANCH  27  28
ENDBRANCH  26  27
ENDBRANCH  25  26
ENDBRANCH   3  25
BRANCH   1  36
HETATM   36  O1  UNL     1      13.175   9.406  23.944  1.00  0.00    -0.275 OA
BRANCH  36  37
HETATM   37  C3  UNL     1      14.061   8.896  24.918  1.00  0.00     0.233 C 
BRANCH  37  38
HETATM   38  C2  UNL     1      14.019   9.741  26.187  1.00  0.00     0.205 C 
HETATM   39  C1  UNL     1      13.479   8.838  27.283  1.00  0.00     0.042 C 
BRANCH  38  40
HETATM   40  N1  UNL     1      13.231  10.920  26.008  1.00  0.00    -0.073 N 
ATOM     41  H13 UNL     1      12.255  10.685  25.830  1.00  0.00     0.274 HD
ATOM     42  H12 UNL     1      13.121  11.426  26.887  1.00  0.00     0.274 HD
ATOM     43  H11 UNL     1      13.600  11.530  25.278  1.00  0.00     0.274 HD
ENDBRANCH  38  40
ENDBRANCH  37  38
ENDBRANCH  36  37
ENDBRANCH   1  36
TORSDOF 18
ENDMDL
MODEL 2
REMARK VINA RESULT: -7.681566546      3.191      6.265
REMARK  18 active torsions:
REMARK  status: ('A' for Active; 'I' for Inactive)
REMARK    1  A    between atoms: C2_2  and  N1_3 
REMARK    2  A    between atoms: C2_2  and  C3_7 
REMARK    3  A    between atoms: C3_7  and  O1_8 
REMARK    4  A    between atoms: O1_8  and  N2_9 
REMARK    5  A    between atoms: C4_11  and  N3_12 
REMARK    6  A    between atoms: C4_11  and  O6_33 
REMARK       I    between atoms: N3_12  and  C5_14 
REMARK       I    between atoms: C5_14  and  N4_16 
REMARK    7  A    between atoms: N4_16  and  N5_17 
REMARK    8  A    between atoms: N4_16  and  C6_21 
REMARK    9  A    between atoms: N5_17  and  O3_19 
REMARK   10  A    between atoms: C6_21  and  O4_22 
REMARK   11  A    between atoms: C6_21  and  N6_24 
REMARK   12  A    between atoms: C11_29  and  C12_30 
REMARK   13  A    between atoms: O6_33  and  C13_34 
REMARK   14  A    between atoms: C13_34  and  O7_35 
REMARK   15  A    between atoms: O7_35  and  C14_36 
REMARK   16  A    between atoms: C14_36  and  C15_38 
REMARK   17  A    between atoms: C15_38  and  O9_39 
REMARK   18  A    between atoms: C15_38  and  C16_41 
ROOT
HETATM    1  N2  UNL     1      14.600  10.332  21.032  1.00  0.00    -0.230 N 
ATOM      2  H2  UNL     1      15.068  10.041  20.173  1.00  0.00     0.198 HD
HETATM    3  C4  UNL     1      15.089   9.947  22.166  1.00  0.00     0.249 C 
ENDROOT
BRANCH   3   4
HETATM    4  N3  UNL     1      14.438  10.350  23.353  1.00  0.00    -0.271 N 
HETATM    5  C5  UNL     1      14.784  11.588  24.002  1.00  0.00     0.353 C 
HETATM    6  O2  UNL     1      15.675  12.333  23.521  1.00  0.00    -0.244 OA
HETATM    7  N4  UNL     1      14.129  11.994  25.195  1.00  0.00    -0.147 N 
ATOM      8  H3  UNL     1      13.713   9.756  23.756  1.00  0.00     0.174 HD
BRANCH   7   9
HETATM    9  N5  UNL     1      13.155  11.156  25.688  1.00  0.00    -0.196 N 
ATOM     10  H5  UNL     1      12.198  11.506  25.754  1.00  0.00     0.216 HD
BRANCH   9  11
HETATM   11  O3  UNL     1      13.391   9.978  26.060  1.00  0.00    -0.274 OA
ATOM     12  H3  UNL     1      13.916   9.774  26.824  1.00  0.00     0.246 HD
ENDBRANCH   9  11
ENDBRANCH   7   9
BRANCH   7  13
HETATM   13  C6  UNL     1      14.490  13.196  25.814  1.00  0.00     0.247 C 
BRANCH  13  14
HETATM   14  O4  UNL     1      13.672  14.216  25.633  1.00  0.00    -0.331 OA
ATOM     15  H4  UNL     1      13.733  14.663  24.797  1.00  0.00     0.221 HD
ENDBRANCH  13  14
BRANCH  13  16
HETATM   16  N6  UNL     1      15.600  13.516  26.611  1.00  0.00    -0.333 N 
HETATM   17  C7  UNL     1      16.731  14.288  26.250  1.00  0.00     0.127 C 
HETATM   18  C8  UNL     1      18.047  13.553  26.496  1.00  0.00     0.020 C 
HETATM   19  C9  UNL     1      18.101  12.998  27.901  1.00  0.00     0.004 C 
HETATM   20  C10 UNL     1      16.855  12.240  28.214  1.00  0.00     0.035 C 
HETATM   21  C11 UNL     1      15.595  12.991  27.992  1.00  0.00     0.177 C 
BRANCH  21  22
HETATM   22  C12 UNL     1      15.392  14.045  28.992  1.00  0.00     0.254 C 
HETATM   23  N7  UNL     1      14.516  15.157  28.717  1.00  0.00    -0.060 NA
HETATM   24  O5  UNL     1      15.932  14.084  30.130  1.00  0.00    -0.275 OA
ENDBRANCH  21  22
ENDBRANCH  13  16
ENDBRANCH   7  13
ENDBRANCH   3   4
BRANCH   3  25
HETATM   25  O6  UNL     1      16.219   9.163  22.131  1.00  0.00    -0.294 OA
BRANCH  25  26
HETATM   26  C13 UNL     1      17.150   9.158  23.220  1.00  0.00     0.358 C 
BRANCH  26  27
HETATM   27  O7  UNL     1      18.360   8.559  22.862  1.00  0.00    -0.293 OA
BRANCH  27  28
HETATM   28  C14 UNL     1      18.776   7.454  23.588  1.00  0.00     0.300 C 
HETATM   29  O8  UNL     1      17.907   6.712  24.154  1.00  0.00    -0.262 OA
BRANCH  28  30
HETATM   30  C15 UNL     1      20.239   7.124  23.715  1.00  0.00     0.319 C 
BRANCH  30  31
HETATM   31  O9  UNL     1      20.635   6.431  22.590  1.00  0.00    -0.376 OA
ATOM     32  H9  UNL     1      21.437   5.961  22.789  1.00  0.00     0.211 HD
ENDBRANCH  30  31
BRANCH  30  33
HETATM   33  C16 UNL     1      20.947   8.401  23.886  1.00  0.00     0.213 C 
HETATM   34  O10 UNL     1      20.739   9.102  24.897  1.00  0.00    -0.646 OA
HETATM   35  O11 UNL     1      21.839   8.824  22.932  1.00  0.00    -0.646 OA
ENDBRANCH  30  33
ENDBRANCH  28  30
ENDBRANCH  27  28
ENDBRANCH  26  27
ENDBRANCH  25  26
ENDBRANCH   3  25
BRANCH   1  36
HETATM   36  O1  UNL     1      13.482  11.113  20.939  1.00  0.00    -0.275 OA
BRANCH  36  37
HETATM   37  C3  UNL     1      12.228  10.465  20.971  1.00  0.00     0.233 C 
BRANCH  37  38
HETATM   38  C2  UNL     1      11.635  10.355  19.570  1.00  0.00     0.205 C 
HETATM   39  C1  UNL     1      10.130  10.485  19.731  1.00  0.00     0.042 C 
BRANCH  38  40
HETATM   40  N1  UNL     1      12.017   9.134  18.932  1.00  0.00    -0.073 N 
ATOM     41  H13 UNL     1      12.691   8.619  19.498  1.00  0.00     0.274 HD
ATOM     42  H12 UNL     1      11.250   8.461  18.939  1.00  0.00     0.274 HD
ATOM     43  H11 UNL     1      12.368   9.279  17.985  1.00  0.00     0.274 HD
ENDBRANCH  38  40
ENDBRANCH  37  38
ENDBRANCH  36  37
ENDBRANCH   1  36
TORSDOF 18
ENDMDL
MODEL 3
REMARK VINA RESULT: -7.652545455      3.150      6.557
REMARK  18 active torsions:
REMARK  status: ('A' for Active; 'I' for Inactive)
REMARK    1  A    between atoms: C2_2  and  N1_3 
REMARK    2  A    between atoms: C2_2  and  C3_7 
REMARK    3  A    between atoms: C3_7  and  O1_8 
REMARK    4  A    between atoms: O1_8  and  N2_9 
REMARK    5  A    between atoms: C4_11  and  N3_12 
REMARK    6  A    between atoms: C4_11  and  O6_33 
REMARK       I    between atoms: N3_12  and  C5_14 
REMARK       I    between atoms: C5_14  and  N4_16 
REMARK    7  A    between atoms: N4_16  and  N5_17 
REMARK    8  A    between atoms: N4_16  and  C6_21 
REMARK    9  A    between atoms: N5_17  and  O3_19 
REMARK   10  A    between atoms: C6_21  and  O4_22 
REMARK   11  A    between atoms: C6_21  and  N6_24 
REMARK   12  A    between atoms: C11_29  and  C12_30 
REMARK   13  A    between atoms: O6_33  and  C13_34 
REMARK   14  A    between atoms: C13_34  and  O7_35 
REMARK   15  A    between atoms: O7_35  and  C14_36 
REMARK   16  A    between atoms: C14_36  and  C15_38 
REMARK   17  A    between atoms: C15_38  and  O9_39 
REMARK   18  A    between atoms: C15_38  and  C16_41 
ROOT
HETATM    1  N2  UNL     1      15.879   9.449  22.265  1.00  0.00    -0.230 N 
ATOM      2  H2  UNL     1      15.553   8.516  22.011  1.00  0.00     0.198 HD
HETATM    3  C4  UNL     1      16.820   9.559  23.145  1.00  0.00     0.249 C 
ENDROOT
BRANCH   3   4
HETATM    4  N3  UNL     1      17.267  10.853  23.495  1.00  0.00    -0.271 N 
HETATM    5  C5  UNL     1      16.582  11.627  24.498  1.00  0.00     0.353 C 
HETATM    6  O2  UNL     1      15.569  11.162  25.080  1.00  0.00    -0.244 OA
HETATM    7  N4  UNL     1      17.032  12.927  24.850  1.00  0.00    -0.147 N 
ATOM      8  H3  UNL     1      18.087  11.245  23.031  1.00  0.00     0.174 HD
BRANCH   7   9
HETATM    9  N5  UNL     1      18.147  13.399  24.196  1.00  0.00    -0.196 N 
ATOM     10  H5  UNL     1      19.028  13.451  24.709  1.00  0.00     0.216 HD
BRANCH   9  11
HETATM   11  O3  UNL     1      18.129  13.770  22.995  1.00  0.00    -0.274 OA
ATOM     12  H3  UNL     1      17.552  13.387  22.345  1.00  0.00     0.246 HD
ENDBRANCH   9  11
ENDBRANCH   7   9
BRANCH   7  13
HETATM   13  C6  UNL     1      16.342  13.664  25.819  1.00  0.00     0.247 C 
BRANCH  13  14
HETATM   14  O4  UNL     1      15.092  13.980  25.534  1.00  0.00    -0.331 OA
ATOM     15  H4  UNL     1      14.437  13.318  25.721  1.00  0.00     0.221 HD
ENDBRANCH  13  14
BRANCH  13  16
HETATM   16  N6  UNL     1      16.756  14.140  27.073  1.00  0.00    -0.333 N 
HETATM   17  C7  UNL     1      17.635  15.217  27.342  1.00  0.00     0.127 C 
HETATM   18  C8  UNL     1      18.799  14.814  28.243  1.00  0.00     0.020 C 
HETATM   19  C9  UNL     1      18.304  14.098  29.479  1.00  0.00     0.004 C 
HETATM   20  C10 UNL     1      17.351  13.011  29.109  1.00  0.00     0.035 C 
HETATM   21  C11 UNL     1      16.216  13.441  28.257  1.00  0.00     0.177 C 
BRANCH  21  22
HETATM   22  C12 UNL     1      15.244  14.255  28.994  1.00  0.00     0.254 C 
HETATM   23  N7  UNL     1      14.390  15.185  28.298  1.00  0.00    -0.060 NA
HETATM   24  O5  UNL     1      15.067  14.228  30.241  1.00  0.00    -0.275 OA
ENDBRANCH  21  22
ENDBRANCH  13  16
ENDBRANCH   7  13
ENDBRANCH   3   4
BRANCH   3  25
HETATM   25  O6  UNL     1      17.321   8.396  23.682  1.00  0.00    -0.294 OA
BRANCH  25  26
HETATM   26  C13 UNL     1      18.680   8.003  23.460  1.00  0.00     0.358 C 
BRANCH  26  27
HETATM   27  O7  UNL     1      19.385   8.967  22.736  1.00  0.00    -0.293 OA
BRANCH  27  28
HETATM   28  C14 UNL     1      20.660   9.297  23.167  1.00  0.00     0.300 C 
HETATM   29  O8  UNL     1      21.585   8.421  23.117  1.00  0.00    -0.262 OA
BRANCH  28  30
HETATM   30  C15 UNL     1      20.961  10.675  23.693  1.00  0.00     0.319 C 
BRANCH  30  31
HETATM   31  O9  UNL     1      20.101  11.573  23.098  1.00  0.00    -0.376 OA
ATOM     32  H9  UNL     1      20.556  12.399  22.981  1.00  0.00     0.211 HD
ENDBRANCH  30  31
BRANCH  30  33
HETATM   33  C16 UNL     1      20.809  10.611  25.154  1.00  0.00     0.213 C 
HETATM   34  O10 UNL     1      21.769  10.259  25.869  1.00  0.00    -0.646 OA
HETATM   35  O11 UNL     1      19.609  10.941  25.734  1.00  0.00    -0.646 OA
ENDBRANCH  30  33
ENDBRANCH  28  30
ENDBRANCH  27  28
ENDBRANCH  26  27
ENDBRANCH  25  26
ENDBRANCH   3  25
BRANCH   1  36
HETATM   36  O1  UNL     1      15.303  10.532  21.662  1.00  0.00    -0.275 OA
BRANCH  36  37
HETATM   37  C3  UNL     1      13.893  10.613  21.672  1.00  0.00     0.233 C 
BRANCH  37  38
HETATM   38  C2  UNL     1      13.348  10.797  20.259  1.00  0.00     0.205 C 
HETATM   39  C1  UNL     1      11.846  10.583  20.350  1.00  0.00     0.042 C 
BRANCH  38  40
HETATM   40  N1  UNL     1      13.975   9.905  19.334  1.00  0.00    -0.073 N 
ATOM     41  H13 UNL     1      13.726   8.936  19.532  1.00  0.00     0.274 HD
ATOM     42  H12 UNL     1      13.565   9.993  18.404  1.00  0.00     0.274 HD
ATOM     43  H11 UNL     1      14.988  10.024  19.301  1.00  0.00     0.274 HD
ENDBRANCH  38  40
ENDBRANCH  37  38
ENDBRANCH  36  37
ENDBRANCH   1  36
TORSDOF 18
ENDMDL
MODEL 4
REMARK VINA RESULT: -7.519878548      3.588      7.769
REMARK  18 active torsions:
REMARK  status: ('A' for Active; 'I' for Inactive)
REMARK    1  A    between atoms: C2_2  and  N1_3 
REMARK    2  A    between atoms: C2_2  and  C3_7 
REMARK    3  A    between atoms: C3_7  and  O1_8 
REMARK    4  A    between atoms: O1_8  and  N2_9 
REMARK    5  A    between atoms: C4_11  and  N3_12 
REMARK    6  A    between atoms: C4_11  and  O6_33 
REMARK       I    between atoms: N3_12  and  C5_14 
REMARK       I    between atoms: C5_14  and  N4_16 
REMARK    7  A    between atoms: N4_16  and  N5_17 
REMARK    8  A    between atoms: N4_16  and  C6_21 
REMARK    9  A    between atoms: N5_17  and  O3_19 
REMARK   10  A    between atoms: C6_21  and  O4_22 
REMARK   11  A    between atoms: C6_21  and  N6_24 
REMARK   12  A    between atoms: C11_29  and  C12_30 
REMARK   13  A    between atoms: O6_33  and  C13_34 
REMARK   14  A    between atoms: C13_34  and  O7_35 
REMARK   15  A    between atoms: O7_35  and  C14_36 
REMARK   16  A    between atoms: C14_36  and  C15_38 
REMARK   17  A    between atoms: C15_38  and  O9_39 
REMARK   18  A    between atoms: C15_38  and  C16_41 
ROOT
HETATM    1  N2  UNL     1      13.938  12.243  23.494  1.00  0.00    -0.230 N 
ATOM      2  H2  UNL     1      12.953  11.976  23.514  1.00  0.00     0.198 HD
HETATM    3  C4  UNL     1      14.435  12.855  24.519  1.00  0.00     0.249 C 
ENDROOT
BRANCH   3   4
HETATM    4  N3  UNL     1      15.799  13.224  24.488  1.00  0.00    -0.271 N 
HETATM    5  C5  UNL     1      16.834  12.253  24.733  1.00  0.00     0.353 C 
HETATM    6  O2  UNL     1      16.539  11.056  24.981  1.00  0.00    -0.244 OA
HETATM    7  N4  UNL     1      18.204  12.623  24.701  1.00  0.00    -0.147 N 
ATOM      8  H3  UNL     1      16.054  14.192  24.289  1.00  0.00     0.174 HD
BRANCH   7   9
HETATM    9  N5  UNL     1      18.487  13.941  24.421  1.00  0.00    -0.196 N 
ATOM     10  H5  UNL     1      18.845  14.176  23.495  1.00  0.00     0.216 HD
BRANCH   9  11
HETATM   11  O3  UNL     1      18.325  14.868  25.255  1.00  0.00    -0.274 OA
ATOM     12  H3  UNL     1      17.767  15.618  25.090  1.00  0.00     0.246 HD
ENDBRANCH   9  11
ENDBRANCH   7   9
BRANCH   7  13
HETATM   13  C6  UNL     1      19.191  11.664  24.954  1.00  0.00     0.247 C 
BRANCH  13  14
HETATM   14  O4  UNL     1      19.308  11.262  26.206  1.00  0.00    -0.331 OA
ATOM     15  H4  UNL     1      18.619  10.695  26.533  1.00  0.00     0.221 HD
ENDBRANCH  13  14
BRANCH  13  16
HETATM   16  N6  UNL     1      20.103  11.041  24.089  1.00  0.00    -0.333 N 
HETATM   17  C7  UNL     1      21.022  11.660  23.208  1.00  0.00     0.127 C 
HETATM   18  C8  UNL     1      20.879  11.167  21.770  1.00  0.00     0.020 C 
HETATM   19  C9  UNL     1      20.890   9.657  21.712  1.00  0.00     0.004 C 
HETATM   20  C10 UNL     1      19.930   9.087  22.701  1.00  0.00     0.035 C 
HETATM   21  C11 UNL     1      20.113   9.563  24.094  1.00  0.00     0.177 C 
BRANCH  21  22
HETATM   22  C12 UNL     1      21.323   9.013  24.715  1.00  0.00     0.254 C 
HETATM   23  N7  UNL     1      21.999   9.732  25.765  1.00  0.00    -0.060 NA
HETATM   24  O5  UNL     1      21.864   7.916  24.411  1.00  0.00    -0.275 OA
ENDBRANCH  21  22
ENDBRANCH  13  16
ENDBRANCH   7  13
ENDBRANCH   3   4
BRANCH   3  25
HETATM   25  O6  UNL     1      13.590  13.105  25.575  1.00  0.00    -0.294 OA
BRANCH  25  26
HETATM   26  C13 UNL     1      13.957  12.757  26.916  1.00  0.00     0.358 C 
BRANCH  26  27
HETATM   27  O7  UNL     1      14.188  13.891  27.698  1.00  0.00    -0.293 OA
BRANCH  27  28
HETATM   28  C14 UNL     1      15.485  14.376  27.768  1.00  0.00     0.300 C 
HETATM   29  O8  UNL     1      15.927  15.119  26.831  1.00  0.00    -0.262 OA
BRANCH  28  30
HETATM   30  C15 UNL     1      16.372  14.034  28.935  1.00  0.00     0.319 C 
BRANCH  30  31
HETATM   31  O9  UNL     1      15.587  13.549  29.960  1.00  0.00    -0.376 OA
ATOM     32  H9  UNL     1      16.037  12.819  30.369  1.00  0.00     0.211 HD
ENDBRANCH  30  31
BRANCH  30  33
HETATM   33  C16 UNL     1      17.354  13.055  28.447  1.00  0.00     0.213 C 
HETATM   34  O10 UNL     1      18.479  13.435  28.063  1.00  0.00    -0.646 OA
HETATM   35  O11 UNL     1      17.034  11.721  28.414  1.00  0.00    -0.646 OA
ENDBRANCH  30  33
ENDBRANCH  28  30
ENDBRANCH  27  28
ENDBRANCH  26  27
ENDBRANCH  25  26
ENDBRANCH   3  25
BRANCH   1  36
HETATM   36  O1  UNL     1      14.678  11.939  22.386  1.00  0.00    -0.275 OA
BRANCH  36  37
HETATM   37  C3  UNL     1      14.525  10.650  21.831  1.00  0.00     0.233 C 
BRANCH  37  38
HETATM   38  C2  UNL     1      13.948  10.729  20.421  1.00  0.00     0.205 C 
HETATM   39  C1  UNL     1      12.438  10.782  20.581  1.00  0.00     0.042 C 
BRANCH  38  40
HETATM   40  N1  UNL     1      14.378   9.629  19.615  1.00  0.00    -0.073 N 
ATOM     41  H13 UNL     1      14.278   8.746  20.116  1.00  0.00     0.274 HD
ATOM     42  H12 UNL     1      13.725   9.458  18.850  1.00  0.00     0.274 HD
ATOM     43  H11 UNL     1      15.329   9.747  19.266  1.00  0.00     0.274 HD
ENDBRANCH  38  40
ENDBRANCH  37  38
ENDBRANCH  36  37
ENDBRANCH   1  36
TORSDOF 18
ENDMDL
MODEL 5
REMARK VINA RESULT: -7.406634778      3.407      6.663
REMARK  18 active torsions:
REMARK  status: ('A' for Active; 'I' for Inactive)
REMARK    1  A    between atoms: C2_2  and  N1_3 
REMARK    2  A    between atoms: C2_2  and  C3_7 
REMARK    3  A    between atoms: C3_7  and  O1_8 
REMARK    4  A    between atoms: O1_8  and  N2_9 
REMARK    5  A    between atoms: C4_11  and  N3_12 
REMARK    6  A    between atoms: C4_11  and  O6_33 
REMARK       I    between atoms: N3_12  and  C5_14 
REMARK       I    between atoms: C5_14  and  N4_16 
REMARK    7  A    between atoms: N4_16  and  N5_17 
REMARK    8  A    between atoms: N4_16  and  C6_21 
REMARK    9  A    between atoms: N5_17  and  O3_19 
REMARK   10  A    between atoms: C6_21  and  O4_22 
REMARK   11  A    between atoms: C6_21  and  N6_24 
REMARK   12  A    between atoms: C11_29  and  C12_30 
REMARK   13  A    between atoms: O6_33  and  C13_34 
REMARK   14  A    between atoms: C13_34  and  O7_35 
REMARK   15  A    between atoms: O7_35  and  C14_36 
REMARK   16  A    between atoms: C14_36  and  C15_38 
REMARK   17  A    between atoms: C15_38  and  O9_39 
REMARK   18  A    between atoms: C15_38  and  C16_41 
ROOT
HETATM    1  N2  UNL     1      14.575   9.678  20.731  1.00  0.00    -0.230 N 
ATOM      2  H2  UNL     1      14.637   8.738  20.339  1.00  0.00     0.198 HD
HETATM    3  C4  UNL     1      15.309   9.974  21.753  1.00  0.00     0.249 C 
ENDROOT
BRANCH   3   4
HETATM    4  N3  UNL     1      15.219  11.276  22.294  1.00  0.00    -0.271 N 
HETATM    5  C5  UNL     1      14.739  11.490  23.634  1.00  0.00     0.353 C 
HETATM    6  O2  UNL     1      14.389  10.515  24.349  1.00  0.00    -0.244 OA
HETATM    7  N4  UNL     1      14.649  12.798  24.178  1.00  0.00    -0.147 N 
ATOM      8  H3  UNL     1      15.499  12.077  21.726  1.00  0.00     0.174 HD
BRANCH   7   9
HETATM    9  N5  UNL     1      15.047  13.838  23.369  1.00  0.00    -0.196 N 
ATOM     10  H5  UNL     1      14.413  14.628  23.243  1.00  0.00     0.216 HD
BRANCH   9  11
HETATM   11  O3  UNL     1      16.156  13.858  22.777  1.00  0.00    -0.274 OA
ATOM     12  H3  UNL     1      16.392  13.233  22.102  1.00  0.00     0.246 HD
ENDBRANCH   9  11
ENDBRANCH   7   9
BRANCH   7  13
HETATM   13  C6  UNL     1      14.168  12.980  25.479  1.00  0.00     0.247 C 
BRANCH  13  14
HETATM   14  O4  UNL     1      12.856  13.052  25.613  1.00  0.00    -0.331 OA
ATOM     15  H4  UNL     1      12.522  13.024  26.502  1.00  0.00     0.221 HD
ENDBRANCH  13  14
BRANCH  13  16
HETATM   16  N6  UNL     1      14.852  13.106  26.698  1.00  0.00    -0.333 N 
HETATM   17  C7  UNL     1      15.105  12.094  27.656  1.00  0.00     0.127 C 
HETATM   18  C8  UNL     1      14.622  12.474  29.054  1.00  0.00     0.020 C 
HETATM   19  C9  UNL     1      15.133  13.841  29.449  1.00  0.00     0.004 C 
HETATM   20  C10 UNL     1      14.867  14.833  28.368  1.00  0.00     0.035 C 
HETATM   21  C11 UNL     1      15.374  14.448  27.028  1.00  0.00     0.177 C 
BRANCH  21  22
HETATM   22  C12 UNL     1      16.836  14.517  26.946  1.00  0.00     0.254 C 
HETATM   23  N7  UNL     1      17.526  14.054  25.768  1.00  0.00    -0.060 NA
HETATM   24  O5  UNL     1      17.597  14.963  27.846  1.00  0.00    -0.275 OA
ENDBRANCH  21  22
ENDBRANCH  13  16
ENDBRANCH   7  13
ENDBRANCH   3   4
BRANCH   3  25
HETATM   25  O6  UNL     1      16.132   8.988  22.245  1.00  0.00    -0.294 OA
BRANCH  25  26
HETATM   26  C13 UNL     1      17.240   9.304  23.096  1.00  0.00     0.358 C 
BRANCH  26  27
HETATM   27  O7  UNL     1      18.017   8.176  23.373  1.00  0.00    -0.293 OA
BRANCH  27  28
HETATM   28  C14 UNL     1      19.382   8.259  23.150  1.00  0.00     0.300 C 
HETATM   29  O8  UNL     1      19.856   9.269  22.532  1.00  0.00    -0.262 OA
BRANCH  28  30
HETATM   30  C15 UNL     1      20.307   7.172  23.630  1.00  0.00     0.319 C 
BRANCH  30  31
HETATM   31  O9  UNL     1      20.525   6.289  22.594  1.00  0.00    -0.376 OA
ATOM     32  H9  UNL     1      21.101   5.598  22.900  1.00  0.00     0.211 HD
ENDBRANCH  30  31
BRANCH  30  33
HETATM   33  C16 UNL     1      21.535   7.836  24.092  1.00  0.00     0.213 C 
HETATM   34  O10 UNL     1      21.546   8.446  25.180  1.00  0.00    -0.646 OA
HETATM   35  O11 UNL     1      22.672   7.785  23.324  1.00  0.00    -0.646 OA
ENDBRANCH  30  33
ENDBRANCH  28  30
ENDBRANCH  27  28
ENDBRANCH  26  27
ENDBRANCH  25  26
ENDBRANCH   3  25
BRANCH   1  36
HETATM   36  O1  UNL     1      13.719  10.574  20.154  1.00  0.00    -0.275 OA
BRANCH  36  37
HETATM   37  C3  UNL     1      12.350  10.479  20.489  1.00  0.00     0.233 C 
BRANCH  37  38
HETATM   38  C2  UNL     1      11.507  10.181  19.253  1.00  0.00     0.205 C 
HETATM   39  C1  UNL     1      10.061  10.419  19.656  1.00  0.00     0.042 C 
BRANCH  38  40
HETATM   40  N1  UNL     1      11.732   8.853  18.772  1.00  0.00    -0.073 N 
ATOM     41  H13 UNL     1      11.511   8.161  19.487  1.00  0.00     0.274 HD
ATOM     42  H12 UNL     1      11.036   8.594  18.072  1.00  0.00     0.274 HD
ATOM     43  H11 UNL     1      12.678   8.722  18.414  1.00  0.00     0.274 HD
ENDBRANCH  38  40
ENDBRANCH  37  38
ENDBRANCH  36  37
ENDBRANCH   1  36
TORSDOF 18
ENDMDL
