MODEL 1
REMARK VINA RESULT: -6.891721550      0.000      0.000
REMARK  13 active torsions:
REMARK  status: ('A' for Active; 'I' for Inactive)
REMARK    1  A    between atoms: N1_2  and  C3_4 
REMARK    2  A    between atoms: C4_7  and  N3_8 
REMARK    3  A    between atoms: N5_13  and  C6_14 
REMARK    4  A    between atoms: C6_14  and  C7_15 
REMARK    5  A    between atoms: C7_15  and  O2_16 
REMARK    6  A    between atoms: C8_18  and  N6_19 
REMARK    7  A    between atoms: N9_29  and  C12_30 
REMARK    8  A    between atoms: C12_30  and  C13_31 
REMARK    9  A    between atoms: N11_37  and  C17_38 
REMARK   10  A    between atoms: C17_38  and  C18_39 
REMARK   11  A    between atoms: C18_39  and  O3_40 
REMARK   12  A    between atoms: C18_39  and  C19_42 
REMARK   13  A    between atoms: C19_42  and  O4_43 
ROOT
HETATM    1  C3  UNL     1      19.849  10.795  24.311  1.00  0.00     0.149 A 
HETATM    2  N2  UNL     1      18.632  10.558  23.776  1.00  0.00    -0.172 N 
ATOM      3  H2  UNL     1      18.515   9.804  23.098  1.00  0.00     0.186 HD
HETATM    4  C4  UNL     1      17.576  11.305  24.128  1.00  0.00     0.722 A 
HETATM    5  N7  UNL     1      17.678  12.308  25.012  1.00  0.00    -0.172 N 
ATOM      6  H7  UNL     1      16.849  12.853  25.251  1.00  0.00     0.186 HD
HETATM    7  C9  UNL     1      18.851  12.604  25.585  1.00  0.00     0.155 A 
HETATM    8  C10 UNL     1      19.955  11.834  25.231  1.00  0.00     0.123 A 
HETATM    9  N8  UNL     1      20.973  12.322  25.961  1.00  0.00    -0.346 N 
ATOM     10  H8  UNL     1      21.933  11.979  25.939  1.00  0.00     0.167 HD
HETATM   11  C11 UNL     1      20.528  13.328  26.717  1.00  0.00     0.185 A 
HETATM   12  N9  UNL     1      19.183  13.510  26.483  1.00  0.00    -0.325 N 
ENDROOT
BRANCH  12  13
HETATM   13  C12 UNL     1      18.475  14.584  27.153  1.00  0.00     0.158 C 
BRANCH  13  14
HETATM   14  C13 UNL     1      17.717  14.086  28.325  1.00  0.00     0.119 C 
HETATM   15  C14 UNL     1      18.333  14.516  29.628  1.00  0.00     0.140 C 
HETATM   16  N10 UNL     1      17.386  15.067  30.580  1.00  0.00    -0.418 N 
HETATM   17  C15 UNL     1      16.192  14.321  30.745  1.00  0.00     0.133 C 
ATOM     18  H10 UNL     1      17.566  15.929  31.094  1.00  0.00     0.153 HD
HETATM   19  C16 UNL     1      15.561  13.924  29.435  1.00  0.00     0.141 C 
HETATM   20  N11 UNL     1      16.307  14.222  28.273  1.00  0.00    -0.381 N 
BRANCH  20  21
HETATM   21  C17 UNL     1      15.649  14.356  27.049  1.00  0.00     0.092 C 
BRANCH  21  22
HETATM   22  C18 UNL     1      14.670  13.282  26.737  1.00  0.00     0.179 C 
BRANCH  22  23
HETATM   23  O3  UNL     1      15.324  12.018  26.701  1.00  0.00    -0.388 OA
ATOM     24  H3  UNL     1      15.571  11.753  27.579  1.00  0.00     0.210 HD
ENDBRANCH  22  23
BRANCH  22  25
HETATM   25  C19 UNL     1      14.021  13.401  25.357  1.00  0.00     0.201 C 
BRANCH  25  26
HETATM   26  O4  UNL     1      14.882  13.773  24.367  1.00  0.00    -0.398 OA
ATOM     27  H4  UNL     1      14.455  14.045  23.563  1.00  0.00     0.209 HD
ENDBRANCH  25  26
ENDBRANCH  22  25
ENDBRANCH  21  22
ENDBRANCH  20  21
ENDBRANCH  13  14
ENDBRANCH  12  13
BRANCH   4  28
HETATM   28  N3  UNL     1      16.308  10.993  23.520  1.00  0.00     0.094 N 
HETATM   29  N4  UNL     1      15.432  10.127  23.989  1.00  0.00    -0.214 N 
HETATM   30  C5  UNL     1      14.343  10.076  23.176  1.00  0.00     0.356 A 
ATOM     31  H4  UNL     1      15.553   9.575  24.838  1.00  0.00     0.193 HD
HETATM   32  O1  UNL     1      13.342   9.347  23.357  1.00  0.00    -0.244 OA
HETATM   33  N5  UNL     1      14.598  10.948  22.193  1.00  0.00    -0.127 N 
HETATM   34  C8  UNL     1      15.804  11.515  22.399  1.00  0.00     0.718 A 
BRANCH  33  35
HETATM   35  C6  UNL     1      13.720  11.241  21.084  1.00  0.00     0.178 C 
BRANCH  35  36
HETATM   36  C7  UNL     1      14.115  10.506  19.830  1.00  0.00     0.185 C 
BRANCH  36  37
HETATM   37  O2  UNL     1      13.065   9.785  19.282  1.00  0.00    -0.399 OA
ATOM     38  H2  UNL     1      13.252   8.855  19.224  1.00  0.00     0.209 HD
ENDBRANCH  36  37
ENDBRANCH  35  36
ENDBRANCH  33  35
BRANCH  34  39
HETATM   39  N6  UNL     1      16.375  12.396  21.659  1.00  0.00    -0.232 N 
ATOM     40  H62 UNL     1      17.346  12.704  21.717  1.00  0.00     0.174 HD
ATOM     41  H61 UNL     1      15.931  12.918  20.903  1.00  0.00     0.174 HD
ENDBRANCH  34  39
ENDBRANCH   4  28
BRANCH   1  42
HETATM   42  N1  UNL     1      20.978  10.028  23.953  1.00  0.00    -0.374 N 
HETATM   43  C1  UNL     1      21.699  10.378  22.731  1.00  0.00     0.150 C 
HETATM   44  C2  UNL     1      21.444   8.924  24.746  1.00  0.00     0.150 C 
ENDBRANCH   1  42
TORSDOF 13
ENDMDL
MODEL 2
REMARK VINA RESULT: -6.756288012      2.398      5.473
REMARK  13 active torsions:
REMARK  status: ('A' for Active; 'I' for Inactive)
REMARK    1  A    between atoms: N1_2  and  C3_4 
REMARK    2  A    between atoms: C4_7  and  N3_8 
REMARK    3  A    between atoms: N5_13  and  C6_14 
REMARK    4  A    between atoms: C6_14  and  C7_15 
REMARK    5  A    between atoms: C7_15  and  O2_16 
REMARK    6  A    between atoms: C8_18  and  N6_19 
REMARK    7  A    between atoms: N9_29  and  C12_30 
REMARK    8  A    between atoms: C12_30  and  C13_31 
REMARK    9  A    between atoms: N11_37  and  C17_38 
REMARK   10  A    between atoms: C17_38  and  C18_39 
REMARK   11  A    between atoms: C18_39  and  O3_40 
REMARK   12  A    between atoms: C18_39  and  C19_42 
REMARK   13  A    between atoms: C19_42  and  O4_43 
ROOT
HETATM    1  C3  UNL     1      19.212  14.223  28.545  1.00  0.00     0.149 A 
HETATM    2  N2  UNL     1      19.690  13.482  27.522  1.00  0.00    -0.172 N 
ATOM      3  H2  UNL     1      20.653  13.614  27.209  1.00  0.00     0.186 HD
HETATM    4  C4  UNL     1      18.912  12.575  26.916  1.00  0.00     0.722 A 
HETATM    5  N7  UNL     1      17.641  12.365  27.288  1.00  0.00    -0.172 N 
ATOM      6  H7  UNL     1      17.083  11.666  26.797  1.00  0.00     0.186 HD
HETATM    7  C9  UNL     1      17.095  13.061  28.293  1.00  0.00     0.155 A 
HETATM    8  C10 UNL     1      17.893  14.004  28.934  1.00  0.00     0.123 A 
HETATM    9  N8  UNL     1      17.116  14.524  29.899  1.00  0.00    -0.346 N 
ATOM     10  H8  UNL     1      17.398  15.250  30.558  1.00  0.00     0.167 HD
HETATM   11  C11 UNL     1      15.916  13.941  29.860  1.00  0.00     0.185 A 
HETATM   12  N9  UNL     1      15.898  13.013  28.843  1.00  0.00    -0.325 N 
ENDROOT
BRANCH  12  13
HETATM   13  C12 UNL     1      14.680  12.276  28.562  1.00  0.00     0.158 C 
BRANCH  13  14
HETATM   14  C13 UNL     1      14.067  12.706  27.283  1.00  0.00     0.119 C 
HETATM   15  C14 UNL     1      14.608  14.026  26.807  1.00  0.00     0.140 C 
HETATM   16  N10 UNL     1      14.992  14.040  25.408  1.00  0.00    -0.418 N 
HETATM   17  C15 UNL     1      14.051  13.466  24.516  1.00  0.00     0.133 C 
ATOM     18  H10 UNL     1      15.876  14.435  25.088  1.00  0.00     0.153 HD
HETATM   19  C16 UNL     1      13.541  12.127  24.983  1.00  0.00     0.141 C 
HETATM   20  N11 UNL     1      13.956  11.721  26.270  1.00  0.00    -0.381 N 
BRANCH  20  21
HETATM   21  C17 UNL     1      13.964  10.363  26.594  1.00  0.00     0.092 C 
BRANCH  21  22
HETATM   22  C18 UNL     1      13.515   9.451  25.510  1.00  0.00     0.179 C 
BRANCH  22  23
HETATM   23  O3  UNL     1      12.691   8.421  26.047  1.00  0.00    -0.388 OA
ATOM     24  H3  UNL     1      12.869   7.598  25.607  1.00  0.00     0.210 HD
ENDBRANCH  22  23
BRANCH  22  25
HETATM   25  C19 UNL     1      14.645   8.693  24.812  1.00  0.00     0.201 C 
BRANCH  25  26
HETATM   26  O4  UNL     1      15.334   9.436  23.900  1.00  0.00    -0.398 OA
ATOM     27  H4  UNL     1      15.425   9.021  23.050  1.00  0.00     0.209 HD
ENDBRANCH  25  26
ENDBRANCH  22  25
ENDBRANCH  21  22
ENDBRANCH  20  21
ENDBRANCH  13  14
ENDBRANCH  12  13
BRANCH   4  28
HETATM   28  N3  UNL     1      19.491  11.818  25.835  1.00  0.00     0.094 N 
HETATM   29  N4  UNL     1      20.773  11.548  25.696  1.00  0.00    -0.214 N 
HETATM   30  C5  UNL     1      20.977  10.813  24.570  1.00  0.00     0.356 A 
ATOM     31  H4  UNL     1      21.506  11.847  26.339  1.00  0.00     0.193 HD
HETATM   32  O1  UNL     1      22.090  10.403  24.170  1.00  0.00    -0.244 OA
HETATM   33  N5  UNL     1      19.763  10.651  24.032  1.00  0.00    -0.127 N 
HETATM   34  C8  UNL     1      18.845  11.266  24.805  1.00  0.00     0.718 A 
BRANCH  33  35
HETATM   35  C6  UNL     1      19.476   9.928  22.814  1.00  0.00     0.178 C 
BRANCH  35  36
HETATM   36  C7  UNL     1      19.205   8.468  23.065  1.00  0.00     0.185 C 
BRANCH  36  37
HETATM   37  O2  UNL     1      17.906   8.233  23.490  1.00  0.00    -0.399 OA
ATOM     38  H2  UNL     1      17.795   7.367  23.864  1.00  0.00     0.209 HD
ENDBRANCH  36  37
ENDBRANCH  35  36
ENDBRANCH  33  35
BRANCH  34  39
HETATM   39  N6  UNL     1      17.578  11.320  24.597  1.00  0.00    -0.232 N 
ATOM     40  H62 UNL     1      16.929  10.533  24.584  1.00  0.00     0.174 HD
ATOM     41  H61 UNL     1      17.040  12.166  24.412  1.00  0.00     0.174 HD
ENDBRANCH  34  39
ENDBRANCH   4  28
BRANCH   1  42
HETATM   42  N1  UNL     1      20.007  15.189  29.197  1.00  0.00    -0.374 N 
HETATM   43  C1  UNL     1      19.885  16.586  28.785  1.00  0.00     0.150 C 
HETATM   44  C2  UNL     1      20.925  14.850  30.249  1.00  0.00     0.150 C 
ENDBRANCH   1  42
TORSDOF 13
ENDMDL
MODEL 3
REMARK VINA RESULT: -6.749110617      1.181      1.269
REMARK  13 active torsions:
REMARK  status: ('A' for Active; 'I' for Inactive)
REMARK    1  A    between atoms: N1_2  and  C3_4 
REMARK    2  A    between atoms: C4_7  and  N3_8 
REMARK    3  A    between atoms: N5_13  and  C6_14 
REMARK    4  A    between atoms: C6_14  and  C7_15 
REMARK    5  A    between atoms: C7_15  and  O2_16 
REMARK    6  A    between atoms: C8_18  and  N6_19 
REMARK    7  A    between atoms: N9_29  and  C12_30 
REMARK    8  A    between atoms: C12_30  and  C13_31 
REMARK    9  A    between atoms: N11_37  and  C17_38 
REMARK   10  A    between atoms: C17_38  and  C18_39 
REMARK   11  A    between atoms: C18_39  and  O3_40 
REMARK   12  A    between atoms: C18_39  and  C19_42 
REMARK   13  A    between atoms: C19_42  and  O4_43 
ROOT
HETATM    1  C3  UNL     1      19.938  12.466  23.174  1.00  0.00     0.149 A 
HETATM    2  N2  UNL     1      18.745  11.972  22.777  1.00  0.00    -0.172 N 
ATOM      3  H2  UNL     1      18.706  11.291  22.018  1.00  0.00     0.186 HD
HETATM    4  C4  UNL     1      17.612  12.367  23.374  1.00  0.00     0.722 A 
HETATM    5  N7  UNL     1      17.608  13.259  24.374  1.00  0.00    -0.172 N 
ATOM      6  H7  UNL     1      16.722  13.534  24.799  1.00  0.00     0.186 HD
HETATM    7  C9  UNL     1      18.751  13.795  24.823  1.00  0.00     0.155 A 
HETATM    8  C10 UNL     1      19.935  13.391  24.214  1.00  0.00     0.123 A 
HETATM    9  N8  UNL     1      20.908  14.052  24.865  1.00  0.00    -0.346 N 
ATOM     10  H8  UNL     1      21.906  13.982  24.665  1.00  0.00     0.167 HD
HETATM   11  C11 UNL     1      20.361  14.814  25.815  1.00  0.00     0.185 A 
HETATM   12  N9  UNL     1      18.994  14.655  25.792  1.00  0.00    -0.325 N 
ENDROOT
BRANCH  12  13
HETATM   13  C12 UNL     1      18.164  15.421  26.701  1.00  0.00     0.158 C 
BRANCH  13  14
HETATM   14  C13 UNL     1      17.798  14.630  27.900  1.00  0.00     0.119 C 
HETATM   15  C14 UNL     1      18.577  15.046  29.117  1.00  0.00     0.140 C 
HETATM   16  N10 UNL     1      17.765  15.246  30.303  1.00  0.00    -0.418 N 
HETATM   17  C15 UNL     1      16.817  14.226  30.567  1.00  0.00     0.133 C 
ATOM     18  H10 UNL     1      17.869  16.064  30.904  1.00  0.00     0.153 HD
HETATM   19  C16 UNL     1      16.015  13.841  29.350  1.00  0.00     0.141 C 
HETATM   20  N11 UNL     1      16.413  14.435  28.133  1.00  0.00    -0.381 N 
BRANCH  20  21
HETATM   21  C17 UNL     1      15.494  14.545  27.088  1.00  0.00     0.092 C 
BRANCH  21  22
HETATM   22  C18 UNL     1      14.784  13.288  26.735  1.00  0.00     0.179 C 
BRANCH  22  23
HETATM   23  O3  UNL     1      15.722  12.288  26.350  1.00  0.00    -0.388 OA
ATOM     24  H3  UNL     1      15.374  11.774  25.631  1.00  0.00     0.210 HD
ENDBRANCH  22  23
BRANCH  22  25
HETATM   25  C19 UNL     1      13.854  13.406  25.526  1.00  0.00     0.201 C 
BRANCH  25  26
HETATM   26  O4  UNL     1      14.471  13.837  24.389  1.00  0.00    -0.398 OA
ATOM     27  H4  UNL     1      15.285  14.303  24.542  1.00  0.00     0.209 HD
ENDBRANCH  25  26
ENDBRANCH  22  25
ENDBRANCH  21  22
ENDBRANCH  20  21
ENDBRANCH  13  14
ENDBRANCH  12  13
BRANCH   4  28
HETATM   28  N3  UNL     1      16.377  11.794  22.901  1.00  0.00     0.094 N 
HETATM   29  N4  UNL     1      15.680  10.867  23.526  1.00  0.00    -0.214 N 
HETATM   30  C5  UNL     1      14.569  10.553  22.808  1.00  0.00     0.356 A 
ATOM     31  H4  UNL     1      15.937  10.445  24.419  1.00  0.00     0.193 HD
HETATM   32  O1  UNL     1      13.709   9.707  23.143  1.00  0.00    -0.244 OA
HETATM   33  N5  UNL     1      14.623  11.330  21.720  1.00  0.00    -0.127 N 
HETATM   34  C8  UNL     1      15.732  12.096  21.771  1.00  0.00     0.718 A 
BRANCH  33  35
HETATM   35  C6  UNL     1      13.646  11.351  20.655  1.00  0.00     0.178 C 
BRANCH  35  36
HETATM   36  C7  UNL     1      13.976  10.376  19.556  1.00  0.00     0.185 C 
BRANCH  36  37
HETATM   37  O2  UNL     1      12.878   9.625  19.164  1.00  0.00    -0.399 OA
ATOM     38  H2  UNL     1      12.848   9.487  18.224  1.00  0.00     0.209 HD
ENDBRANCH  36  37
ENDBRANCH  35  36
ENDBRANCH  33  35
BRANCH  34  39
HETATM   39  N6  UNL     1      16.110  12.959  20.899  1.00  0.00    -0.232 N 
ATOM     40  H62 UNL     1      15.954  12.916  19.892  1.00  0.00     0.174 HD
ATOM     41  H61 UNL     1      16.629  13.816  21.093  1.00  0.00     0.174 HD
ENDBRANCH  34  39
ENDBRANCH   4  28
BRANCH   1  42
HETATM   42  N1  UNL     1      21.145  12.072  22.559  1.00  0.00    -0.374 N 
HETATM   43  C1  UNL     1      21.676  12.895  21.475  1.00  0.00     0.150 C 
HETATM   44  C2  UNL     1      21.870  10.899  22.963  1.00  0.00     0.150 C 
ENDBRANCH   1  42
TORSDOF 13
ENDMDL
MODEL 4
REMARK VINA RESULT: -6.663571513      2.445      5.731
REMARK  13 active torsions:
REMARK  status: ('A' for Active; 'I' for Inactive)
REMARK    1  A    between atoms: N1_2  and  C3_4 
REMARK    2  A    between atoms: C4_7  and  N3_8 
REMARK    3  A    between atoms: N5_13  and  C6_14 
REMARK    4  A    between atoms: C6_14  and  C7_15 
REMARK    5  A    between atoms: C7_15  and  O2_16 
REMARK    6  A    between atoms: C8_18  and  N6_19 
REMARK    7  A    between atoms: N9_29  and  C12_30 
REMARK    8  A    between atoms: C12_30  and  C13_31 
REMARK    9  A    between atoms: N11_37  and  C17_38 
REMARK   10  A    between atoms: C17_38  and  C18_39 
REMARK   11  A    between atoms: C18_39  and  O3_40 
REMARK   12  A    between atoms: C18_39  and  C19_42 
REMARK   13  A    between atoms: C19_42  and  O4_43 
ROOT
HETATM    1  C3  UNL     1      18.572  14.046  28.872  1.00  0.00     0.149 A 
HETATM    2  N2  UNL     1      19.248  13.617  27.784  1.00  0.00    -0.172 N 
ATOM      3  H2  UNL     1      20.256  13.766  27.722  1.00  0.00     0.186 HD
HETATM    4  C4  UNL     1      18.606  12.997  26.784  1.00  0.00     0.722 A 
HETATM    5  N7  UNL     1      17.283  12.779  26.815  1.00  0.00    -0.172 N 
ATOM      6  H7  UNL     1      16.834  12.305  26.032  1.00  0.00     0.186 HD
HETATM    7  C9  UNL     1      16.545  13.175  27.860  1.00  0.00     0.155 A 
HETATM    8  C10 UNL     1      17.200  13.817  28.906  1.00  0.00     0.123 A 
HETATM    9  N8  UNL     1      16.243  14.076  29.814  1.00  0.00    -0.346 N 
ATOM     10  H8  UNL     1      16.388  14.545  30.708  1.00  0.00     0.167 HD
HETATM   11  C11 UNL     1      15.073  13.623  29.359  1.00  0.00     0.185 A 
HETATM   12  N9  UNL     1      15.259  13.051  28.121  1.00  0.00    -0.325 N 
ENDROOT
BRANCH  12  13
HETATM   13  C12 UNL     1      14.120  12.527  27.391  1.00  0.00     0.158 C 
BRANCH  13  14
HETATM   14  C13 UNL     1      14.406  11.186  26.828  1.00  0.00     0.119 C 
HETATM   15  C14 UNL     1      13.874  10.078  27.694  1.00  0.00     0.140 C 
HETATM   16  N10 UNL     1      13.134   9.061  26.970  1.00  0.00    -0.418 N 
HETATM   17  C15 UNL     1      13.752   8.594  25.782  1.00  0.00     0.133 C 
ATOM     18  H10 UNL     1      12.234   8.707  27.292  1.00  0.00     0.153 HD
HETATM   19  C16 UNL     1      14.251   9.712  24.903  1.00  0.00     0.141 C 
HETATM   20  N11 UNL     1      14.160  11.013  25.443  1.00  0.00    -0.381 N 
BRANCH  20  21
HETATM   21  C17 UNL     1      14.122  12.113  24.585  1.00  0.00     0.092 C 
BRANCH  21  22
HETATM   22  C18 UNL     1      15.438  12.531  24.032  1.00  0.00     0.179 C 
BRANCH  22  23
HETATM   23  O3  UNL     1      15.797  13.812  24.541  1.00  0.00    -0.388 OA
ATOM     24  H3  UNL     1      16.405  14.239  23.949  1.00  0.00     0.210 HD
ENDBRANCH  22  23
BRANCH  22  25
HETATM   25  C19 UNL     1      15.456  12.719  22.515  1.00  0.00     0.201 C 
BRANCH  25  26
HETATM   26  O4  UNL     1      16.345  13.656  22.080  1.00  0.00    -0.398 OA
ATOM     27  H4  UNL     1      16.968  13.333  21.440  1.00  0.00     0.209 HD
ENDBRANCH  25  26
ENDBRANCH  22  25
ENDBRANCH  21  22
ENDBRANCH  20  21
ENDBRANCH  13  14
ENDBRANCH  12  13
BRANCH   4  28
HETATM   28  N3  UNL     1      19.391  12.563  25.657  1.00  0.00     0.094 N 
HETATM   29  N4  UNL     1      20.198  11.521  25.647  1.00  0.00    -0.214 N 
HETATM   30  C5  UNL     1      20.782  11.393  24.426  1.00  0.00     0.356 A 
ATOM     31  H4  UNL     1      20.361  10.901  26.440  1.00  0.00     0.193 HD
HETATM   32  O1  UNL     1      21.597  10.498  24.107  1.00  0.00    -0.244 OA
HETATM   33  N5  UNL     1      20.295  12.404  23.696  1.00  0.00    -0.127 N 
HETATM   34  C8  UNL     1      19.439  13.127  24.447  1.00  0.00     0.718 A 
BRANCH  33  35
HETATM   35  C6  UNL     1      20.629  12.679  22.318  1.00  0.00     0.178 C 
BRANCH  35  36
HETATM   36  C7  UNL     1      19.563  12.207  21.364  1.00  0.00     0.185 C 
BRANCH  36  37
HETATM   37  O2  UNL     1      18.754  13.240  20.915  1.00  0.00    -0.399 OA
ATOM     38  H2  UNL     1      17.855  13.154  21.208  1.00  0.00     0.209 HD
ENDBRANCH  36  37
ENDBRANCH  35  36
ENDBRANCH  33  35
BRANCH  34  39
HETATM   39  N6  UNL     1      18.786  14.169  24.078  1.00  0.00    -0.232 N 
ATOM     40  H62 UNL     1      18.108  14.692  24.632  1.00  0.00     0.174 HD
ATOM     41  H61 UNL     1      18.853  14.623  23.167  1.00  0.00     0.174 HD
ENDBRANCH  34  39
ENDBRANCH   4  28
BRANCH   1  42
HETATM   42  N1  UNL     1      19.223  14.707  29.936  1.00  0.00    -0.374 N 
HETATM   43  C1  UNL     1      19.597  16.108  29.760  1.00  0.00     0.150 C 
HETATM   44  C2  UNL     1      19.524  14.055  31.180  1.00  0.00     0.150 C 
ENDBRANCH   1  42
TORSDOF 13
ENDMDL
MODEL 5
REMARK VINA RESULT: -6.585299343      2.957      5.471
REMARK  13 active torsions:
REMARK  status: ('A' for Active; 'I' for Inactive)
REMARK    1  A    between atoms: N1_2  and  C3_4 
REMARK    2  A    between atoms: C4_7  and  N3_8 
REMARK    3  A    between atoms: N5_13  and  C6_14 
REMARK    4  A    between atoms: C6_14  and  C7_15 
REMARK    5  A    between atoms: C7_15  and  O2_16 
REMARK    6  A    between atoms: C8_18  and  N6_19 
REMARK    7  A    between atoms: N9_29  and  C12_30 
REMARK    8  A    between atoms: C12_30  and  C13_31 
REMARK    9  A    between atoms: N11_37  and  C17_38 
REMARK   10  A    between atoms: C17_38  and  C18_39 
REMARK   11  A    between atoms: C18_39  and  O3_40 
REMARK   12  A    between atoms: C18_39  and  C19_42 
REMARK   13  A    between atoms: C19_42  and  O4_43 
ROOT
HETATM    1  C3  UNL     1      16.634  12.190  22.473  1.00  0.00     0.149 A 
HETATM    2  N2  UNL     1      17.641  11.291  22.498  1.00  0.00    -0.172 N 
ATOM      3  H2  UNL     1      18.101  11.022  21.628  1.00  0.00     0.186 HD
HETATM    4  C4  UNL     1      18.041  10.750  23.657  1.00  0.00     0.722 A 
HETATM    5  N7  UNL     1      17.469  11.068  24.827  1.00  0.00    -0.172 N 
ATOM      6  H7  UNL     1      17.804  10.631  25.685  1.00  0.00     0.186 HD
HETATM    7  C9  UNL     1      16.464  11.952  24.883  1.00  0.00     0.155 A 
HETATM    8  C10 UNL     1      16.040  12.524  23.687  1.00  0.00     0.123 A 
HETATM    9  N8  UNL     1      15.059  13.374  24.033  1.00  0.00    -0.346 N 
ATOM     10  H8  UNL     1      14.529  13.960  23.387  1.00  0.00     0.167 HD
HETATM   11  C11 UNL     1      14.887  13.332  25.356  1.00  0.00     0.185 A 
HETATM   12  N9  UNL     1      15.775  12.432  25.899  1.00  0.00    -0.325 N 
ENDROOT
BRANCH  12  13
HETATM   13  C12 UNL     1      15.752  12.168  27.325  1.00  0.00     0.158 C 
BRANCH  13  14
HETATM   14  C13 UNL     1      16.118  13.372  28.107  1.00  0.00     0.119 C 
HETATM   15  C14 UNL     1      15.152  13.640  29.228  1.00  0.00     0.140 C 
HETATM   16  N10 UNL     1      15.785  13.914  30.505  1.00  0.00    -0.418 N 
HETATM   17  C15 UNL     1      16.861  14.836  30.462  1.00  0.00     0.133 C 
ATOM     18  H10 UNL     1      15.478  13.475  31.372  1.00  0.00     0.153 HD
HETATM   19  C16 UNL     1      17.844  14.539  29.357  1.00  0.00     0.141 C 
HETATM   20  N11 UNL     1      17.483  13.504  28.468  1.00  0.00    -0.381 N 
BRANCH  20  21
HETATM   21  C17 UNL     1      18.476  12.834  27.752  1.00  0.00     0.092 C 
BRANCH  21  22
HETATM   22  C18 UNL     1      19.429  13.709  27.022  1.00  0.00     0.179 C 
BRANCH  22  23
HETATM   23  O3  UNL     1      19.446  13.368  25.639  1.00  0.00    -0.388 OA
ATOM     24  H3  UNL     1      20.079  13.906  25.178  1.00  0.00     0.210 HD
ENDBRANCH  22  23
BRANCH  22  25
HETATM   25  C19 UNL     1      20.888  13.558  27.457  1.00  0.00     0.201 C 
BRANCH  25  26
HETATM   26  O4  UNL     1      21.495  12.432  26.986  1.00  0.00    -0.398 OA
ATOM     27  H4  UNL     1      21.890  12.534  26.128  1.00  0.00     0.209 HD
ENDBRANCH  25  26
ENDBRANCH  22  25
ENDBRANCH  21  22
ENDBRANCH  20  21
ENDBRANCH  13  14
ENDBRANCH  12  13
BRANCH   4  28
HETATM   28  N3  UNL     1      19.125   9.801  23.609  1.00  0.00     0.094 N 
HETATM   29  N4  UNL     1      19.025   8.552  23.202  1.00  0.00    -0.214 N 
HETATM   30  C5  UNL     1      20.234   7.936  23.281  1.00  0.00     0.356 A 
ATOM     31  H4  UNL     1      18.165   8.111  22.875  1.00  0.00     0.193 HD
HETATM   32  O1  UNL     1      20.459   6.745  22.965  1.00  0.00    -0.244 OA
HETATM   33  N5  UNL     1      21.071   8.866  23.756  1.00  0.00    -0.127 N 
HETATM   34  C8  UNL     1      20.396  10.015  23.959  1.00  0.00     0.718 A 
BRANCH  33  35
HETATM   35  C6  UNL     1      22.481   8.674  24.009  1.00  0.00     0.178 C 
BRANCH  35  36
HETATM   36  C7  UNL     1      23.304   8.738  22.750  1.00  0.00     0.185 C 
BRANCH  36  37
HETATM   37  O2  UNL     1      23.436   7.502  22.136  1.00  0.00    -0.399 OA
ATOM     38  H2  UNL     1      24.123   7.491  21.481  1.00  0.00     0.209 HD
ENDBRANCH  36  37
ENDBRANCH  35  36
ENDBRANCH  33  35
BRANCH  34  39
HETATM   39  N6  UNL     1      20.875  11.119  24.408  1.00  0.00    -0.232 N 
ATOM     40  H62 UNL     1      21.479  11.235  25.222  1.00  0.00     0.174 HD
ATOM     41  H61 UNL     1      20.715  12.044  24.009  1.00  0.00     0.174 HD
ENDBRANCH  34  39
ENDBRANCH   4  28
BRANCH   1  42
HETATM   42  N1  UNL     1      16.187  12.771  21.266  1.00  0.00    -0.374 N 
HETATM   43  C1  UNL     1      14.996  12.218  20.626  1.00  0.00     0.150 C 
HETATM   44  C2  UNL     1      16.858  13.883  20.651  1.00  0.00     0.150 C 
ENDBRANCH   1  42
TORSDOF 13
ENDMDL
