MODEL 1
REMARK VINA RESULT: -9.697988627      0.000      0.000
REMARK  13 active torsions:
REMARK  status: ('A' for Active; 'I' for Inactive)
REMARK    1  A    between atoms: C2_2  and  C3_3 
REMARK    2  A    between atoms: N1_5  and  C5_6 
REMARK    3  A    between atoms: C7_10  and  C8_11 
REMARK    4  A    between atoms: C8_11  and  O1_12 
REMARK    5  A    between atoms: N3_16  and  C10_17 
REMARK    6  A    between atoms: C10_17  and  C11_18 
REMARK       I    between atoms: C11_18  and  N4_20 
REMARK    7  A    between atoms: N4_20  and  C12_21 
REMARK    8  A    between atoms: C12_21  and  C13_22 
REMARK    9  A    between atoms: C13_22  and  O4_23 
REMARK   10  A    between atoms: C13_22  and  N5_25 
REMARK   11  A    between atoms: N5_25  and  C14_27 
REMARK   12  A    between atoms: C14_27  and  C15_28 
REMARK   13  A    between atoms: C17_40  and  N11_41 
ROOT
HETATM    1  C5  UNL     1      14.674  11.032  21.919  1.00  0.00     0.706 A 
HETATM    2  N2  UNL     1      15.792  10.425  22.220  1.00  0.00    -0.187 N 
ATOM      3  H2  UNL     1      16.078   9.571  21.741  1.00  0.00     0.184 HD
HETATM    4  C6  UNL     1      16.557  10.975  23.195  1.00  0.00     0.095 A 
HETATM    5  C7  UNL     1      17.763  10.421  23.503  1.00  0.00     0.064 A 
HETATM    6  C9  UNL     1      18.538  11.001  24.481  1.00  0.00     0.273 A 
HETATM    7  O2  UNL     1      19.619  10.404  24.695  1.00  0.00    -0.266 OA
HETATM    8  N3  UNL     1      18.197  12.116  25.170  1.00  0.00    -0.246 N 
HETATM    9  N10 UNL     1      17.022  12.667  24.838  1.00  0.00    -0.290 N 
ATOM     10  H10 UNL     1      16.724  13.517  25.316  1.00  0.00     0.187 HD
HETATM   11  C16 UNL     1      16.232  12.143  23.906  1.00  0.00     0.120 A 
HETATM   12  C17 UNL     1      15.018  12.740  23.527  1.00  0.00     0.145 A 
HETATM   13  N12 UNL     1      14.275  12.189  22.552  1.00  0.00    -0.173 N 
ATOM     14  H12 UNL     1      13.400  12.636  22.276  1.00  0.00     0.186 HD
ENDROOT
BRANCH   8  15
HETATM   15  C10 UNL     1      18.916  12.499  26.357  1.00  0.00     0.271 C 
BRANCH  15  16
HETATM   16  C11 UNL     1      17.946  12.652  27.516  1.00  0.00     0.311 C 
HETATM   17  O3  UNL     1      17.088  11.822  27.611  1.00  0.00    -0.255 OA
HETATM   18  N4  UNL     1      18.140  13.777  28.349  1.00  0.00    -0.378 NA
BRANCH  18  19
HETATM   19  C12 UNL     1      18.326  14.875  29.164  1.00  0.00     0.241 C 
BRANCH  19  20
HETATM   20  C13 UNL     1      17.726  14.679  30.485  1.00  0.00     0.165 C 
BRANCH  20  21
HETATM   21  O4  UNL     1      18.512  15.027  31.518  1.00  0.00    -0.344 OA
ATOM     22  H4  UNL     1      19.055  14.326  31.859  1.00  0.00     0.219 HD
ENDBRANCH  20  21
BRANCH  20  23
HETATM   23  N5  UNL     1      16.504  14.208  30.934  1.00  0.00    -0.362 N 
ATOM     24  H5  UNL     1      16.408  13.651  31.784  1.00  0.00     0.162 HD
BRANCH  23  25
HETATM   25  C14 UNL     1      15.397  14.558  30.122  1.00  0.00     0.201 C 
BRANCH  25  26
HETATM   26  C15 UNL     1      14.827  13.555  29.219  1.00  0.00     0.131 A 
HETATM   27  N6  UNL     1      14.650  13.840  27.887  1.00  0.00    -0.271 N 
HETATM   28  N7  UNL     1      14.187  12.778  27.361  1.00  0.00    -0.227 N 
ATOM     29  H6  UNL     1      14.850  14.722  27.416  1.00  0.00     0.190 HD
HETATM   30  N8  UNL     1      14.041  11.825  28.236  1.00  0.00    -0.227 N 
ATOM     31  H7  UNL     1      13.957  12.684  26.372  1.00  0.00     0.210 HD
HETATM   32  N9  UNL     1      14.445  12.305  29.420  1.00  0.00    -0.271 N 
ATOM     33  H8  UNL     1      13.685  10.886  28.054  1.00  0.00     0.210 HD
ATOM     34  H9  UNL     1      14.455  11.802  30.307  1.00  0.00     0.190 HD
ENDBRANCH  25  26
ENDBRANCH  23  25
ENDBRANCH  20  23
ENDBRANCH  19  20
ENDBRANCH  18  19
ENDBRANCH  15  16
ENDBRANCH   8  15
BRANCH   5  35
HETATM   35  C8  UNL     1      18.186   9.102  22.906  1.00  0.00     0.211 C 
BRANCH  35  36
HETATM   36  O1  UNL     1      17.498   8.153  23.692  1.00  0.00    -0.396 OA
ATOM     37  H1  UNL     1      16.585   8.338  23.512  1.00  0.00     0.209 HD
ENDBRANCH  35  36
ENDBRANCH   5  35
BRANCH  12  38
HETATM   38  N11 UNL     1      14.649  13.820  24.079  1.00  0.00    -0.383 N 
ATOM     39 2H11 UNL     1      14.784  13.957  25.081  1.00  0.00     0.157 HD
ATOM     40 1H11 UNL     1      14.186  14.540  23.524  1.00  0.00     0.157 HD
ENDBRANCH  12  38
BRANCH   1  41
HETATM   41  N1  UNL     1      13.774  10.556  20.904  1.00  0.00    -0.081 N 
HETATM   42  C4  UNL     1      12.437  10.754  20.954  1.00  0.00     0.163 A 
HETATM   43  C3  UNL     1      11.878  10.273  19.782  1.00  0.00     0.045 A 
HETATM   44  N14 UNL     1      12.919   9.789  19.069  1.00  0.00    -0.288 N 
HETATM   45  N13 UNL     1      14.039   9.960  19.735  1.00  0.00    -0.222 N 
ATOM     46  H14 UNL     1      12.847   9.354  18.149  1.00  0.00     0.188 HD
ATOM     47  H13 UNL     1      14.966   9.682  19.412  1.00  0.00     0.209 HD
BRANCH  43  48
HETATM   48  C2  UNL     1      10.435  10.365  19.448  1.00  0.00     0.055 C 
HETATM   49  C1  UNL     1      10.108   9.281  18.382  1.00  0.00     0.011 C 
ENDBRANCH  43  48
ENDBRANCH   1  41
TORSDOF 13
ENDMDL
MODEL 2
REMARK VINA RESULT: -9.393758537      1.698      2.197
REMARK  13 active torsions:
REMARK  status: ('A' for Active; 'I' for Inactive)
REMARK    1  A    between atoms: C2_2  and  C3_3 
REMARK    2  A    between atoms: N1_5  and  C5_6 
REMARK    3  A    between atoms: C7_10  and  C8_11 
REMARK    4  A    between atoms: C8_11  and  O1_12 
REMARK    5  A    between atoms: N3_16  and  C10_17 
REMARK    6  A    between atoms: C10_17  and  C11_18 
REMARK       I    between atoms: C11_18  and  N4_20 
REMARK    7  A    between atoms: N4_20  and  C12_21 
REMARK    8  A    between atoms: C12_21  and  C13_22 
REMARK    9  A    between atoms: C13_22  and  O4_23 
REMARK   10  A    between atoms: C13_22  and  N5_25 
REMARK   11  A    between atoms: N5_25  and  C14_27 
REMARK   12  A    between atoms: C14_27  and  C15_28 
REMARK   13  A    between atoms: C17_40  and  N11_41 
ROOT
HETATM    1  C5  UNL     1      14.721  11.008  21.962  1.00  0.00     0.706 A 
HETATM    2  N2  UNL     1      15.848  10.408  22.245  1.00  0.00    -0.187 N 
ATOM      3  H2  UNL     1      16.144   9.571  21.742  1.00  0.00     0.184 HD
HETATM    4  C6  UNL     1      16.609  10.941  23.233  1.00  0.00     0.095 A 
HETATM    5  C7  UNL     1      17.823  10.396  23.522  1.00  0.00     0.064 A 
HETATM    6  C9  UNL     1      18.592  10.959  24.514  1.00  0.00     0.273 A 
HETATM    7  O2  UNL     1      19.682  10.370  24.710  1.00  0.00    -0.266 OA
HETATM    8  N3  UNL     1      18.239  12.051  25.233  1.00  0.00    -0.246 N 
HETATM    9  N10 UNL     1      17.056  12.595  24.919  1.00  0.00    -0.290 N 
ATOM     10  H10 UNL     1      16.748  13.428  25.420  1.00  0.00     0.187 HD
HETATM   11  C16 UNL     1      16.270  12.086  23.975  1.00  0.00     0.120 A 
HETATM   12  C17 UNL     1      15.048  12.677  23.614  1.00  0.00     0.145 A 
HETATM   13  N12 UNL     1      14.309  12.143  22.627  1.00  0.00    -0.173 N 
ATOM     14  H12 UNL     1      13.429  12.585  22.365  1.00  0.00     0.186 HD
ENDROOT
BRANCH   8  15
HETATM   15  C10 UNL     1      18.956  12.411  26.428  1.00  0.00     0.271 C 
BRANCH  15  16
HETATM   16  C11 UNL     1      18.480  13.766  26.923  1.00  0.00     0.311 C 
HETATM   17  O3  UNL     1      18.857  14.724  26.311  1.00  0.00    -0.255 OA
HETATM   18  N4  UNL     1      17.659  13.758  28.074  1.00  0.00    -0.378 NA
BRANCH  18  19
HETATM   19  C12 UNL     1      16.859  13.754  29.198  1.00  0.00     0.241 C 
BRANCH  19  20
HETATM   20  C13 UNL     1      15.544  13.168  28.926  1.00  0.00     0.165 C 
BRANCH  20  21
HETATM   21  O4  UNL     1      14.645  13.321  29.913  1.00  0.00    -0.344 OA
ATOM     22  H4  UNL     1      13.758  13.490  29.620  1.00  0.00     0.219 HD
ENDBRANCH  20  21
BRANCH  20  23
HETATM   23  N5  UNL     1      14.994  12.477  27.861  1.00  0.00    -0.362 N 
ATOM     24  H5  UNL     1      15.096  12.786  26.894  1.00  0.00     0.162 HD
BRANCH  23  25
HETATM   25  C14 UNL     1      14.278  11.307  28.217  1.00  0.00     0.201 C 
BRANCH  25  26
HETATM   26  C15 UNL     1      13.813  10.405  27.161  1.00  0.00     0.131 A 
HETATM   27  N6  UNL     1      13.480   9.105  27.454  1.00  0.00    -0.271 N 
HETATM   28  N7  UNL     1      13.078   8.592  26.362  1.00  0.00    -0.227 N 
ATOM     29  H6  UNL     1      13.543   8.645  28.362  1.00  0.00     0.190 HD
HETATM   30  N8  UNL     1      13.123   9.444  25.378  1.00  0.00    -0.227 N 
ATOM     31  H7  UNL     1      12.757   7.628  26.268  1.00  0.00     0.210 HD
HETATM   32  N9  UNL     1      13.587  10.599  25.872  1.00  0.00    -0.271 N 
ATOM     33  H8  UNL     1      12.854   9.265  24.410  1.00  0.00     0.210 HD
ATOM     34  H9  UNL     1      13.738  11.465  25.353  1.00  0.00     0.190 HD
ENDBRANCH  25  26
ENDBRANCH  23  25
ENDBRANCH  20  23
ENDBRANCH  19  20
ENDBRANCH  18  19
ENDBRANCH  15  16
ENDBRANCH   8  15
BRANCH   5  35
HETATM   35  C8  UNL     1      18.261   9.098  22.890  1.00  0.00     0.211 C 
BRANCH  35  36
HETATM   36  O1  UNL     1      17.571   8.121  23.637  1.00  0.00    -0.396 OA
ATOM     37  H1  UNL     1      18.158   7.375  23.619  1.00  0.00     0.209 HD
ENDBRANCH  35  36
ENDBRANCH   5  35
BRANCH  12  38
HETATM   38  N11 UNL     1      14.666  13.737  24.196  1.00  0.00    -0.383 N 
ATOM     39 2H11 UNL     1      14.731  13.818  25.211  1.00  0.00     0.157 HD
ATOM     40 1H11 UNL     1      14.264  14.498  23.649  1.00  0.00     0.157 HD
ENDBRANCH  12  38
BRANCH   1  41
HETATM   41  N1  UNL     1      13.825  10.548  20.937  1.00  0.00    -0.081 N 
HETATM   42  C4  UNL     1      12.487  10.736  20.990  1.00  0.00     0.163 A 
HETATM   43  C3  UNL     1      11.932  10.276  19.808  1.00  0.00     0.045 A 
HETATM   44  N14 UNL     1      12.976   9.813  19.086  1.00  0.00    -0.288 N 
HETATM   45  N13 UNL     1      14.095   9.978  19.756  1.00  0.00    -0.222 N 
ATOM     46  H14 UNL     1      12.907   9.398  18.157  1.00  0.00     0.188 HD
ATOM     47  H13 UNL     1      15.023   9.713  19.428  1.00  0.00     0.209 HD
BRANCH  43  48
HETATM   48  C2  UNL     1      10.488  10.366  19.476  1.00  0.00     0.055 C 
HETATM   49  C1  UNL     1      10.172   9.312  18.377  1.00  0.00     0.011 C 
ENDBRANCH  43  48
ENDBRANCH   1  41
TORSDOF 13
ENDMDL
MODEL 3
REMARK VINA RESULT: -9.258381225      1.769      2.411
REMARK  13 active torsions:
REMARK  status: ('A' for Active; 'I' for Inactive)
REMARK    1  A    between atoms: C2_2  and  C3_3 
REMARK    2  A    between atoms: N1_5  and  C5_6 
REMARK    3  A    between atoms: C7_10  and  C8_11 
REMARK    4  A    between atoms: C8_11  and  O1_12 
REMARK    5  A    between atoms: N3_16  and  C10_17 
REMARK    6  A    between atoms: C10_17  and  C11_18 
REMARK       I    between atoms: C11_18  and  N4_20 
REMARK    7  A    between atoms: N4_20  and  C12_21 
REMARK    8  A    between atoms: C12_21  and  C13_22 
REMARK    9  A    between atoms: C13_22  and  O4_23 
REMARK   10  A    between atoms: C13_22  and  N5_25 
REMARK   11  A    between atoms: N5_25  and  C14_27 
REMARK   12  A    between atoms: C14_27  and  C15_28 
REMARK   13  A    between atoms: C17_40  and  N11_41 
ROOT
HETATM    1  C5  UNL     1      13.966  11.210  21.067  1.00  0.00     0.706 A 
HETATM    2  N2  UNL     1      13.983  10.994  22.357  1.00  0.00    -0.187 N 
ATOM      3  H2  UNL     1      13.315  10.361  22.797  1.00  0.00     0.184 HD
HETATM    4  C6  UNL     1      14.923  11.644  23.086  1.00  0.00     0.095 A 
HETATM    5  C7  UNL     1      15.028  11.404  24.423  1.00  0.00     0.064 A 
HETATM    6  C9  UNL     1      15.999  12.056  25.148  1.00  0.00     0.273 A 
HETATM    7  O2  UNL     1      15.998  11.775  26.369  1.00  0.00    -0.266 OA
HETATM    8  N3  UNL     1      16.893  12.928  24.622  1.00  0.00    -0.246 N 
HETATM    9  N10 UNL     1      16.798  13.132  23.303  1.00  0.00    -0.290 N 
ATOM     10  H10 UNL     1      17.457  13.768  22.854  1.00  0.00     0.187 HD
HETATM   11  C16 UNL     1      15.873  12.534  22.557  1.00  0.00     0.120 A 
HETATM   12  C17 UNL     1      15.795  12.715  21.167  1.00  0.00     0.145 A 
HETATM   13  N12 UNL     1      14.865  12.057  20.455  1.00  0.00    -0.173 N 
ATOM     14  H12 UNL     1      14.823  12.186  19.444  1.00  0.00     0.186 HD
ENDROOT
BRANCH   8  15
HETATM   15  C10 UNL     1      17.687  13.774  25.475  1.00  0.00     0.271 C 
BRANCH  15  16
HETATM   16  C11 UNL     1      18.979  13.064  25.840  1.00  0.00     0.311 C 
HETATM   17  O3  UNL     1      19.405  12.280  25.041  1.00  0.00    -0.255 OA
HETATM   18  N4  UNL     1      19.533  13.381  27.102  1.00  0.00    -0.378 NA
BRANCH  18  19
HETATM   19  C12 UNL     1      20.075  13.688  28.333  1.00  0.00     0.241 C 
BRANCH  19  20
HETATM   20  C13 UNL     1      19.048  14.110  29.288  1.00  0.00     0.165 C 
BRANCH  20  21
HETATM   21  O4  UNL     1      19.366  13.915  30.579  1.00  0.00    -0.344 OA
ATOM     22  H4  UNL     1      20.038  14.496  30.916  1.00  0.00     0.219 HD
ENDBRANCH  20  21
BRANCH  20  23
HETATM   23  N5  UNL     1      17.792  14.680  29.171  1.00  0.00    -0.362 N 
ATOM     24  H5  UNL     1      17.638  15.581  28.717  1.00  0.00     0.162 HD
BRANCH  23  25
HETATM   25  C14 UNL     1      16.737  13.917  29.731  1.00  0.00     0.201 C 
BRANCH  25  26
HETATM   26  C15 UNL     1      15.580  13.580  28.900  1.00  0.00     0.131 A 
HETATM   27  N6  UNL     1      14.912  12.394  29.087  1.00  0.00    -0.271 N 
HETATM   28  N7  UNL     1      13.944  12.404  28.261  1.00  0.00    -0.227 N 
ATOM     29  H6  UNL     1      15.145  11.656  29.751  1.00  0.00     0.190 HD
HETATM   30  N8  UNL     1      13.924  13.494  27.548  1.00  0.00    -0.227 N 
ATOM     31  H7  UNL     1      13.264  11.650  28.170  1.00  0.00     0.210 HD
HETATM   32  N9  UNL     1      14.957  14.249  27.944  1.00  0.00    -0.271 N 
ATOM     33  H8  UNL     1      13.247  13.728  26.821  1.00  0.00     0.210 HD
ATOM     34  H9  UNL     1      15.215  15.166  27.578  1.00  0.00     0.190 HD
ENDBRANCH  25  26
ENDBRANCH  23  25
ENDBRANCH  20  23
ENDBRANCH  19  20
ENDBRANCH  18  19
ENDBRANCH  15  16
ENDBRANCH   8  15
BRANCH   5  35
HETATM   35  C8  UNL     1      14.002  10.566  25.144  1.00  0.00     0.211 C 
BRANCH  35  36
HETATM   36  O1  UNL     1      13.044  11.512  25.565  1.00  0.00    -0.396 OA
ATOM     37  H1  UNL     1      12.586  11.734  24.764  1.00  0.00     0.209 HD
ENDBRANCH  35  36
ENDBRANCH   5  35
BRANCH  12  38
HETATM   38  N11 UNL     1      16.631  13.469  20.583  1.00  0.00    -0.383 N 
ATOM     39 2H11 UNL     1      17.517  13.091  20.245  1.00  0.00     0.157 HD
ATOM     40 1H11 UNL     1      16.429  14.464  20.479  1.00  0.00     0.157 HD
ENDBRANCH  12  38
BRANCH   1  41
HETATM   41  N1  UNL     1      13.025  10.582  20.181  1.00  0.00    -0.081 N 
HETATM   42  C4  UNL     1      11.698  10.528  20.436  1.00  0.00     0.163 A 
HETATM   43  C3  UNL     1      11.064   9.961  19.344  1.00  0.00     0.045 A 
HETATM   44  N14 UNL     1      12.054   9.683  18.467  1.00  0.00    -0.288 N 
HETATM   45  N13 UNL     1      13.212  10.054  18.966  1.00  0.00    -0.222 N 
ATOM     46  H14 UNL     1      11.922   9.249  17.554  1.00  0.00     0.188 HD
ATOM     47  H13 UNL     1      14.114   9.956  18.499  1.00  0.00     0.209 HD
BRANCH  43  48
HETATM   48  C2  UNL     1       9.594   9.785  19.233  1.00  0.00     0.055 C 
HETATM   49  C1  UNL     1       9.113  10.494  17.935  1.00  0.00     0.011 C 
ENDBRANCH  43  48
ENDBRANCH   1  41
TORSDOF 13
ENDMDL
MODEL 4
REMARK VINA RESULT: -8.965444233      2.475      3.018
REMARK  13 active torsions:
REMARK  status: ('A' for Active; 'I' for Inactive)
REMARK    1  A    between atoms: C2_2  and  C3_3 
REMARK    2  A    between atoms: N1_5  and  C5_6 
REMARK    3  A    between atoms: C7_10  and  C8_11 
REMARK    4  A    between atoms: C8_11  and  O1_12 
REMARK    5  A    between atoms: N3_16  and  C10_17 
REMARK    6  A    between atoms: C10_17  and  C11_18 
REMARK       I    between atoms: C11_18  and  N4_20 
REMARK    7  A    between atoms: N4_20  and  C12_21 
REMARK    8  A    between atoms: C12_21  and  C13_22 
REMARK    9  A    between atoms: C13_22  and  O4_23 
REMARK   10  A    between atoms: C13_22  and  N5_25 
REMARK   11  A    between atoms: N5_25  and  C14_27 
REMARK   12  A    between atoms: C14_27  and  C15_28 
REMARK   13  A    between atoms: C17_40  and  N11_41 
ROOT
HETATM    1  C5  UNL     1      15.053  11.021  21.089  1.00  0.00     0.706 A 
HETATM    2  N2  UNL     1      15.810  10.247  21.822  1.00  0.00    -0.187 N 
ATOM      3  H2  UNL     1      15.597   9.256  21.941  1.00  0.00     0.184 HD
HETATM    4  C6  UNL     1      16.889  10.812  22.418  1.00  0.00     0.095 A 
HETATM    5  C7  UNL     1      17.748  10.037  23.137  1.00  0.00     0.064 A 
HETATM    6  C9  UNL     1      18.850  10.620  23.719  1.00  0.00     0.273 A 
HETATM    7  O2  UNL     1      19.565   9.822  24.370  1.00  0.00    -0.266 OA
HETATM    8  N3  UNL     1      19.166  11.934  23.620  1.00  0.00    -0.246 N 
HETATM    9  N10 UNL     1      18.329  12.678  22.886  1.00  0.00    -0.290 N 
ATOM     10  H10 UNL     1      18.529  13.671  22.767  1.00  0.00     0.187 HD
HETATM   11  C16 UNL     1      17.246  12.167  22.308  1.00  0.00     0.120 A 
HETATM   12  C17 UNL     1      16.388  12.935  21.505  1.00  0.00     0.145 A 
HETATM   13  N12 UNL     1      15.328  12.360  20.913  1.00  0.00    -0.173 N 
ATOM     14  H12 UNL     1      14.716  12.924  20.323  1.00  0.00     0.186 HD
ENDROOT
BRANCH   8  15
HETATM   15  C10 UNL     1      20.165  12.519  24.476  1.00  0.00     0.271 C 
BRANCH  15  16
HETATM   16  C11 UNL     1      19.585  12.736  25.863  1.00  0.00     0.311 C 
HETATM   17  O3  UNL     1      20.152  12.198  26.772  1.00  0.00    -0.255 OA
HETATM   18  N4  UNL     1      18.418  13.530  25.937  1.00  0.00    -0.378 NA
BRANCH  18  19
HETATM   19  C12 UNL     1      17.278  14.304  26.011  1.00  0.00     0.241 C 
BRANCH  19  20
HETATM   20  C13 UNL     1      16.066  13.506  25.814  1.00  0.00     0.165 C 
BRANCH  20  21
HETATM   21  O4  UNL     1      14.918  14.202  25.869  1.00  0.00    -0.344 OA
ATOM     22  H4  UNL     1      14.778  14.673  26.682  1.00  0.00     0.219 HD
ENDBRANCH  20  21
BRANCH  20  23
HETATM   23  N5  UNL     1      15.818  12.165  25.574  1.00  0.00    -0.362 N 
ATOM     24  H5  UNL     1      16.535  11.446  25.677  1.00  0.00     0.162 HD
BRANCH  23  25
HETATM   25  C14 UNL     1      14.491  11.867  25.175  1.00  0.00     0.201 C 
BRANCH  25  26
HETATM   26  C15 UNL     1      13.902  10.582  25.556  1.00  0.00     0.131 A 
HETATM   27  N6  UNL     1      13.618   9.637  24.601  1.00  0.00    -0.271 N 
HETATM   28  N7  UNL     1      13.163   8.629  25.231  1.00  0.00    -0.227 N 
ATOM     29  H6  UNL     1      13.746   9.725  23.593  1.00  0.00     0.190 HD
HETATM   30  N8  UNL     1      13.121   8.836  26.516  1.00  0.00    -0.227 N 
ATOM     31  H7  UNL     1      12.868   7.762  24.783  1.00  0.00     0.210 HD
HETATM   32  N9  UNL     1      13.588  10.073  26.736  1.00  0.00    -0.271 N 
ATOM     33  H8  UNL     1      12.794   8.179  27.224  1.00  0.00     0.210 HD
ATOM     34  H9  UNL     1      13.683  10.534  27.641  1.00  0.00     0.190 HD
ENDBRANCH  25  26
ENDBRANCH  23  25
ENDBRANCH  20  23
ENDBRANCH  19  20
ENDBRANCH  18  19
ENDBRANCH  15  16
ENDBRANCH   8  15
BRANCH   5  35
HETATM   35  C8  UNL     1      17.427   8.594  23.436  1.00  0.00     0.211 C 
BRANCH  35  36
HETATM   36  O1  UNL     1      16.225   8.673  24.172  1.00  0.00    -0.396 OA
ATOM     37  H1  UNL     1      16.039   7.767  24.386  1.00  0.00     0.209 HD
ENDBRANCH  35  36
ENDBRANCH   5  35
BRANCH  12  38
HETATM   38  N11 UNL     1      16.641  14.162  21.309  1.00  0.00    -0.383 N 
ATOM     39 2H11 UNL     1      17.607  14.489  21.278  1.00  0.00     0.157 HD
ATOM     40 1H11 UNL     1      15.874  14.828  21.214  1.00  0.00     0.157 HD
ENDBRANCH  12  38
BRANCH   1  41
HETATM   41  N1  UNL     1      13.882  10.548  20.402  1.00  0.00    -0.081 N 
HETATM   42  C4  UNL     1      12.625  10.881  20.774  1.00  0.00     0.163 A 
HETATM   43  C3  UNL     1      11.740  10.355  19.849  1.00  0.00     0.045 A 
HETATM   44  N14 UNL     1      12.514   9.708  18.950  1.00  0.00    -0.288 N 
HETATM   45  N13 UNL     1      13.781   9.826  19.280  1.00  0.00    -0.222 N 
ATOM     46  H14 UNL     1      12.166   9.202  18.135  1.00  0.00     0.188 HD
ATOM     47  H13 UNL     1      14.564   9.430  18.761  1.00  0.00     0.209 HD
BRANCH  43  48
HETATM   48  C2  UNL     1      10.270  10.560  19.893  1.00  0.00     0.055 C 
HETATM   49  C1  UNL     1       9.631   9.772  18.714  1.00  0.00     0.011 C 
ENDBRANCH  43  48
ENDBRANCH   1  41
TORSDOF 13
ENDMDL
MODEL 5
REMARK VINA RESULT: -8.958343882      1.601      1.852
REMARK  13 active torsions:
REMARK  status: ('A' for Active; 'I' for Inactive)
REMARK    1  A    between atoms: C2_2  and  C3_3 
REMARK    2  A    between atoms: N1_5  and  C5_6 
REMARK    3  A    between atoms: C7_10  and  C8_11 
REMARK    4  A    between atoms: C8_11  and  O1_12 
REMARK    5  A    between atoms: N3_16  and  C10_17 
REMARK    6  A    between atoms: C10_17  and  C11_18 
REMARK       I    between atoms: C11_18  and  N4_20 
REMARK    7  A    between atoms: N4_20  and  C12_21 
REMARK    8  A    between atoms: C12_21  and  C13_22 
REMARK    9  A    between atoms: C13_22  and  O4_23 
REMARK   10  A    between atoms: C13_22  and  N5_25 
REMARK   11  A    between atoms: N5_25  and  C14_27 
REMARK   12  A    between atoms: C14_27  and  C15_28 
REMARK   13  A    between atoms: C17_40  and  N11_41 
ROOT
HETATM    1  C5  UNL     1      14.267  10.729  21.875  1.00  0.00     0.706 A 
HETATM    2  N2  UNL     1      15.314  11.499  21.732  1.00  0.00    -0.187 N 
ATOM      3  H2  UNL     1      15.558  11.901  20.827  1.00  0.00     0.184 HD
HETATM    4  C6  UNL     1      16.063  11.744  22.836  1.00  0.00     0.095 A 
HETATM    5  C7  UNL     1      17.126  12.592  22.758  1.00  0.00     0.064 A 
HETATM    6  C9  UNL     1      17.866  12.846  23.890  1.00  0.00     0.273 A 
HETATM    7  O2  UNL     1      18.829  13.628  23.705  1.00  0.00    -0.266 OA
HETATM    8  N3  UNL     1      17.606  12.320  25.111  1.00  0.00    -0.246 N 
HETATM    9  N10 UNL     1      16.542  11.511  25.180  1.00  0.00    -0.290 N 
ATOM     10  H10 UNL     1      16.293  11.099  26.079  1.00  0.00     0.187 HD
HETATM   11  C16 UNL     1      15.798  11.225  24.115  1.00  0.00     0.120 A 
HETATM   12  C17 UNL     1      14.657  10.409  24.191  1.00  0.00     0.145 A 
HETATM   13  N12 UNL     1      13.919  10.183  23.092  1.00  0.00    -0.173 N 
ATOM     14  H12 UNL     1      13.087   9.598  23.159  1.00  0.00     0.186 HD
ENDROOT
BRANCH   8  15
HETATM   15  C10 UNL     1      18.576  12.406  26.173  1.00  0.00     0.271 C 
BRANCH  15  16
HETATM   16  C11 UNL     1      17.862  12.512  27.509  1.00  0.00     0.311 C 
HETATM   17  O3  UNL     1      17.126  11.612  27.797  1.00  0.00    -0.255 OA
HETATM   18  N4  UNL     1      18.120  13.677  28.266  1.00  0.00    -0.378 NA
BRANCH  18  19
HETATM   19  C12 UNL     1      18.369  14.815  29.007  1.00  0.00     0.241 C 
BRANCH  19  20
HETATM   20  C13 UNL     1      17.796  14.723  30.352  1.00  0.00     0.165 C 
BRANCH  20  21
HETATM   21  O4  UNL     1      18.534  15.296  31.318  1.00  0.00    -0.344 OA
ATOM     22  H4  UNL     1      18.278  15.066  32.203  1.00  0.00     0.219 HD
ENDBRANCH  20  21
BRANCH  20  23
HETATM   23  N5  UNL     1      16.640  14.172  30.877  1.00  0.00    -0.362 N 
ATOM     24  H5  UNL     1      16.644  13.563  31.695  1.00  0.00     0.162 HD
BRANCH  23  25
HETATM   25  C14 UNL     1      15.450  14.519  30.190  1.00  0.00     0.201 C 
BRANCH  25  26
HETATM   26  C15 UNL     1      14.858  13.559  29.255  1.00  0.00     0.131 A 
HETATM   27  N6  UNL     1      14.707  13.884  27.929  1.00  0.00    -0.271 N 
HETATM   28  N7  UNL     1      14.215  12.852  27.371  1.00  0.00    -0.227 N 
ATOM     29  H6  UNL     1      14.941  14.770  27.483  1.00  0.00     0.190 HD
HETATM   30  N8  UNL     1      14.027  11.882  28.220  1.00  0.00    -0.227 N 
ATOM     31  H7  UNL     1      13.994  12.791  26.377  1.00  0.00     0.210 HD
HETATM   32  N9  UNL     1      14.432  12.318  29.420  1.00  0.00    -0.271 N 
ATOM     33  H8  UNL     1      13.643  10.961  28.010  1.00  0.00     0.210 HD
ATOM     34  H9  UNL     1      14.416  11.793  30.294  1.00  0.00     0.190 HD
ENDBRANCH  25  26
ENDBRANCH  23  25
ENDBRANCH  20  23
ENDBRANCH  19  20
ENDBRANCH  18  19
ENDBRANCH  15  16
ENDBRANCH   8  15
BRANCH   5  35
HETATM   35  C8  UNL     1      17.597  13.126  21.429  1.00  0.00     0.211 C 
BRANCH  35  36
HETATM   36  O1  UNL     1      16.903  14.348  21.303  1.00  0.00    -0.396 OA
ATOM     37  H1  UNL     1      16.003  14.109  21.487  1.00  0.00     0.209 HD
ENDBRANCH  35  36
ENDBRANCH   5  35
BRANCH  12  38
HETATM   38  N11 UNL     1      14.307   9.921  25.308  1.00  0.00    -0.383 N 
ATOM     39 2H11 UNL     1      13.933  10.527  26.039  1.00  0.00     0.157 HD
ATOM     40 1H11 UNL     1      14.429   8.924  25.485  1.00  0.00     0.157 HD
ENDBRANCH  12  38
BRANCH   1  41
HETATM   41  N1  UNL     1      13.389  10.394  20.787  1.00  0.00    -0.081 N 
HETATM   42  C4  UNL     1      12.052  10.596  20.832  1.00  0.00     0.163 A 
HETATM   43  C3  UNL     1      11.518  10.273  19.596  1.00  0.00     0.045 A 
HETATM   44  N14 UNL     1      12.572   9.874  18.851  1.00  0.00    -0.288 N 
HETATM   45  N13 UNL     1      13.677   9.949  19.559  1.00  0.00    -0.222 N 
ATOM     46  H14 UNL     1      12.519   9.560  17.882  1.00  0.00     0.188 HD
ATOM     47  H13 UNL     1      14.610   9.706  19.224  1.00  0.00     0.209 HD
BRANCH  43  48
HETATM   48  C2  UNL     1      10.083  10.420  19.245  1.00  0.00     0.055 C 
HETATM   49  C1  UNL     1       9.686   9.245  18.306  1.00  0.00     0.011 C 
ENDBRANCH  43  48
ENDBRANCH   1  41
TORSDOF 13
ENDMDL
