MODEL 1
REMARK VINA RESULT: -6.220062408      0.000      0.000
REMARK  11 active torsions:
REMARK  status: ('A' for Active; 'I' for Inactive)
REMARK    1  A    between atoms: N1_1  and  C1_4 
REMARK    2  A    between atoms: C2_7  and  N3_8 
REMARK    3  A    between atoms: N4_11  and  C3_12 
REMARK    4  A    between atoms: C5_14  and  O1_15 
REMARK    5  A    between atoms: C5_14  and  C6_17 
REMARK    6  A    between atoms: C6_17  and  N5_18 
REMARK    7  A    between atoms: N5_18  and  C7_20 
REMARK    8  A    between atoms: C7_20  and  C8_21 
REMARK    9  A    between atoms: C8_21  and  N6_22 
REMARK   10  A    between atoms: C9_26  and  C10_27 
REMARK   11  A    between atoms: C10_27  and  O2_28 
ROOT
HETATM    1  C3  UNL     1      20.902  29.513  41.269  1.00  0.00     0.267 C 
HETATM    2  C4  UNL     1      22.312  29.991  41.194  1.00  0.00     0.102 C 
HETATM    3  C5  UNL     1      22.351  30.280  39.639  1.00  0.00     0.121 C 
HETATM    4  C9  UNL     1      21.626  29.068  39.200  1.00  0.00     0.187 C 
HETATM    5  O3  UNL     1      20.511  29.035  40.055  1.00  0.00    -0.353 OA
ENDROOT
BRANCH   1   6
HETATM    6  N4  UNL     1      20.681  28.568  42.347  1.00  0.00    -0.079 N 
HETATM    7  C2  UNL     1      19.860  27.534  42.466  1.00  0.00     0.710 A 
HETATM    8  N2  UNL     1      20.041  26.976  43.678  1.00  0.00    -0.020 N 
HETATM    9  C1  UNL     1      20.989  27.667  44.336  1.00  0.00     0.705 A 
ATOM     10  H2  UNL     1      19.541  26.163  44.038  1.00  0.00     0.203 HD
HETATM   11  N7  UNL     1      21.365  28.644  43.487  1.00  0.00    -0.113 N 
ATOM     12  H7  UNL     1      22.077  29.346  43.690  1.00  0.00     0.206 HD
BRANCH   7  13
HETATM   13  N3  UNL     1      19.027  27.156  41.536  1.00  0.00    -0.233 N 
ATOM     14  H32 UNL     1      18.231  26.540  41.701  1.00  0.00     0.174 HD
ATOM     15  H31 UNL     1      19.047  27.406  40.548  1.00  0.00     0.174 HD
ENDBRANCH   7  13
BRANCH   9  16
HETATM   16  N1  UNL     1      21.395  27.385  45.528  1.00  0.00    -0.233 N 
ATOM     17  H12 UNL     1      20.871  27.220  46.387  1.00  0.00     0.174 HD
ATOM     18  H11 UNL     1      22.375  27.282  45.789  1.00  0.00     0.174 HD
ENDBRANCH   9  16
ENDBRANCH   1   6
BRANCH   3  19
HETATM   19  O1  UNL     1      21.574  31.414  39.543  1.00  0.00    -0.382 OA
ATOM     20  H1  UNL     1      21.480  31.508  38.602  1.00  0.00     0.211 HD
ENDBRANCH   3  19
BRANCH   3  21
HETATM   21  C6  UNL     1      23.759  30.463  39.239  1.00  0.00     0.096 C 
BRANCH  21  22
HETATM   22  N5  UNL     1      24.472  31.402  39.992  1.00  0.00    -0.398 N 
ATOM     23  H5  UNL     1      23.997  32.259  40.276  1.00  0.00     0.158 HD
BRANCH  22  24
HETATM   24  C7  UNL     1      25.804  31.222  40.372  1.00  0.00     0.146 C 
BRANCH  24  25
HETATM   25  C8  UNL     1      26.730  32.245  39.675  1.00  0.00     0.249 C 
BRANCH  25  26
HETATM   26  N6  UNL     1      26.012  33.460  39.437  1.00  0.00    -0.078 N 
ATOM     27  H63 UNL     1      25.750  33.566  38.456  1.00  0.00     0.274 HD
ATOM     28  H62 UNL     1      25.074  33.437  39.838  1.00  0.00     0.274 HD
ATOM     29  H61 UNL     1      26.556  34.253  39.777  1.00  0.00     0.274 HD
ENDBRANCH  25  26
ENDBRANCH  24  25
ENDBRANCH  22  24
ENDBRANCH  21  22
ENDBRANCH   3  21
BRANCH   4  30
HETATM   30  C10 UNL     1      22.400  27.774  39.302  1.00  0.00     0.199 C 
BRANCH  30  31
HETATM   31  O2  UNL     1      22.733  27.291  38.021  1.00  0.00    -0.398 OA
ATOM     32  H2  UNL     1      23.549  27.674  37.720  1.00  0.00     0.209 HD
ENDBRANCH  30  31
ENDBRANCH   4  30
TORSDOF 11
ENDMDL
MODEL 2
REMARK VINA RESULT: -6.120569689      2.477      6.166
REMARK  11 active torsions:
REMARK  status: ('A' for Active; 'I' for Inactive)
REMARK    1  A    between atoms: N1_1  and  C1_4 
REMARK    2  A    between atoms: C2_7  and  N3_8 
REMARK    3  A    between atoms: N4_11  and  C3_12 
REMARK    4  A    between atoms: C5_14  and  O1_15 
REMARK    5  A    between atoms: C5_14  and  C6_17 
REMARK    6  A    between atoms: C6_17  and  N5_18 
REMARK    7  A    between atoms: N5_18  and  C7_20 
REMARK    8  A    between atoms: C7_20  and  C8_21 
REMARK    9  A    between atoms: C8_21  and  N6_22 
REMARK   10  A    between atoms: C9_26  and  C10_27 
REMARK   11  A    between atoms: C10_27  and  O2_28 
ROOT
HETATM    1  C3  UNL     1      22.196  29.123  41.708  1.00  0.00     0.267 C 
HETATM    2  C4  UNL     1      20.985  28.571  42.381  1.00  0.00     0.102 C 
HETATM    3  C5  UNL     1      21.715  27.475  43.256  1.00  0.00     0.121 C 
HETATM    4  C9  UNL     1      22.654  26.994  42.219  1.00  0.00     0.187 C 
HETATM    5  O3  UNL     1      23.183  28.184  41.690  1.00  0.00    -0.353 OA
ENDROOT
BRANCH   1   6
HETATM    6  N4  UNL     1      21.914  29.673  40.396  1.00  0.00    -0.079 N 
HETATM    7  C2  UNL     1      22.623  30.447  39.588  1.00  0.00     0.710 A 
HETATM    8  N2  UNL     1      21.905  30.681  38.472  1.00  0.00    -0.020 N 
HETATM    9  C1  UNL     1      20.724  30.047  38.577  1.00  0.00     0.705 A 
ATOM     10  H2  UNL     1      22.208  31.247  37.679  1.00  0.00     0.203 HD
HETATM   11  N7  UNL     1      20.760  29.432  39.777  1.00  0.00    -0.113 N 
ATOM     12  H7  UNL     1      20.005  28.861  40.158  1.00  0.00     0.206 HD
BRANCH   7  13
HETATM   13  N3  UNL     1      23.818  30.890  39.867  1.00  0.00    -0.233 N 
ATOM     14  H32 UNL     1      24.163  31.810  39.595  1.00  0.00     0.174 HD
ATOM     15  H31 UNL     1      24.555  30.402  40.375  1.00  0.00     0.174 HD
ENDBRANCH   7  13
BRANCH   9  16
HETATM   16  N1  UNL     1      19.805  30.072  37.672  1.00  0.00    -0.233 N 
ATOM     17  H12 UNL     1      19.801  30.488  36.740  1.00  0.00     0.174 HD
ATOM     18  H11 UNL     1      18.885  29.645  37.778  1.00  0.00     0.174 HD
ENDBRANCH   9  16
ENDBRANCH   1   6
BRANCH   3  19
HETATM   19  O1  UNL     1      22.344  28.246  44.209  1.00  0.00    -0.382 OA
ATOM     20  H1  UNL     1      23.242  28.247  43.898  1.00  0.00     0.211 HD
ENDBRANCH   3  19
BRANCH   3  21
HETATM   21  C6  UNL     1      20.694  26.552  43.786  1.00  0.00     0.096 C 
BRANCH  21  22
HETATM   22  N5  UNL     1      19.686  27.156  44.546  1.00  0.00    -0.398 N 
ATOM     23  H5  UNL     1      19.063  27.821  44.086  1.00  0.00     0.158 HD
BRANCH  22  24
HETATM   24  C7  UNL     1      19.493  26.894  45.904  1.00  0.00     0.146 C 
BRANCH  24  25
HETATM   25  C8  UNL     1      20.173  27.967  46.785  1.00  0.00     0.249 C 
BRANCH  25  26
HETATM   26  N6  UNL     1      21.481  27.523  47.161  1.00  0.00    -0.078 N 
ATOM     27  H63 UNL     1      21.542  27.309  48.157  1.00  0.00     0.274 HD
ATOM     28  H62 UNL     1      21.690  26.594  46.798  1.00  0.00     0.274 HD
ATOM     29  H61 UNL     1      22.173  28.214  46.874  1.00  0.00     0.274 HD
ENDBRANCH  25  26
ENDBRANCH  24  25
ENDBRANCH  22  24
ENDBRANCH  21  22
ENDBRANCH   3  21
BRANCH   4  30
HETATM   30  C10 UNL     1      22.037  26.163  41.117  1.00  0.00     0.199 C 
BRANCH  30  31
HETATM   31  O2  UNL     1      22.799  26.260  39.936  1.00  0.00    -0.398 OA
ATOM     32  H2  UNL     1      22.498  25.632  39.290  1.00  0.00     0.209 HD
ENDBRANCH  30  31
ENDBRANCH   4  30
TORSDOF 11
ENDMDL
MODEL 3
REMARK VINA RESULT: -6.106495900      2.163      5.683
REMARK  11 active torsions:
REMARK  status: ('A' for Active; 'I' for Inactive)
REMARK    1  A    between atoms: N1_1  and  C1_4 
REMARK    2  A    between atoms: C2_7  and  N3_8 
REMARK    3  A    between atoms: N4_11  and  C3_12 
REMARK    4  A    between atoms: C5_14  and  O1_15 
REMARK    5  A    between atoms: C5_14  and  C6_17 
REMARK    6  A    between atoms: C6_17  and  N5_18 
REMARK    7  A    between atoms: N5_18  and  C7_20 
REMARK    8  A    between atoms: C7_20  and  C8_21 
REMARK    9  A    between atoms: C8_21  and  N6_22 
REMARK   10  A    between atoms: C9_26  and  C10_27 
REMARK   11  A    between atoms: C10_27  and  O2_28 
ROOT
HETATM    1  C3  UNL     1      22.761  30.067  39.068  1.00  0.00     0.267 C 
HETATM    2  C4  UNL     1      21.670  29.057  38.948  1.00  0.00     0.102 C 
HETATM    3  C5  UNL     1      20.450  30.053  39.087  1.00  0.00     0.121 C 
HETATM    4  C9  UNL     1      21.001  30.882  40.181  1.00  0.00     0.187 C 
HETATM    5  O3  UNL     1      22.308  31.158  39.745  1.00  0.00    -0.353 OA
ENDROOT
BRANCH   1   6
HETATM    6  N4  UNL     1      23.981  29.518  39.628  1.00  0.00    -0.079 N 
HETATM    7  C2  UNL     1      25.182  30.044  39.824  1.00  0.00     0.710 A 
HETATM    8  N2  UNL     1      25.978  29.110  40.380  1.00  0.00    -0.020 N 
HETATM    9  C1  UNL     1      25.270  27.977  40.538  1.00  0.00     0.705 A 
ATOM     10  H2  UNL     1      26.956  29.241  40.639  1.00  0.00     0.203 HD
HETATM   11  N7  UNL     1      24.040  28.261  40.064  1.00  0.00    -0.113 N 
ATOM     12  H7  UNL     1      23.261  27.603  40.043  1.00  0.00     0.206 HD
BRANCH   7  13
HETATM   13  N3  UNL     1      25.500  31.270  39.511  1.00  0.00    -0.233 N 
ATOM     14  H32 UNL     1      26.167  31.837  40.034  1.00  0.00     0.174 HD
ATOM     15  H31 UNL     1      25.141  31.822  38.733  1.00  0.00     0.174 HD
ENDBRANCH   7  13
BRANCH   9  16
HETATM   16  N1  UNL     1      25.746  26.890  41.045  1.00  0.00    -0.233 N 
ATOM     17  H12 UNL     1      25.290  26.150  41.579  1.00  0.00     0.174 HD
ATOM     18  H11 UNL     1      26.722  26.605  40.974  1.00  0.00     0.174 HD
ENDBRANCH   9  16
ENDBRANCH   1   6
BRANCH   3  19
HETATM   19  O1  UNL     1      20.478  30.708  37.874  1.00  0.00    -0.382 OA
ATOM     20  H1  UNL     1      20.297  31.604  38.132  1.00  0.00     0.211 HD
ENDBRANCH   3  19
BRANCH   3  21
HETATM   21  C6  UNL     1      19.231  29.258  39.329  1.00  0.00     0.096 C 
BRANCH  21  22
HETATM   22  N5  UNL     1      19.451  27.905  39.606  1.00  0.00    -0.398 N 
ATOM     23  H5  UNL     1      20.075  27.379  38.994  1.00  0.00     0.158 HD
BRANCH  22  24
HETATM   24  C7  UNL     1      18.858  27.240  40.682  1.00  0.00     0.146 C 
BRANCH  24  25
HETATM   25  C8  UNL     1      19.922  26.690  41.658  1.00  0.00     0.249 C 
BRANCH  25  26
HETATM   26  N6  UNL     1      19.755  27.296  42.944  1.00  0.00    -0.078 N 
ATOM     27  H63 UNL     1      18.775  27.333  43.227  1.00  0.00     0.274 HD
ATOM     28  H62 UNL     1      20.103  26.703  43.697  1.00  0.00     0.274 HD
ATOM     29  H61 UNL     1      20.191  28.218  42.948  1.00  0.00     0.274 HD
ENDBRANCH  25  26
ENDBRANCH  24  25
ENDBRANCH  22  24
ENDBRANCH  21  22
ENDBRANCH   3  21
BRANCH   4  30
HETATM   30  C10 UNL     1      21.033  30.225  41.542  1.00  0.00     0.199 C 
BRANCH  30  31
HETATM   31  O2  UNL     1      19.907  30.602  42.302  1.00  0.00    -0.398 OA
ATOM     32  H2  UNL     1      19.181  30.011  42.140  1.00  0.00     0.209 HD
ENDBRANCH  30  31
ENDBRANCH   4  30
TORSDOF 11
ENDMDL
MODEL 4
REMARK VINA RESULT: -6.074241395      2.298      5.948
REMARK  11 active torsions:
REMARK  status: ('A' for Active; 'I' for Inactive)
REMARK    1  A    between atoms: N1_1  and  C1_4 
REMARK    2  A    between atoms: C2_7  and  N3_8 
REMARK    3  A    between atoms: N4_11  and  C3_12 
REMARK    4  A    between atoms: C5_14  and  O1_15 
REMARK    5  A    between atoms: C5_14  and  C6_17 
REMARK    6  A    between atoms: C6_17  and  N5_18 
REMARK    7  A    between atoms: N5_18  and  C7_20 
REMARK    8  A    between atoms: C7_20  and  C8_21 
REMARK    9  A    between atoms: C8_21  and  N6_22 
REMARK   10  A    between atoms: C9_26  and  C10_27 
REMARK   11  A    between atoms: C10_27  and  O2_28 
ROOT
HETATM    1  C3  UNL     1      21.918  27.336  39.878  1.00  0.00     0.267 C 
HETATM    2  C4  UNL     1      22.039  26.952  41.314  1.00  0.00     0.102 C 
HETATM    3  C5  UNL     1      20.900  25.856  41.333  1.00  0.00     0.121 C 
HETATM    4  C9  UNL     1      19.908  26.594  40.521  1.00  0.00     0.187 C 
HETATM    5  O3  UNL     1      20.665  27.048  39.428  1.00  0.00    -0.353 OA
ENDROOT
BRANCH   1   6
HETATM    6  N4  UNL     1      22.310  28.708  39.624  1.00  0.00    -0.079 N 
HETATM    7  C2  UNL     1      21.768  29.662  38.880  1.00  0.00     0.710 A 
HETATM    8  N2  UNL     1      22.526  30.771  38.979  1.00  0.00    -0.020 N 
HETATM    9  C1  UNL     1      23.563  30.515  39.796  1.00  0.00     0.705 A 
ATOM     10  H2  UNL     1      22.344  31.659  38.510  1.00  0.00     0.203 HD
HETATM   11  N7  UNL     1      23.402  29.232  40.178  1.00  0.00    -0.113 N 
ATOM     12  H7  UNL     1      24.030  28.731  40.807  1.00  0.00     0.206 HD
BRANCH   7  13
HETATM   13  N3  UNL     1      20.678  29.508  38.180  1.00  0.00    -0.233 N 
ATOM     14  H32 UNL     1      20.667  29.287  37.184  1.00  0.00     0.174 HD
ATOM     15  H31 UNL     1      19.716  29.586  38.508  1.00  0.00     0.174 HD
ENDBRANCH   7  13
BRANCH   9  16
HETATM   16  N1  UNL     1      24.478  31.374  40.098  1.00  0.00    -0.233 N 
ATOM     17  H12 UNL     1      24.686  31.840  40.981  1.00  0.00     0.174 HD
ATOM     18  H11 UNL     1      25.170  31.729  39.439  1.00  0.00     0.174 HD
ENDBRANCH   9  16
ENDBRANCH   1   6
BRANCH   3  19
HETATM   19  O1  UNL     1      21.486  24.826  40.628  1.00  0.00    -0.382 OA
ATOM     20  H1  UNL     1      21.092  24.062  41.034  1.00  0.00     0.211 HD
ENDBRANCH   3  19
BRANCH   3  21
HETATM   21  C6  UNL     1      20.588  25.539  42.739  1.00  0.00     0.096 C 
BRANCH  21  22
HETATM   22  N5  UNL     1      21.548  25.955  43.668  1.00  0.00    -0.398 N 
ATOM     23  H5  UNL     1      22.534  25.866  43.420  1.00  0.00     0.158 HD
BRANCH  22  24
HETATM   24  C7  UNL     1      21.221  26.486  44.918  1.00  0.00     0.146 C 
BRANCH  24  25
HETATM   25  C8  UNL     1      19.816  27.129  44.905  1.00  0.00     0.249 C 
BRANCH  25  26
HETATM   26  N6  UNL     1      19.797  28.261  45.780  1.00  0.00    -0.078 N 
ATOM     27  H63 UNL     1      19.462  28.020  46.714  1.00  0.00     0.274 HD
ATOM     28  H62 UNL     1      20.737  28.565  46.036  1.00  0.00     0.274 HD
ATOM     29  H61 UNL     1      19.251  29.012  45.359  1.00  0.00     0.274 HD
ENDBRANCH  25  26
ENDBRANCH  24  25
ENDBRANCH  22  24
ENDBRANCH  21  22
ENDBRANCH   3  21
BRANCH   4  30
HETATM   30  C10 UNL     1      19.240  27.760  41.213  1.00  0.00     0.199 C 
BRANCH  30  31
HETATM   31  O2  UNL     1      18.596  28.592  40.274  1.00  0.00    -0.398 OA
ATOM     32  H2  UNL     1      17.981  29.171  40.707  1.00  0.00     0.209 HD
ENDBRANCH  30  31
ENDBRANCH   4  30
TORSDOF 11
ENDMDL
MODEL 5
REMARK VINA RESULT: -6.068344835      1.753      1.972
REMARK  11 active torsions:
REMARK  status: ('A' for Active; 'I' for Inactive)
REMARK    1  A    between atoms: N1_1  and  C1_4 
REMARK    2  A    between atoms: C2_7  and  N3_8 
REMARK    3  A    between atoms: N4_11  and  C3_12 
REMARK    4  A    between atoms: C5_14  and  O1_15 
REMARK    5  A    between atoms: C5_14  and  C6_17 
REMARK    6  A    between atoms: C6_17  and  N5_18 
REMARK    7  A    between atoms: N5_18  and  C7_20 
REMARK    8  A    between atoms: C7_20  and  C8_21 
REMARK    9  A    between atoms: C8_21  and  N6_22 
REMARK   10  A    between atoms: C9_26  and  C10_27 
REMARK   11  A    between atoms: C10_27  and  O2_28 
ROOT
HETATM    1  C3  UNL     1      21.514  28.885  40.112  1.00  0.00     0.267 C 
HETATM    2  C4  UNL     1      22.230  30.069  40.669  1.00  0.00     0.102 C 
HETATM    3  C5  UNL     1      23.371  30.155  39.577  1.00  0.00     0.121 C 
HETATM    4  C9  UNL     1      23.652  28.706  39.477  1.00  0.00     0.187 C 
HETATM    5  O3  UNL     1      22.371  28.140  39.359  1.00  0.00    -0.353 OA
ENDROOT
BRANCH   1   6
HETATM    6  N4  UNL     1      20.829  28.108  41.126  1.00  0.00    -0.079 N 
HETATM    7  C2  UNL     1      20.032  27.052  41.046  1.00  0.00     0.710 A 
HETATM    8  N2  UNL     1      19.649  26.704  42.290  1.00  0.00    -0.020 N 
HETATM    9  C1  UNL     1      20.211  27.553  43.169  1.00  0.00     0.705 A 
ATOM     10  H2  UNL     1      19.035  25.925  42.526  1.00  0.00     0.203 HD
HETATM   11  N7  UNL     1      20.934  28.409  42.419  1.00  0.00    -0.113 N 
ATOM     12  H7  UNL     1      21.486  29.181  42.791  1.00  0.00     0.206 HD
BRANCH   7  13
HETATM   13  N3  UNL     1      19.697  26.476  39.925  1.00  0.00    -0.233 N 
ATOM     14  H32 UNL     1      19.674  25.465  39.788  1.00  0.00     0.174 HD
ATOM     15  H31 UNL     1      19.423  26.930  39.054  1.00  0.00     0.174 HD
ENDBRANCH   7  13
BRANCH   9  16
HETATM   16  N1  UNL     1      20.041  27.491  44.446  1.00  0.00    -0.233 N 
ATOM     17  H12 UNL     1      20.283  26.758  45.115  1.00  0.00     0.174 HD
ATOM     18  H11 UNL     1      19.608  28.227  45.003  1.00  0.00     0.174 HD
ENDBRANCH   9  16
ENDBRANCH   1   6
BRANCH   3  19
HETATM   19  O1  UNL     1      22.680  30.627  38.482  1.00  0.00    -0.382 OA
ATOM     20  H1  UNL     1      22.681  31.565  38.640  1.00  0.00     0.211 HD
ENDBRANCH   3  19
BRANCH   3  21
HETATM   21  C6  UNL     1      24.422  31.060  40.079  1.00  0.00     0.096 C 
BRANCH  21  22
HETATM   22  N5  UNL     1      25.432  31.362  39.159  1.00  0.00    -0.398 N 
ATOM     23  H5  UNL     1      25.214  31.313  38.164  1.00  0.00     0.158 HD
BRANCH  22  24
HETATM   24  C7  UNL     1      26.726  31.728  39.539  1.00  0.00     0.146 C 
BRANCH  24  25
HETATM   25  C8  UNL     1      27.686  30.517  39.501  1.00  0.00     0.249 C 
BRANCH  25  26
HETATM   26  N6  UNL     1      27.396  29.709  38.355  1.00  0.00    -0.078 N 
ATOM     27  H63 UNL     1      26.536  29.173  38.470  1.00  0.00     0.274 HD
ATOM     28  H62 UNL     1      27.114  30.270  37.551  1.00  0.00     0.274 HD
ATOM     29  H61 UNL     1      28.196  29.112  38.145  1.00  0.00     0.274 HD
ENDBRANCH  25  26
ENDBRANCH  24  25
ENDBRANCH  22  24
ENDBRANCH  21  22
ENDBRANCH   3  21
BRANCH   4  30
HETATM   30  C10 UNL     1      24.383  28.103  40.654  1.00  0.00     0.199 C 
BRANCH  30  31
HETATM   31  O2  UNL     1      25.713  27.791  40.306  1.00  0.00    -0.398 OA
ATOM     32  H2  UNL     1      26.295  28.504  40.538  1.00  0.00     0.209 HD
ENDBRANCH  30  31
ENDBRANCH   4  30
TORSDOF 11
ENDMDL
