MODEL 1
REMARK VINA RESULT: -5.690047648      0.000      0.000
REMARK  13 active torsions:
REMARK  status: ('A' for Active; 'I' for Inactive)
REMARK    1  A    between atoms: N1_1  and  C1_5 
REMARK    2  A    between atoms: C1_5  and  C2_6 
REMARK    3  A    between atoms: C2_6  and  C3_7 
REMARK    4  A    between atoms: C3_7  and  C4_8 
REMARK    5  A    between atoms: C4_8  and  N2_9 
REMARK    6  A    between atoms: N2_9  and  C5_11 
REMARK    7  A    between atoms: C5_11  and  C6_12 
REMARK    8  A    between atoms: C6_12  and  N3_13 
REMARK    9  A    between atoms: C7_18  and  N4_19 
REMARK   10  A    between atoms: C8_23  and  O2_24 
REMARK   11  A    between atoms: C9_26  and  O3_27 
REMARK   12  A    between atoms: C10_29  and  O4_30 
REMARK   13  A    between atoms: C11_32  and  N5_33 
ROOT
HETATM    1  C4  UNL     1      22.807  29.097  40.399  1.00  0.00     0.164 C 
HETATM    2  O1  UNL     1      21.935  28.628  41.314  1.00  0.00    -0.324 OA
HETATM    3  C7  UNL     1      20.784  29.234  41.641  1.00  0.00     0.352 C 
HETATM    4  C8  UNL     1      19.637  29.111  40.696  1.00  0.00     0.205 C 
HETATM    5  C9  UNL     1      19.847  28.871  39.288  1.00  0.00     0.182 C 
HETATM    6  C10 UNL     1      21.077  29.290  38.578  1.00  0.00     0.184 C 
HETATM    7  C11 UNL     1      22.361  28.669  39.064  1.00  0.00     0.269 C 
ENDROOT
BRANCH   1   8
HETATM    8  C3  UNL     1      23.175  30.559  40.503  1.00  0.00     0.065 C 
BRANCH   8   9
HETATM    9  C2  UNL     1      24.559  30.722  39.910  1.00  0.00     0.032 C 
BRANCH   9  10
HETATM   10  C1  UNL     1      25.224  31.894  40.635  1.00  0.00     0.230 C 
BRANCH  10  11
HETATM   11  N1  UNL     1      25.972  32.707  39.688  1.00  0.00    -0.079 N 
ATOM     12  H13 UNL     1      26.636  32.151  39.149  1.00  0.00     0.274 HD
ATOM     13  H12 UNL     1      25.388  33.030  38.918  1.00  0.00     0.274 HD
ATOM     14  H11 UNL     1      26.427  33.480  40.173  1.00  0.00     0.274 HD
ENDBRANCH  10  11
ENDBRANCH   9  10
ENDBRANCH   8   9
ENDBRANCH   1   8
BRANCH   1  15
HETATM   15  N2  UNL     1      24.080  28.476  40.719  1.00  0.00    -0.388 N 
ATOM     16  H2  UNL     1      24.956  28.870  40.374  1.00  0.00     0.156 HD
BRANCH  15  17
HETATM   17  C5  UNL     1      24.073  27.312  41.519  1.00  0.00     0.144 C 
BRANCH  17  18
HETATM   18  C6  UNL     1      25.195  26.399  40.971  1.00  0.00     0.248 C 
BRANCH  18  19
HETATM   19  N3  UNL     1      25.679  26.886  39.699  1.00  0.00    -0.078 N 
ATOM     20  H33 UNL     1      24.914  27.179  39.092  1.00  0.00     0.274 HD
ATOM     21  H32 UNL     1      26.152  27.785  39.795  1.00  0.00     0.274 HD
ATOM     22  H31 UNL     1      26.276  26.193  39.248  1.00  0.00     0.274 HD
ENDBRANCH  18  19
ENDBRANCH  17  18
ENDBRANCH  15  17
ENDBRANCH   1  15
BRANCH   7  23
HETATM   23  N5  UNL     1      22.055  27.249  39.112  1.00  0.00    -0.068 N 
ATOM     24  H53 UNL     1      21.711  26.893  38.220  1.00  0.00     0.275 HD
ATOM     25  H52 UNL     1      22.893  26.670  39.180  1.00  0.00     0.275 HD
ATOM     26  H51 UNL     1      21.402  27.083  39.877  1.00  0.00     0.275 HD
ENDBRANCH   7  23
BRANCH   3  27
HETATM   27  N4  UNL     1      20.904  30.579  42.190  1.00  0.00    -0.050 N 
ATOM     28  H43 UNL     1      20.563  30.592  43.151  1.00  0.00     0.277 HD
ATOM     29  H42 UNL     1      21.887  30.804  42.342  1.00  0.00     0.277 HD
ATOM     30  H41 UNL     1      20.456  31.322  41.654  1.00  0.00     0.277 HD
ENDBRANCH   3  27
BRANCH   6  31
HETATM   31  O4  UNL     1      21.143  30.646  38.303  1.00  0.00    -0.391 OA
ATOM     32  H4  UNL     1      21.609  31.155  38.955  1.00  0.00     0.210 HD
ENDBRANCH   6  31
BRANCH   4  33
HETATM   33  O2  UNL     1      18.855  30.284  40.882  1.00  0.00    -0.389 OA
ATOM     34  H2  UNL     1      19.271  30.957  40.356  1.00  0.00     0.210 HD
ENDBRANCH   4  33
BRANCH   5  35
HETATM   35  O3  UNL     1      19.595  27.515  38.938  1.00  0.00    -0.390 OA
ATOM     36  H3  UNL     1      20.277  27.162  38.380  1.00  0.00     0.210 HD
ENDBRANCH   5  35
TORSDOF 13
ENDMDL
MODEL 2
REMARK VINA RESULT: -5.658907998      2.269      4.732
REMARK  13 active torsions:
REMARK  status: ('A' for Active; 'I' for Inactive)
REMARK    1  A    between atoms: N1_1  and  C1_5 
REMARK    2  A    between atoms: C1_5  and  C2_6 
REMARK    3  A    between atoms: C2_6  and  C3_7 
REMARK    4  A    between atoms: C3_7  and  C4_8 
REMARK    5  A    between atoms: C4_8  and  N2_9 
REMARK    6  A    between atoms: N2_9  and  C5_11 
REMARK    7  A    between atoms: C5_11  and  C6_12 
REMARK    8  A    between atoms: C6_12  and  N3_13 
REMARK    9  A    between atoms: C7_18  and  N4_19 
REMARK   10  A    between atoms: C8_23  and  O2_24 
REMARK   11  A    between atoms: C9_26  and  O3_27 
REMARK   12  A    between atoms: C10_29  and  O4_30 
REMARK   13  A    between atoms: C11_32  and  N5_33 
ROOT
HETATM    1  C4  UNL     1      21.799  28.794  40.701  1.00  0.00     0.164 C 
HETATM    2  O1  UNL     1      22.948  28.193  41.073  1.00  0.00    -0.324 OA
HETATM    3  C7  UNL     1      23.964  27.921  40.240  1.00  0.00     0.352 C 
HETATM    4  C8  UNL     1      24.853  29.046  39.834  1.00  0.00     0.205 C 
HETATM    5  C9  UNL     1      24.384  30.412  39.833  1.00  0.00     0.182 C 
HETATM    6  C10 UNL     1      22.958  30.769  39.652  1.00  0.00     0.184 C 
HETATM    7  C11 UNL     1      22.011  30.249  40.702  1.00  0.00     0.269 C 
ENDROOT
BRANCH   1   8
HETATM    8  C3  UNL     1      21.127  28.255  39.461  1.00  0.00     0.065 C 
BRANCH   8   9
HETATM    9  C2  UNL     1      19.633  28.433  39.641  1.00  0.00     0.032 C 
BRANCH   9  10
HETATM   10  C1  UNL     1      19.267  29.791  39.038  1.00  0.00     0.230 C 
BRANCH  10  11
HETATM   11  N1  UNL     1      19.874  29.934  37.724  1.00  0.00    -0.079 N 
ATOM     12  H13 UNL     1      20.865  30.167  37.784  1.00  0.00     0.274 HD
ATOM     13  H12 UNL     1      19.960  29.039  37.244  1.00  0.00     0.274 HD
ATOM     14  H11 UNL     1      19.355  30.617  37.171  1.00  0.00     0.274 HD
ENDBRANCH  10  11
ENDBRANCH   9  10
ENDBRANCH   8   9
ENDBRANCH   1   8
BRANCH   1  15
HETATM   15  N2  UNL     1      20.824  28.434  41.714  1.00  0.00    -0.388 N 
ATOM     16  H2  UNL     1      19.930  28.921  41.777  1.00  0.00     0.156 HD
BRANCH  15  17
HETATM   17  C5  UNL     1      21.146  27.391  42.611  1.00  0.00     0.144 C 
BRANCH  17  18
HETATM   18  C6  UNL     1      20.993  27.977  44.034  1.00  0.00     0.248 C 
BRANCH  18  19
HETATM   19  N3  UNL     1      22.138  27.648  44.852  1.00  0.00    -0.078 N 
ATOM     20  H33 UNL     1      21.951  26.847  45.456  1.00  0.00     0.274 HD
ATOM     21  H32 UNL     1      22.896  27.249  44.298  1.00  0.00     0.274 HD
ATOM     22  H31 UNL     1      22.448  28.459  45.387  1.00  0.00     0.274 HD
ENDBRANCH  18  19
ENDBRANCH  17  18
ENDBRANCH  15  17
ENDBRANCH   1  15
BRANCH   7  23
HETATM   23  N5  UNL     1      22.651  30.623  41.953  1.00  0.00    -0.068 N 
ATOM     24  H53 UNL     1      22.182  31.403  42.414  1.00  0.00     0.275 HD
ATOM     25  H52 UNL     1      22.516  29.925  42.685  1.00  0.00     0.275 HD
ATOM     26  H51 UNL     1      23.636  30.812  41.770  1.00  0.00     0.275 HD
ENDBRANCH   7  23
BRANCH   3  27
HETATM   27  N4  UNL     1      23.656  27.031  39.128  1.00  0.00    -0.050 N 
ATOM     28  H43 UNL     1      23.820  26.063  39.403  1.00  0.00     0.277 HD
ATOM     29  H42 UNL     1      22.648  27.008  38.971  1.00  0.00     0.277 HD
ATOM     30  H41 UNL     1      24.139  27.228  38.251  1.00  0.00     0.277 HD
ENDBRANCH   3  27
BRANCH   6  31
HETATM   31  O4  UNL     1      22.507  30.670  38.347  1.00  0.00    -0.391 OA
ATOM     32  H4  UNL     1      21.563  30.606  38.263  1.00  0.00     0.210 HD
ENDBRANCH   6  31
BRANCH   4  33
HETATM   33  O2  UNL     1      25.351  28.700  38.548  1.00  0.00    -0.389 OA
ATOM     34  H2  UNL     1      26.044  29.323  38.363  1.00  0.00     0.210 HD
ENDBRANCH   4  33
BRANCH   5  35
HETATM   35  O3  UNL     1      24.865  31.137  40.958  1.00  0.00    -0.390 OA
ATOM     36  H3  UNL     1      25.394  31.882  40.699  1.00  0.00     0.210 HD
ENDBRANCH   5  35
TORSDOF 13
ENDMDL
MODEL 3
REMARK VINA RESULT: -5.572213144      2.201      4.003
REMARK  13 active torsions:
REMARK  status: ('A' for Active; 'I' for Inactive)
REMARK    1  A    between atoms: N1_1  and  C1_5 
REMARK    2  A    between atoms: C1_5  and  C2_6 
REMARK    3  A    between atoms: C2_6  and  C3_7 
REMARK    4  A    between atoms: C3_7  and  C4_8 
REMARK    5  A    between atoms: C4_8  and  N2_9 
REMARK    6  A    between atoms: N2_9  and  C5_11 
REMARK    7  A    between atoms: C5_11  and  C6_12 
REMARK    8  A    between atoms: C6_12  and  N3_13 
REMARK    9  A    between atoms: C7_18  and  N4_19 
REMARK   10  A    between atoms: C8_23  and  O2_24 
REMARK   11  A    between atoms: C9_26  and  O3_27 
REMARK   12  A    between atoms: C10_29  and  O4_30 
REMARK   13  A    between atoms: C11_32  and  N5_33 
ROOT
HETATM    1  C4  UNL     1      21.682  28.005  41.427  1.00  0.00     0.164 C 
HETATM    2  O1  UNL     1      21.388  27.867  40.118  1.00  0.00    -0.324 OA
HETATM    3  C7  UNL     1      20.252  28.294  39.548  1.00  0.00     0.352 C 
HETATM    4  C8  UNL     1      20.113  29.753  39.278  1.00  0.00     0.205 C 
HETATM    5  C9  UNL     1      20.839  30.733  40.050  1.00  0.00     0.182 C 
HETATM    6  C10 UNL     1      21.276  30.491  41.443  1.00  0.00     0.184 C 
HETATM    7  C11 UNL     1      22.239  29.349  41.642  1.00  0.00     0.269 C 
ENDROOT
BRANCH   1   8
HETATM    8  C3  UNL     1      20.604  27.604  42.406  1.00  0.00     0.065 C 
BRANCH   8   9
HETATM    9  C2  UNL     1      21.260  27.443  43.762  1.00  0.00     0.032 C 
BRANCH   9  10
HETATM   10  C1  UNL     1      20.272  27.968  44.805  1.00  0.00     0.230 C 
BRANCH  10  11
HETATM   11  N1  UNL     1      20.816  27.789  46.143  1.00  0.00    -0.079 N 
ATOM     12  H13 UNL     1      21.516  28.496  46.368  1.00  0.00     0.274 HD
ATOM     13  H12 UNL     1      20.134  28.018  46.866  1.00  0.00     0.274 HD
ATOM     14  H11 UNL     1      21.181  26.842  46.248  1.00  0.00     0.274 HD
ENDBRANCH  10  11
ENDBRANCH   9  10
ENDBRANCH   8   9
ENDBRANCH   1   8
BRANCH   1  15
HETATM   15  N2  UNL     1      22.690  26.999  41.709  1.00  0.00    -0.388 N 
ATOM     16  H2  UNL     1      23.288  27.074  42.533  1.00  0.00     0.156 HD
BRANCH  15  17
HETATM   17  C5  UNL     1      22.822  25.915  40.813  1.00  0.00     0.144 C 
BRANCH  17  18
HETATM   18  C6  UNL     1      24.197  26.082  40.127  1.00  0.00     0.248 C 
BRANCH  18  19
HETATM   19  N3  UNL     1      24.058  26.743  38.849  1.00  0.00    -0.078 N 
ATOM     20  H33 UNL     1      23.662  26.121  38.145  1.00  0.00     0.274 HD
ATOM     21  H32 UNL     1      23.319  27.446  38.867  1.00  0.00     0.274 HD
ATOM     22  H31 UNL     1      24.947  27.139  38.546  1.00  0.00     0.274 HD
ENDBRANCH  18  19
ENDBRANCH  17  18
ENDBRANCH  15  17
ENDBRANCH   1  15
BRANCH   7  23
HETATM   23  N5  UNL     1      23.265  29.591  40.641  1.00  0.00    -0.068 N 
ATOM     24  H53 UNL     1      23.478  28.758  40.091  1.00  0.00     0.275 HD
ATOM     25  H52 UNL     1      22.935  30.182  39.877  1.00  0.00     0.275 HD
ATOM     26  H51 UNL     1      24.088  29.974  41.105  1.00  0.00     0.275 HD
ENDBRANCH   7  23
BRANCH   3  27
HETATM   27  N4  UNL     1      19.020  27.709  40.064  1.00  0.00    -0.050 N 
ATOM     28  H43 UNL     1      19.012  27.762  41.082  1.00  0.00     0.277 HD
ATOM     29  H42 UNL     1      18.230  28.314  39.843  1.00  0.00     0.277 HD
ATOM     30  H41 UNL     1      18.821  26.754  39.765  1.00  0.00     0.277 HD
ENDBRANCH   3  27
BRANCH   6  31
HETATM   31  O4  UNL     1      20.263  30.581  42.383  1.00  0.00    -0.391 OA
ATOM     32  H4  UNL     1      20.090  29.773  42.850  1.00  0.00     0.210 HD
ENDBRANCH   6  31
BRANCH   4  33
HETATM   33  O2  UNL     1      18.718  30.025  39.330  1.00  0.00    -0.389 OA
ATOM     34  H2  UNL     1      18.503  30.434  38.501  1.00  0.00     0.210 HD
ENDBRANCH   4  33
BRANCH   5  35
HETATM   35  O3  UNL     1      21.958  31.247  39.335  1.00  0.00    -0.390 OA
ATOM     36  H3  UNL     1      22.676  31.468  39.916  1.00  0.00     0.210 HD
ENDBRANCH   5  35
TORSDOF 13
ENDMDL
MODEL 4
REMARK VINA RESULT: -5.527158453      2.366      4.063
REMARK  13 active torsions:
REMARK  status: ('A' for Active; 'I' for Inactive)
REMARK    1  A    between atoms: N1_1  and  C1_5 
REMARK    2  A    between atoms: C1_5  and  C2_6 
REMARK    3  A    between atoms: C2_6  and  C3_7 
REMARK    4  A    between atoms: C3_7  and  C4_8 
REMARK    5  A    between atoms: C4_8  and  N2_9 
REMARK    6  A    between atoms: N2_9  and  C5_11 
REMARK    7  A    between atoms: C5_11  and  C6_12 
REMARK    8  A    between atoms: C6_12  and  N3_13 
REMARK    9  A    between atoms: C7_18  and  N4_19 
REMARK   10  A    between atoms: C8_23  and  O2_24 
REMARK   11  A    between atoms: C9_26  and  O3_27 
REMARK   12  A    between atoms: C10_29  and  O4_30 
REMARK   13  A    between atoms: C11_32  and  N5_33 
ROOT
HETATM    1  C4  UNL     1      21.777  28.026  41.229  1.00  0.00     0.164 C 
HETATM    2  O1  UNL     1      21.319  27.635  40.023  1.00  0.00    -0.324 OA
HETATM    3  C7  UNL     1      20.191  28.090  39.458  1.00  0.00     0.352 C 
HETATM    4  C8  UNL     1      20.217  29.449  38.847  1.00  0.00     0.205 C 
HETATM    5  C9  UNL     1      21.151  30.456  39.292  1.00  0.00     0.182 C 
HETATM    6  C10 UNL     1      21.710  30.480  40.663  1.00  0.00     0.184 C 
HETATM    7  C11 UNL     1      22.529  29.279  41.060  1.00  0.00     0.269 C 
ENDROOT
BRANCH   1   8
HETATM    8  C3  UNL     1      20.776  28.038  42.360  1.00  0.00     0.065 C 
BRANCH   8   9
HETATM    9  C2  UNL     1      21.558  28.045  43.658  1.00  0.00     0.032 C 
BRANCH   9  10
HETATM   10  C1  UNL     1      20.544  27.886  44.794  1.00  0.00     0.230 C 
BRANCH  10  11
HETATM   11  N1  UNL     1      21.230  27.546  46.031  1.00  0.00    -0.079 N 
ATOM     12  H13 UNL     1      22.238  27.463  45.898  1.00  0.00     0.274 HD
ATOM     13  H12 UNL     1      21.231  28.322  46.692  1.00  0.00     0.274 HD
ATOM     14  H11 UNL     1      20.827  26.700  46.434  1.00  0.00     0.274 HD
ENDBRANCH  10  11
ENDBRANCH   9  10
ENDBRANCH   8   9
ENDBRANCH   1   8
BRANCH   1  15
HETATM   15  N2  UNL     1      22.669  26.969  41.671  1.00  0.00    -0.388 N 
ATOM     16  H2  UNL     1      23.200  27.059  42.538  1.00  0.00     0.156 HD
BRANCH  15  17
HETATM   17  C5  UNL     1      22.784  25.813  40.867  1.00  0.00     0.144 C 
BRANCH  17  18
HETATM   18  C6  UNL     1      22.048  24.682  41.623  1.00  0.00     0.248 C 
BRANCH  18  19
HETATM   19  N3  UNL     1      20.655  24.630  41.242  1.00  0.00    -0.078 N 
ATOM     20  H33 UNL     1      20.503  25.027  40.315  1.00  0.00     0.274 HD
ATOM     21  H32 UNL     1      20.351  23.675  41.053  1.00  0.00     0.274 HD
ATOM     22  H31 UNL     1      20.068  25.079  41.946  1.00  0.00     0.274 HD
ENDBRANCH  18  19
ENDBRANCH  17  18
ENDBRANCH  15  17
ENDBRANCH   1  15
BRANCH   7  23
HETATM   23  N5  UNL     1      23.456  29.117  39.952  1.00  0.00    -0.068 N 
ATOM     24  H53 UNL     1      23.813  28.165  39.878  1.00  0.00     0.275 HD
ATOM     25  H52 UNL     1      22.992  29.165  39.044  1.00  0.00     0.275 HD
ATOM     26  H51 UNL     1      24.200  29.808  40.047  1.00  0.00     0.275 HD
ENDBRANCH   7  23
BRANCH   3  27
HETATM   27  N4  UNL     1      18.961  27.841  40.199  1.00  0.00    -0.050 N 
ATOM     28  H43 UNL     1      19.030  26.954  40.697  1.00  0.00     0.277 HD
ATOM     29  H42 UNL     1      18.894  28.487  40.986  1.00  0.00     0.277 HD
ATOM     30  H41 UNL     1      18.099  27.866  39.654  1.00  0.00     0.277 HD
ENDBRANCH   3  27
BRANCH   6  31
HETATM   31  O4  UNL     1      20.833  30.944  41.628  1.00  0.00    -0.391 OA
ATOM     32  H4  UNL     1      20.596  31.858  41.535  1.00  0.00     0.210 HD
ENDBRANCH   6  31
BRANCH   4  33
HETATM   33  O2  UNL     1      18.886  29.941  38.942  1.00  0.00    -0.389 OA
ATOM     34  H2  UNL     1      18.941  30.738  39.456  1.00  0.00     0.210 HD
ENDBRANCH   4  33
BRANCH   5  35
HETATM   35  O3  UNL     1      22.238  30.607  38.386  1.00  0.00    -0.390 OA
ATOM     36  H3  UNL     1      23.066  30.705  38.841  1.00  0.00     0.210 HD
ENDBRANCH   5  35
TORSDOF 13
ENDMDL
MODEL 5
REMARK VINA RESULT: -5.513679064      1.469      3.726
REMARK  13 active torsions:
REMARK  status: ('A' for Active; 'I' for Inactive)
REMARK    1  A    between atoms: N1_1  and  C1_5 
REMARK    2  A    between atoms: C1_5  and  C2_6 
REMARK    3  A    between atoms: C2_6  and  C3_7 
REMARK    4  A    between atoms: C3_7  and  C4_8 
REMARK    5  A    between atoms: C4_8  and  N2_9 
REMARK    6  A    between atoms: N2_9  and  C5_11 
REMARK    7  A    between atoms: C5_11  and  C6_12 
REMARK    8  A    between atoms: C6_12  and  N3_13 
REMARK    9  A    between atoms: C7_18  and  N4_19 
REMARK   10  A    between atoms: C8_23  and  O2_24 
REMARK   11  A    between atoms: C9_26  and  O3_27 
REMARK   12  A    between atoms: C10_29  and  O4_30 
REMARK   13  A    between atoms: C11_32  and  N5_33 
ROOT
HETATM    1  C4  UNL     1      22.786  29.347  40.268  1.00  0.00     0.164 C 
HETATM    2  O1  UNL     1      22.171  30.454  39.804  1.00  0.00    -0.324 OA
HETATM    3  C7  UNL     1      20.993  30.453  39.163  1.00  0.00     0.352 C 
HETATM    4  C8  UNL     1      19.756  30.283  39.977  1.00  0.00     0.205 C 
HETATM    5  C9  UNL     1      19.783  29.603  41.251  1.00  0.00     0.182 C 
HETATM    6  C10 UNL     1      20.785  28.567  41.585  1.00  0.00     0.184 C 
HETATM    7  C11 UNL     1      22.223  29.017  41.586  1.00  0.00     0.269 C 
ENDROOT
BRANCH   1   8
HETATM    8  C3  UNL     1      22.885  28.180  39.314  1.00  0.00     0.065 C 
BRANCH   8   9
HETATM    9  C2  UNL     1      23.918  27.223  39.873  1.00  0.00     0.032 C 
BRANCH   9  10
HETATM   10  C1  UNL     1      24.713  26.676  38.686  1.00  0.00     0.230 C 
BRANCH  10  11
HETATM   11  N1  UNL     1      25.993  27.360  38.585  1.00  0.00    -0.079 N 
ATOM     12  H13 UNL     1      26.694  26.790  38.111  1.00  0.00     0.274 HD
ATOM     13  H12 UNL     1      25.960  28.136  37.923  1.00  0.00     0.274 HD
ATOM     14  H11 UNL     1      26.304  27.659  39.509  1.00  0.00     0.274 HD
ENDBRANCH  10  11
ENDBRANCH   9  10
ENDBRANCH   8   9
ENDBRANCH   1   8
BRANCH   1  15
HETATM   15  N2  UNL     1      24.187  29.705  40.402  1.00  0.00    -0.388 N 
ATOM     16  H2  UNL     1      24.777  29.256  41.104  1.00  0.00     0.156 HD
BRANCH  15  17
HETATM   17  C5  UNL     1      24.710  30.690  39.536  1.00  0.00     0.144 C 
BRANCH  17  18
HETATM   18  C6  UNL     1      25.657  31.564  40.392  1.00  0.00     0.248 C 
BRANCH  18  19
HETATM   19  N3  UNL     1      25.998  32.785  39.699  1.00  0.00    -0.078 N 
ATOM     20  H33 UNL     1      25.691  32.764  38.726  1.00  0.00     0.274 HD
ATOM     21  H32 UNL     1      25.434  33.572  40.021  1.00  0.00     0.274 HD
ATOM     22  H31 UNL     1      26.996  32.980  39.776  1.00  0.00     0.274 HD
ENDBRANCH  18  19
ENDBRANCH  17  18
ENDBRANCH  15  17
ENDBRANCH   1  15
BRANCH   7  23
HETATM   23  N5  UNL     1      22.200  30.225  42.395  1.00  0.00    -0.068 N 
ATOM     24  H53 UNL     1      23.134  30.524  42.678  1.00  0.00     0.275 HD
ATOM     25  H52 UNL     1      21.945  31.053  41.855  1.00  0.00     0.275 HD
ATOM     26  H51 UNL     1      21.581  30.072  43.191  1.00  0.00     0.275 HD
ENDBRANCH   7  23
BRANCH   3  27
HETATM   27  N4  UNL     1      20.945  29.695  37.919  1.00  0.00    -0.050 N 
ATOM     28  H43 UNL     1      20.470  28.806  38.074  1.00  0.00     0.277 HD
ATOM     29  H42 UNL     1      20.295  30.137  37.269  1.00  0.00     0.277 HD
ATOM     30  H41 UNL     1      21.841  29.534  37.459  1.00  0.00     0.277 HD
ENDBRANCH   3  27
BRANCH   6  31
HETATM   31  O4  UNL     1      20.552  27.336  40.994  1.00  0.00    -0.391 OA
ATOM     32  H4  UNL     1      21.302  26.755  40.991  1.00  0.00     0.210 HD
ENDBRANCH   6  31
BRANCH   4  33
HETATM   33  O2  UNL     1      18.807  29.668  39.114  1.00  0.00    -0.389 OA
ATOM     34  H2  UNL     1      18.781  28.754  39.369  1.00  0.00     0.210 HD
ENDBRANCH   4  33
BRANCH   5  35
HETATM   35  O3  UNL     1      19.737  30.518  42.339  1.00  0.00    -0.390 OA
ATOM     36  H3  UNL     1      19.598  30.075  43.168  1.00  0.00     0.210 HD
ENDBRANCH   5  35
TORSDOF 13
ENDMDL
