MODEL 1
REMARK VINA RESULT: -6.793358017      0.000      0.000
REMARK  9 active torsions:
REMARK  status: ('A' for Active; 'I' for Inactive)
REMARK    1  A    between atoms: N2_3  and  C2_5 
REMARK    2  A    between atoms: C3_12  and  N6_13 
REMARK    3  A    between atoms: N6_13  and  C4_15 
REMARK    4  A    between atoms: C6_17  and  O1_18 
REMARK    5  A    between atoms: C7_20  and  O2_21 
REMARK    6  A    between atoms: C8_23  and  N7_24 
REMARK    7  A    between atoms: N7_24  and  C9_26 
REMARK    8  A    between atoms: C9_26  and  C10_27 
REMARK    9  A    between atoms: C10_27  and  O3_28 
ROOT
HETATM    1  C4  UNL     1      23.944  31.012  39.490  1.00  0.00     0.110 C 
HETATM    2  C5  UNL     1      24.927  31.432  40.591  1.00  0.00     0.061 C 
HETATM    3  C6  UNL     1      26.175  30.635  40.240  1.00  0.00     0.151 C 
HETATM    4  C7  UNL     1      25.807  29.687  39.129  1.00  0.00     0.171 C 
HETATM    5  C8  UNL     1      24.278  29.569  39.362  1.00  0.00     0.130 C 
ENDROOT
BRANCH   1   6
HETATM    6  N6  UNL     1      22.594  31.252  39.863  1.00  0.00    -0.365 N 
ATOM      7  H6  UNL     1      22.439  31.917  40.621  1.00  0.00     0.161 HD
BRANCH   6   8
HETATM    8  C3  UNL     1      21.439  30.659  39.286  1.00  0.00     0.164 A 
HETATM    9  C2  UNL     1      20.348  30.188  40.022  1.00  0.00     0.168 A 
HETATM   10  N3  UNL     1      19.487  29.729  39.102  1.00  0.00    -0.268 N 
HETATM   11  N4  UNL     1      19.990  29.895  37.903  1.00  0.00    -0.239 N 
ATOM     12  H3  UNL     1      18.578  29.313  39.304  1.00  0.00     0.190 HD
HETATM   13  N5  UNL     1      21.177  30.459  37.997  1.00  0.00    -0.268 N 
ATOM     14  H4  UNL     1      19.533  29.628  37.030  1.00  0.00     0.208 HD
ATOM     15  H5  UNL     1      21.788  30.701  37.217  1.00  0.00     0.190 HD
BRANCH   9  16
HETATM   16  N2  UNL     1      20.209  30.202  41.439  1.00  0.00    -0.336 N 
HETATM   17  C1  UNL     1      19.966  29.119  42.065  1.00  0.00     0.191 C 
HETATM   18  N1  UNL     1      19.838  27.908  41.345  1.00  0.00    -0.097 NA
ATOM     19  H2  UNL     1      20.304  31.078  41.953  1.00  0.00     0.168 HD
ENDBRANCH   9  16
ENDBRANCH   6   8
ENDBRANCH   1   6
BRANCH   5  20
HETATM   20  N7  UNL     1      24.107  28.816  40.526  1.00  0.00    -0.411 N 
ATOM     21  H7  UNL     1      24.616  29.100  41.362  1.00  0.00     0.153 HD
BRANCH  20  22
HETATM   22  C9  UNL     1      23.277  27.699  40.607  1.00  0.00     0.140 C 
BRANCH  22  23
HETATM   23  C10 UNL     1      22.958  27.257  39.148  1.00  0.00     0.183 C 
BRANCH  23  24
HETATM   24  O3  UNL     1      21.580  27.284  38.965  1.00  0.00    -0.399 OA
ATOM     25  H3  UNL     1      21.292  26.420  38.693  1.00  0.00     0.209 HD
ENDBRANCH  23  24
ENDBRANCH  22  23
ENDBRANCH  20  22
ENDBRANCH   5  20
BRANCH   3  26
HETATM   26  O1  UNL     1      27.226  31.469  39.966  1.00  0.00    -0.393 OA
ATOM     27  H1  UNL     1      27.908  31.382  40.621  1.00  0.00     0.210 HD
ENDBRANCH   3  26
BRANCH   4  28
HETATM   28  O2  UNL     1      25.953  30.225  37.864  1.00  0.00    -0.391 OA
ATOM     29  H2  UNL     1      25.356  30.940  37.680  1.00  0.00     0.210 HD
ENDBRANCH   4  28
TORSDOF 9
ENDMDL
MODEL 2
REMARK VINA RESULT: -6.600090555      1.664      2.461
REMARK  9 active torsions:
REMARK  status: ('A' for Active; 'I' for Inactive)
REMARK    1  A    between atoms: N2_3  and  C2_5 
REMARK    2  A    between atoms: C3_12  and  N6_13 
REMARK    3  A    between atoms: N6_13  and  C4_15 
REMARK    4  A    between atoms: C6_17  and  O1_18 
REMARK    5  A    between atoms: C7_20  and  O2_21 
REMARK    6  A    between atoms: C8_23  and  N7_24 
REMARK    7  A    between atoms: N7_24  and  C9_26 
REMARK    8  A    between atoms: C9_26  and  C10_27 
REMARK    9  A    between atoms: C10_27  and  O3_28 
ROOT
HETATM    1  C4  UNL     1      24.098  30.845  39.895  1.00  0.00     0.110 C 
HETATM    2  C5  UNL     1      25.053  31.777  40.653  1.00  0.00     0.061 C 
HETATM    3  C6  UNL     1      26.292  31.769  39.770  1.00  0.00     0.151 C 
HETATM    4  C7  UNL     1      26.079  30.726  38.704  1.00  0.00     0.171 C 
HETATM    5  C8  UNL     1      25.051  29.809  39.416  1.00  0.00     0.130 C 
ENDROOT
BRANCH   1   6
HETATM    6  N6  UNL     1      23.076  30.332  40.737  1.00  0.00    -0.365 N 
ATOM      7  H6  UNL     1      22.832  30.890  41.555  1.00  0.00     0.161 HD
BRANCH   6   8
HETATM    8  C3  UNL     1      22.360  29.118  40.554  1.00  0.00     0.164 A 
HETATM    9  C2  UNL     1      21.547  28.845  39.450  1.00  0.00     0.168 A 
HETATM   10  N3  UNL     1      21.083  27.605  39.665  1.00  0.00    -0.268 N 
HETATM   11  N4  UNL     1      21.558  27.144  40.797  1.00  0.00    -0.239 N 
ATOM     12  H3  UNL     1      20.455  27.098  39.042  1.00  0.00     0.190 HD
HETATM   13  N5  UNL     1      22.336  28.051  41.350  1.00  0.00    -0.268 N 
ATOM     14  H4  UNL     1      21.355  26.224  41.188  1.00  0.00     0.208 HD
ATOM     15  H5  UNL     1      22.834  27.953  42.235  1.00  0.00     0.190 HD
BRANCH   9  16
HETATM   16  N2  UNL     1      21.285  29.714  38.353  1.00  0.00    -0.336 N 
HETATM   17  C1  UNL     1      20.120  30.205  38.195  1.00  0.00     0.191 C 
HETATM   18  N1  UNL     1      19.095  29.885  39.116  1.00  0.00    -0.097 NA
ATOM     19  H2  UNL     1      22.029  29.942  37.693  1.00  0.00     0.168 HD
ENDBRANCH   9  16
ENDBRANCH   6   8
ENDBRANCH   1   6
BRANCH   5  20
HETATM   20  N7  UNL     1      25.746  29.134  40.422  1.00  0.00    -0.411 N 
ATOM     21  H7  UNL     1      26.260  29.687  41.107  1.00  0.00     0.153 HD
BRANCH  20  22
HETATM   22  C9  UNL     1      25.774  27.745  40.542  1.00  0.00     0.140 C 
BRANCH  22  23
HETATM   23  C10 UNL     1      25.217  27.158  39.211  1.00  0.00     0.183 C 
BRANCH  23  24
HETATM   24  O3  UNL     1      24.118  26.357  39.502  1.00  0.00    -0.399 OA
ATOM     25  H3  UNL     1      23.993  25.740  38.790  1.00  0.00     0.209 HD
ENDBRANCH  23  24
ENDBRANCH  22  23
ENDBRANCH  20  22
ENDBRANCH   5  20
BRANCH   3  26
HETATM   26  O1  UNL     1      26.568  33.026  39.304  1.00  0.00    -0.393 OA
ATOM     27  H1  UNL     1      27.333  33.019  38.740  1.00  0.00     0.210 HD
ENDBRANCH   3  26
BRANCH   4  28
HETATM   28  O2  UNL     1      25.439  31.203  37.576  1.00  0.00    -0.391 OA
ATOM     29  H2  UNL     1      26.031  31.480  36.886  1.00  0.00     0.210 HD
ENDBRANCH   4  28
TORSDOF 9
ENDMDL
MODEL 3
REMARK VINA RESULT: -6.463999037      1.302      1.355
REMARK  9 active torsions:
REMARK  status: ('A' for Active; 'I' for Inactive)
REMARK    1  A    between atoms: N2_3  and  C2_5 
REMARK    2  A    between atoms: C3_12  and  N6_13 
REMARK    3  A    between atoms: N6_13  and  C4_15 
REMARK    4  A    between atoms: C6_17  and  O1_18 
REMARK    5  A    between atoms: C7_20  and  O2_21 
REMARK    6  A    between atoms: C8_23  and  N7_24 
REMARK    7  A    between atoms: N7_24  and  C9_26 
REMARK    8  A    between atoms: C9_26  and  C10_27 
REMARK    9  A    between atoms: C10_27  and  O3_28 
ROOT
HETATM    1  C4  UNL     1      23.943  30.403  39.485  1.00  0.00     0.110 C 
HETATM    2  C5  UNL     1      24.724  31.282  40.471  1.00  0.00     0.061 C 
HETATM    3  C6  UNL     1      26.165  31.076  40.026  1.00  0.00     0.151 C 
HETATM    4  C7  UNL     1      26.164  29.985  38.987  1.00  0.00     0.171 C 
HETATM    5  C8  UNL     1      24.861  29.238  39.372  1.00  0.00     0.130 C 
ENDROOT
BRANCH   1   6
HETATM    6  N6  UNL     1      22.654  30.066  39.980  1.00  0.00    -0.365 N 
ATOM      7  H6  UNL     1      22.583  29.870  40.978  1.00  0.00     0.161 HD
BRANCH   6   8
HETATM    8  C3  UNL     1      21.455  29.975  39.223  1.00  0.00     0.164 A 
HETATM    9  C2  UNL     1      20.337  29.231  39.610  1.00  0.00     0.168 A 
HETATM   10  N3  UNL     1      19.439  29.429  38.634  1.00  0.00    -0.268 N 
HETATM   11  N4  UNL     1      19.945  30.222  37.721  1.00  0.00    -0.239 N 
ATOM     12  H3  UNL     1      18.504  29.025  38.606  1.00  0.00     0.190 HD
HETATM   13  N5  UNL     1      21.170  30.563  38.063  1.00  0.00    -0.268 N 
ATOM     14  H4  UNL     1      19.464  30.528  36.874  1.00  0.00     0.208 HD
ATOM     15  H5  UNL     1      21.793  31.172  37.531  1.00  0.00     0.190 HD
BRANCH   9  16
HETATM   16  N2  UNL     1      20.209  28.440  40.787  1.00  0.00    -0.336 N 
HETATM   17  C1  UNL     1      20.304  27.172  40.715  1.00  0.00     0.191 C 
HETATM   18  N1  UNL     1      20.540  26.558  39.462  1.00  0.00    -0.097 NA
ATOM     19  H2  UNL     1      20.041  28.889  41.688  1.00  0.00     0.168 HD
ENDBRANCH   9  16
ENDBRANCH   6   8
ENDBRANCH   1   6
BRANCH   5  20
HETATM   20  N7  UNL     1      25.119  28.570  40.571  1.00  0.00    -0.411 N 
ATOM     21  H7  UNL     1      25.107  29.111  41.436  1.00  0.00     0.153 HD
BRANCH  20  22
HETATM   22  C9  UNL     1      25.393  27.206  40.651  1.00  0.00     0.140 C 
BRANCH  22  23
HETATM   23  C10 UNL     1      24.675  26.523  39.449  1.00  0.00     0.183 C 
BRANCH  23  24
HETATM   24  O3  UNL     1      23.491  25.951  39.902  1.00  0.00    -0.399 OA
ATOM     25  H3  UNL     1      22.846  26.638  40.017  1.00  0.00     0.209 HD
ENDBRANCH  23  24
ENDBRANCH  22  23
ENDBRANCH  20  22
ENDBRANCH   5  20
BRANCH   3  26
HETATM   26  O1  UNL     1      26.726  32.258  39.624  1.00  0.00    -0.393 OA
ATOM     27  H1  UNL     1      26.057  32.883  39.371  1.00  0.00     0.210 HD
ENDBRANCH   3  26
BRANCH   4  28
HETATM   28  O2  UNL     1      25.969  30.441  37.698  1.00  0.00    -0.391 OA
ATOM     29  H2  UNL     1      25.850  31.382  37.638  1.00  0.00     0.210 HD
ENDBRANCH   4  28
TORSDOF 9
ENDMDL
MODEL 4
REMARK VINA RESULT: -6.218929992      2.961      4.967
REMARK  9 active torsions:
REMARK  status: ('A' for Active; 'I' for Inactive)
REMARK    1  A    between atoms: N2_3  and  C2_5 
REMARK    2  A    between atoms: C3_12  and  N6_13 
REMARK    3  A    between atoms: N6_13  and  C4_15 
REMARK    4  A    between atoms: C6_17  and  O1_18 
REMARK    5  A    between atoms: C7_20  and  O2_21 
REMARK    6  A    between atoms: C8_23  and  N7_24 
REMARK    7  A    between atoms: N7_24  and  C9_26 
REMARK    8  A    between atoms: C9_26  and  C10_27 
REMARK    9  A    between atoms: C10_27  and  O3_28 
ROOT
HETATM    1  C4  UNL     1      21.576  30.185  40.281  1.00  0.00     0.110 C 
HETATM    2  C5  UNL     1      21.738  30.236  38.756  1.00  0.00     0.061 C 
HETATM    3  C6  UNL     1      20.397  29.710  38.265  1.00  0.00     0.151 C 
HETATM    4  C7  UNL     1      19.638  29.216  39.469  1.00  0.00     0.171 C 
HETATM    5  C8  UNL     1      20.815  28.917  40.434  1.00  0.00     0.130 C 
ENDROOT
BRANCH   1   6
HETATM    6  N6  UNL     1      22.830  30.179  40.949  1.00  0.00    -0.365 N 
ATOM      7  H6  UNL     1      22.821  29.941  41.940  1.00  0.00     0.161 HD
BRANCH   6   8
HETATM    8  C3  UNL     1      24.096  30.471  40.372  1.00  0.00     0.164 A 
HETATM    9  C2  UNL     1      25.112  29.527  40.190  1.00  0.00     0.168 A 
HETATM   10  N3  UNL     1      26.111  30.208  39.611  1.00  0.00    -0.268 N 
HETATM   11  N4  UNL     1      25.757  31.459  39.445  1.00  0.00    -0.239 N 
ATOM     12  H3  UNL     1      27.011  29.812  39.340  1.00  0.00     0.190 HD
HETATM   13  N5  UNL     1      24.535  31.636  39.902  1.00  0.00    -0.268 N 
ATOM     14  H4  UNL     1      26.339  32.185  39.025  1.00  0.00     0.208 HD
ATOM     15  H5  UNL     1      24.015  32.514  39.897  1.00  0.00     0.190 HD
BRANCH   9  16
HETATM   16  N2  UNL     1      25.069  28.151  40.555  1.00  0.00    -0.336 N 
HETATM   17  C1  UNL     1      25.063  27.254  39.651  1.00  0.00     0.191 C 
HETATM   18  N1  UNL     1      25.101  27.633  38.288  1.00  0.00    -0.097 NA
ATOM     19  H2  UNL     1      25.044  27.885  41.539  1.00  0.00     0.168 HD
ENDBRANCH   9  16
ENDBRANCH   6   8
ENDBRANCH   1   6
BRANCH   5  20
HETATM   20  N7  UNL     1      21.458  27.779  39.941  1.00  0.00    -0.411 N 
ATOM     21  H7  UNL     1      21.850  27.816  39.001  1.00  0.00     0.153 HD
BRANCH  20  22
HETATM   22  C9  UNL     1      21.593  26.595  40.666  1.00  0.00     0.140 C 
BRANCH  22  23
HETATM   23  C10 UNL     1      20.198  25.901  40.676  1.00  0.00     0.183 C 
BRANCH  23  24
HETATM   24  O3  UNL     1      19.799  25.681  39.362  1.00  0.00    -0.399 OA
ATOM     25  H3  UNL     1      19.849  26.502  38.887  1.00  0.00     0.209 HD
ENDBRANCH  23  24
ENDBRANCH  22  23
ENDBRANCH  20  22
ENDBRANCH   5  20
BRANCH   3  26
HETATM   26  O1  UNL     1      19.745  30.656  37.519  1.00  0.00    -0.393 OA
ATOM     27  H1  UNL     1      18.911  30.883  37.912  1.00  0.00     0.210 HD
ENDBRANCH   3  26
BRANCH   4  28
HETATM   28  O2  UNL     1      18.881  30.190  40.091  1.00  0.00    -0.391 OA
ATOM     29  H2  UNL     1      18.629  29.971  40.981  1.00  0.00     0.210 HD
ENDBRANCH   4  28
TORSDOF 9
ENDMDL
MODEL 5
REMARK VINA RESULT: -6.169151415      2.827      5.006
REMARK  9 active torsions:
REMARK  status: ('A' for Active; 'I' for Inactive)
REMARK    1  A    between atoms: N2_3  and  C2_5 
REMARK    2  A    between atoms: C3_12  and  N6_13 
REMARK    3  A    between atoms: N6_13  and  C4_15 
REMARK    4  A    between atoms: C6_17  and  O1_18 
REMARK    5  A    between atoms: C7_20  and  O2_21 
REMARK    6  A    between atoms: C8_23  and  N7_24 
REMARK    7  A    between atoms: N7_24  and  C9_26 
REMARK    8  A    between atoms: C9_26  and  C10_27 
REMARK    9  A    between atoms: C10_27  and  O3_28 
ROOT
HETATM    1  C4  UNL     1      21.599  30.221  40.304  1.00  0.00     0.110 C 
HETATM    2  C5  UNL     1      21.776  30.259  38.780  1.00  0.00     0.061 C 
HETATM    3  C6  UNL     1      20.459  29.685  38.281  1.00  0.00     0.151 C 
HETATM    4  C7  UNL     1      19.703  29.180  39.482  1.00  0.00     0.171 C 
HETATM    5  C8  UNL     1      20.878  28.930  40.463  1.00  0.00     0.130 C 
ENDROOT
BRANCH   1   6
HETATM    6  N6  UNL     1      22.845  30.263  40.985  1.00  0.00    -0.365 N 
ATOM      7  H6  UNL     1      22.829  30.063  41.985  1.00  0.00     0.161 HD
BRANCH   6   8
HETATM    8  C3  UNL     1      24.112  30.557  40.412  1.00  0.00     0.164 A 
HETATM    9  C2  UNL     1      25.121  29.609  40.210  1.00  0.00     0.168 A 
HETATM   10  N3  UNL     1      26.124  30.293  39.642  1.00  0.00    -0.268 N 
HETATM   11  N4  UNL     1      25.779  31.550  39.500  1.00  0.00    -0.239 N 
ATOM     12  H3  UNL     1      27.020  29.896  39.361  1.00  0.00     0.190 HD
HETATM   13  N5  UNL     1      24.559  31.727  39.964  1.00  0.00    -0.268 N 
ATOM     14  H4  UNL     1      26.366  32.279  39.094  1.00  0.00     0.208 HD
ATOM     15  H5  UNL     1      24.046  32.609  39.976  1.00  0.00     0.190 HD
BRANCH   9  16
HETATM   16  N2  UNL     1      25.068  28.227  40.548  1.00  0.00    -0.336 N 
HETATM   17  C1  UNL     1      25.150  27.345  39.633  1.00  0.00     0.191 C 
HETATM   18  N1  UNL     1      25.296  27.747  38.284  1.00  0.00    -0.097 NA
ATOM     19  H2  UNL     1      24.964  27.943  41.522  1.00  0.00     0.168 HD
ENDBRANCH   9  16
ENDBRANCH   6   8
ENDBRANCH   1   6
BRANCH   5  20
HETATM   20  N7  UNL     1      21.563  27.808  39.991  1.00  0.00    -0.411 N 
ATOM     21  H7  UNL     1      21.964  27.847  39.055  1.00  0.00     0.153 HD
BRANCH  20  22
HETATM   22  C9  UNL     1      21.727  26.638  40.731  1.00  0.00     0.140 C 
BRANCH  22  23
HETATM   23  C10 UNL     1      21.776  27.047  42.233  1.00  0.00     0.183 C 
BRANCH  23  24
HETATM   24  O3  UNL     1      23.047  27.532  42.522  1.00  0.00    -0.399 OA
ATOM     25  H3  UNL     1      23.547  26.845  42.947  1.00  0.00     0.209 HD
ENDBRANCH  23  24
ENDBRANCH  22  23
ENDBRANCH  20  22
ENDBRANCH   5  20
BRANCH   3  26
HETATM   26  O1  UNL     1      19.786  30.600  37.516  1.00  0.00    -0.393 OA
ATOM     27  H1  UNL     1      19.565  31.371  38.024  1.00  0.00     0.210 HD
ENDBRANCH   3  26
BRANCH   4  28
HETATM   28  O2  UNL     1      18.907  30.136  40.084  1.00  0.00    -0.391 OA
ATOM     29  H2  UNL     1      19.397  30.828  40.513  1.00  0.00     0.210 HD
ENDBRANCH   4  28
TORSDOF 9
ENDMDL
