MODEL 1
REMARK VINA RESULT: -6.805229009      0.000      0.000
REMARK  11 active torsions:
REMARK  status: ('A' for Active; 'I' for Inactive)
REMARK    1  A    between atoms: C2_2  and  C7_14 
REMARK    2  A    between atoms: N1_3  and  O1_5 
REMARK    3  A    between atoms: O1_5  and  C3_6 
REMARK    4  A    between atoms: C3_6  and  C4_7 
REMARK    5  A    between atoms: C4_7  and  C5_8 
REMARK    6  A    between atoms: C5_8  and  C6_9 
REMARK    7  A    between atoms: C6_9  and  N2_10 
REMARK    8  A    between atoms: C7_14  and  N4_18 
REMARK    9  A    between atoms: N4_18  and  N5_20 
REMARK   10  A    between atoms: N5_20  and  C8_21 
REMARK   11  A    between atoms: C9_25  and  O2_26 
ROOT
HETATM    1  C7  UNL     1      22.184  30.319  39.423  1.00  0.00     0.135 C 
HETATM    2  N3  UNL     1      21.580  30.565  38.301  1.00  0.00    -0.383 N 
ATOM      3  H31 UNL     1      22.008  30.983  37.475  1.00  0.00     0.157 HD
ATOM      4  H32 UNL     1      20.610  30.256  38.232  1.00  0.00     0.157 HD
ENDROOT
BRANCH   1   5
HETATM    5  C2  UNL     1      21.575  29.725  40.596  1.00  0.00     0.072 C 
HETATM    6  C1  UNL     1      20.076  30.047  40.806  1.00  0.00     0.074 C 
HETATM    7  N1  UNL     1      22.089  29.061  41.485  1.00  0.00    -0.268 N 
ATOM      8  H1  UNL     1      21.430  28.846  42.233  1.00  0.00     0.194 HD
BRANCH   7   9
HETATM    9  O1  UNL     1      23.294  28.550  41.715  1.00  0.00    -0.280 OA
BRANCH   9  10
HETATM   10  C3  UNL     1      23.418  27.164  41.181  1.00  0.00     0.201 C 
BRANCH  10  11
HETATM   11  C4  UNL     1      24.895  26.907  41.142  1.00  0.00     0.030 C 
BRANCH  11  12
HETATM   12  C5  UNL     1      25.382  25.765  40.396  1.00  0.00     0.029 C 
BRANCH  12  13
HETATM   13  C6  UNL     1      25.680  25.863  38.959  1.00  0.00     0.230 C 
BRANCH  13  14
HETATM   14  N2  UNL     1      25.649  27.124  38.305  1.00  0.00    -0.079 N 
ATOM     15  H23 UNL     1      24.854  27.135  37.666  1.00  0.00     0.274 HD
ATOM     16  H22 UNL     1      25.375  27.832  38.986  1.00  0.00     0.274 HD
ATOM     17  H21 UNL     1      26.470  27.464  37.803  1.00  0.00     0.274 HD
ENDBRANCH  13  14
ENDBRANCH  12  13
ENDBRANCH  11  12
ENDBRANCH  10  11
ENDBRANCH   9  10
ENDBRANCH   7   9
ENDBRANCH   1   5
BRANCH   1  18
HETATM   18  N4  UNL     1      23.577  30.764  39.522  1.00  0.00    -0.284 N 
ATOM     19  H4  UNL     1      23.778  31.654  39.977  1.00  0.00     0.184 HD
BRANCH  18  20
HETATM   20  N5  UNL     1      24.612  30.032  39.027  1.00  0.00    -0.088 NA
BRANCH  20  21
HETATM   21  C8  UNL     1      25.739  30.846  38.604  1.00  0.00     0.352 C 
HETATM   22  N6  UNL     1      25.990  31.904  39.546  1.00  0.00    -0.079 NA
HETATM   23  N7  UNL     1      26.149  31.396  40.833  1.00  0.00    -0.032 NA
HETATM   24  N8  UNL     1      26.542  30.063  40.728  1.00  0.00    -0.071 NA
HETATM   25  C9  UNL     1      27.501  29.864  39.677  1.00  0.00     0.378 C 
HETATM   26  O3  UNL     1      26.827  30.004  38.456  1.00  0.00    -0.307 OA
BRANCH  25  27
HETATM   27  O2  UNL     1      28.565  30.758  39.773  1.00  0.00    -0.357 OA
ATOM     28  H2  UNL     1      29.401  30.308  39.801  1.00  0.00     0.214 HD
ENDBRANCH  25  27
ENDBRANCH  20  21
ENDBRANCH  18  20
ENDBRANCH   1  18
TORSDOF 11
ENDMDL
MODEL 2
REMARK VINA RESULT: -6.566829945      1.193      1.464
REMARK  11 active torsions:
REMARK  status: ('A' for Active; 'I' for Inactive)
REMARK    1  A    between atoms: C2_2  and  C7_14 
REMARK    2  A    between atoms: N1_3  and  O1_5 
REMARK    3  A    between atoms: O1_5  and  C3_6 
REMARK    4  A    between atoms: C3_6  and  C4_7 
REMARK    5  A    between atoms: C4_7  and  C5_8 
REMARK    6  A    between atoms: C5_8  and  C6_9 
REMARK    7  A    between atoms: C6_9  and  N2_10 
REMARK    8  A    between atoms: C7_14  and  N4_18 
REMARK    9  A    between atoms: N4_18  and  N5_20 
REMARK   10  A    between atoms: N5_20  and  C8_21 
REMARK   11  A    between atoms: C9_25  and  O2_26 
ROOT
HETATM    1  C7  UNL     1      22.290  30.266  39.915  1.00  0.00     0.135 C 
HETATM    2  N3  UNL     1      21.977  30.493  41.155  1.00  0.00    -0.383 N 
ATOM      3  H31 UNL     1      22.513  31.065  41.808  1.00  0.00     0.157 HD
ATOM      4  H32 UNL     1      21.088  30.109  41.474  1.00  0.00     0.157 HD
ENDROOT
BRANCH   1   5
HETATM    5  C2  UNL     1      21.529  29.454  38.988  1.00  0.00     0.072 C 
HETATM    6  C1  UNL     1      20.322  30.155  38.322  1.00  0.00     0.074 C 
HETATM    7  N1  UNL     1      21.660  28.272  38.704  1.00  0.00    -0.268 N 
ATOM      8  H1  UNL     1      20.924  27.943  38.079  1.00  0.00     0.194 HD
BRANCH   7   9
HETATM    9  O1  UNL     1      22.526  27.310  39.010  1.00  0.00    -0.280 OA
BRANCH   9  10
HETATM   10  C3  UNL     1      22.266  26.742  40.363  1.00  0.00     0.201 C 
BRANCH  10  11
HETATM   11  C4  UNL     1      23.504  25.960  40.686  1.00  0.00     0.030 C 
BRANCH  11  12
HETATM   12  C5  UNL     1      24.776  26.653  40.716  1.00  0.00     0.029 C 
BRANCH  12  13
HETATM   13  C6  UNL     1      25.757  26.494  39.633  1.00  0.00     0.230 C 
BRANCH  13  14
HETATM   14  N2  UNL     1      25.515  27.069  38.356  1.00  0.00    -0.079 N 
ATOM     15  H23 UNL     1      24.919  27.888  38.481  1.00  0.00     0.274 HD
ATOM     16  H22 UNL     1      26.381  27.495  38.026  1.00  0.00     0.274 HD
ATOM     17  H21 UNL     1      25.128  26.502  37.602  1.00  0.00     0.274 HD
ENDBRANCH  13  14
ENDBRANCH  12  13
ENDBRANCH  11  12
ENDBRANCH  10  11
ENDBRANCH   9  10
ENDBRANCH   7   9
ENDBRANCH   1   5
BRANCH   1  18
HETATM   18  N4  UNL     1      23.569  30.818  39.457  1.00  0.00    -0.284 N 
ATOM     19  H4  UNL     1      23.690  31.831  39.442  1.00  0.00     0.184 HD
BRANCH  18  20
HETATM   20  N5  UNL     1      24.599  30.028  39.050  1.00  0.00    -0.088 NA
BRANCH  20  21
HETATM   21  C8  UNL     1      25.756  30.781  38.599  1.00  0.00     0.352 C 
HETATM   22  N6  UNL     1      26.034  31.877  39.490  1.00  0.00    -0.079 NA
HETATM   23  N7  UNL     1      26.164  31.429  40.802  1.00  0.00    -0.032 NA
HETATM   24  N8  UNL     1      26.513  30.080  40.768  1.00  0.00    -0.071 NA
HETATM   25  C9  UNL     1      27.474  29.798  39.739  1.00  0.00     0.378 C 
HETATM   26  O3  UNL     1      26.817  29.898  38.505  1.00  0.00    -0.307 OA
BRANCH  25  27
HETATM   27  O2  UNL     1      28.567  30.659  39.802  1.00  0.00    -0.357 OA
ATOM     28  H2  UNL     1      29.297  30.267  40.266  1.00  0.00     0.214 HD
ENDBRANCH  25  27
ENDBRANCH  20  21
ENDBRANCH  18  20
ENDBRANCH   1  18
TORSDOF 11
ENDMDL
MODEL 3
REMARK VINA RESULT: -6.515810226      2.256      5.814
REMARK  11 active torsions:
REMARK  status: ('A' for Active; 'I' for Inactive)
REMARK    1  A    between atoms: C2_2  and  C7_14 
REMARK    2  A    between atoms: N1_3  and  O1_5 
REMARK    3  A    between atoms: O1_5  and  C3_6 
REMARK    4  A    between atoms: C3_6  and  C4_7 
REMARK    5  A    between atoms: C4_7  and  C5_8 
REMARK    6  A    between atoms: C5_8  and  C6_9 
REMARK    7  A    between atoms: C6_9  and  N2_10 
REMARK    8  A    between atoms: C7_14  and  N4_18 
REMARK    9  A    between atoms: N4_18  and  N5_20 
REMARK   10  A    between atoms: N5_20  and  C8_21 
REMARK   11  A    between atoms: C9_25  and  O2_26 
ROOT
HETATM    1  C7  UNL     1      24.070  27.394  39.656  1.00  0.00     0.135 C 
HETATM    2  N3  UNL     1      23.847  27.743  40.887  1.00  0.00    -0.383 N 
ATOM      3  H31 UNL     1      22.928  27.865  41.313  1.00  0.00     0.157 HD
ATOM      4  H32 UNL     1      24.668  27.845  41.483  1.00  0.00     0.157 HD
ENDROOT
BRANCH   1   5
HETATM    5  C2  UNL     1      25.374  27.222  39.051  1.00  0.00     0.072 C 
HETATM    6  C1  UNL     1      25.936  25.780  39.074  1.00  0.00     0.074 C 
HETATM    7  N1  UNL     1      26.130  28.061  38.583  1.00  0.00    -0.268 N 
ATOM      8  H1  UNL     1      27.024  27.660  38.301  1.00  0.00     0.194 HD
BRANCH   7   9
HETATM    9  O1  UNL     1      26.072  29.369  38.352  1.00  0.00    -0.280 OA
BRANCH   9  10
HETATM   10  C3  UNL     1      27.128  30.109  39.099  1.00  0.00     0.201 C 
BRANCH  10  11
HETATM   11  C4  UNL     1      26.528  31.459  39.359  1.00  0.00     0.030 C 
BRANCH  11  12
HETATM   12  C5  UNL     1      25.696  31.635  40.532  1.00  0.00     0.029 C 
BRANCH  12  13
HETATM   13  C6  UNL     1      24.272  31.266  40.521  1.00  0.00     0.230 C 
BRANCH  13  14
HETATM   14  N2  UNL     1      23.638  30.897  39.304  1.00  0.00    -0.079 N 
ATOM     15  H23 UNL     1      22.851  31.528  39.148  1.00  0.00     0.274 HD
ATOM     16  H22 UNL     1      24.256  31.144  38.532  1.00  0.00     0.274 HD
ATOM     17  H21 UNL     1      23.314  29.940  39.163  1.00  0.00     0.274 HD
ENDBRANCH  13  14
ENDBRANCH  12  13
ENDBRANCH  11  12
ENDBRANCH  10  11
ENDBRANCH   9  10
ENDBRANCH   7   9
ENDBRANCH   1   5
BRANCH   1  18
HETATM   18  N4  UNL     1      22.889  27.248  38.799  1.00  0.00    -0.284 N 
ATOM     19  H4  UNL     1      22.770  26.385  38.269  1.00  0.00     0.184 HD
BRANCH  18  20
HETATM   20  N5  UNL     1      21.947  28.223  38.684  1.00  0.00    -0.088 NA
BRANCH  20  21
HETATM   21  C8  UNL     1      20.697  27.894  39.346  1.00  0.00     0.352 C 
HETATM   22  N6  UNL     1      20.776  28.167  40.757  1.00  0.00    -0.079 NA
HETATM   23  N7  UNL     1      21.175  29.481  40.987  1.00  0.00    -0.032 NA
HETATM   24  N8  UNL     1      20.857  30.235  39.859  1.00  0.00    -0.071 NA
HETATM   25  C9  UNL     1      19.573  29.883  39.319  1.00  0.00     0.378 C 
HETATM   26  O3  UNL     1      19.695  28.618  38.726  1.00  0.00    -0.307 OA
BRANCH  25  27
HETATM   27  O2  UNL     1      18.582  29.889  40.297  1.00  0.00    -0.357 OA
ATOM     28  H2  UNL     1      18.164  30.739  40.368  1.00  0.00     0.214 HD
ENDBRANCH  25  27
ENDBRANCH  20  21
ENDBRANCH  18  20
ENDBRANCH   1  18
TORSDOF 11
ENDMDL
MODEL 4
REMARK VINA RESULT: -6.458010502      1.804      3.719
REMARK  11 active torsions:
REMARK  status: ('A' for Active; 'I' for Inactive)
REMARK    1  A    between atoms: C2_2  and  C7_14 
REMARK    2  A    between atoms: N1_3  and  O1_5 
REMARK    3  A    between atoms: O1_5  and  C3_6 
REMARK    4  A    between atoms: C3_6  and  C4_7 
REMARK    5  A    between atoms: C4_7  and  C5_8 
REMARK    6  A    between atoms: C5_8  and  C6_9 
REMARK    7  A    between atoms: C6_9  and  N2_10 
REMARK    8  A    between atoms: C7_14  and  N4_18 
REMARK    9  A    between atoms: N4_18  and  N5_20 
REMARK   10  A    between atoms: N5_20  and  C8_21 
REMARK   11  A    between atoms: C9_25  and  O2_26 
ROOT
HETATM    1  C7  UNL     1      23.053  27.918  39.897  1.00  0.00     0.135 C 
HETATM    2  N3  UNL     1      23.027  27.231  38.796  1.00  0.00    -0.383 N 
ATOM      3  H31 UNL     1      23.408  27.532  37.899  1.00  0.00     0.157 HD
ATOM      4  H32 UNL     1      22.642  26.289  38.861  1.00  0.00     0.157 HD
ENDROOT
BRANCH   1   5
HETATM    5  C2  UNL     1      22.511  27.492  41.171  1.00  0.00     0.072 C 
HETATM    6  C1  UNL     1      22.371  25.962  41.359  1.00  0.00     0.074 C 
HETATM    7  N1  UNL     1      22.083  28.165  42.097  1.00  0.00    -0.268 N 
ATOM      8  H1  UNL     1      21.684  27.590  42.839  1.00  0.00     0.194 HD
BRANCH   7   9
HETATM    9  O1  UNL     1      22.011  29.464  42.375  1.00  0.00    -0.280 OA
BRANCH   9  10
HETATM   10  C3  UNL     1      20.607  29.962  42.324  1.00  0.00     0.201 C 
BRANCH  10  11
HETATM   11  C4  UNL     1      20.449  30.498  40.933  1.00  0.00     0.030 C 
BRANCH  11  12
HETATM   12  C5  UNL     1      19.551  29.816  40.023  1.00  0.00     0.029 C 
BRANCH  12  13
HETATM   13  C6  UNL     1      19.909  29.603  38.613  1.00  0.00     0.230 C 
BRANCH  13  14
HETATM   14  N2  UNL     1      20.786  30.505  37.952  1.00  0.00    -0.079 N 
ATOM     15  H23 UNL     1      21.090  31.208  38.626  1.00  0.00     0.274 HD
ATOM     16  H22 UNL     1      21.660  30.017  37.756  1.00  0.00     0.274 HD
ATOM     17  H21 UNL     1      20.487  30.982  37.102  1.00  0.00     0.274 HD
ENDBRANCH  13  14
ENDBRANCH  12  13
ENDBRANCH  11  12
ENDBRANCH  10  11
ENDBRANCH   9  10
ENDBRANCH   7   9
ENDBRANCH   1   5
BRANCH   1  18
HETATM   18  N4  UNL     1      23.606  29.273  39.805  1.00  0.00    -0.284 N 
ATOM     19  H4  UNL     1      23.166  29.942  39.173  1.00  0.00     0.184 HD
BRANCH  18  20
HETATM   20  N5  UNL     1      24.687  29.670  40.530  1.00  0.00    -0.088 NA
BRANCH  20  21
HETATM   21  C8  UNL     1      25.912  28.986  40.155  1.00  0.00     0.352 C 
HETATM   22  N6  UNL     1      25.998  28.833  38.726  1.00  0.00    -0.079 NA
HETATM   23  N7  UNL     1      25.852  30.061  38.086  1.00  0.00    -0.032 NA
HETATM   24  N8  UNL     1      26.200  31.065  38.987  1.00  0.00    -0.071 NA
HETATM   25  C9  UNL     1      27.355  30.714  39.766  1.00  0.00     0.378 C 
HETATM   26  O3  UNL     1      26.969  29.715  40.670  1.00  0.00    -0.307 OA
BRANCH  25  27
HETATM   27  O2  UNL     1      28.410  30.289  38.962  1.00  0.00    -0.357 OA
ATOM     28  H2  UNL     1      29.061  30.971  38.847  1.00  0.00     0.214 HD
ENDBRANCH  25  27
ENDBRANCH  20  21
ENDBRANCH  18  20
ENDBRANCH   1  18
TORSDOF 11
ENDMDL
MODEL 5
REMARK VINA RESULT: -6.444059158      1.521      3.440
REMARK  11 active torsions:
REMARK  status: ('A' for Active; 'I' for Inactive)
REMARK    1  A    between atoms: C2_2  and  C7_14 
REMARK    2  A    between atoms: N1_3  and  O1_5 
REMARK    3  A    between atoms: O1_5  and  C3_6 
REMARK    4  A    between atoms: C3_6  and  C4_7 
REMARK    5  A    between atoms: C4_7  and  C5_8 
REMARK    6  A    between atoms: C5_8  and  C6_9 
REMARK    7  A    between atoms: C6_9  and  N2_10 
REMARK    8  A    between atoms: C7_14  and  N4_18 
REMARK    9  A    between atoms: N4_18  and  N5_20 
REMARK   10  A    between atoms: N5_20  and  C8_21 
REMARK   11  A    between atoms: C9_25  and  O2_26 
ROOT
HETATM    1  C7  UNL     1      23.157  27.961  39.771  1.00  0.00     0.135 C 
HETATM    2  N3  UNL     1      22.715  27.403  38.685  1.00  0.00    -0.383 N 
ATOM      3  H31 UNL     1      22.966  27.673  37.734  1.00  0.00     0.157 HD
ATOM      4  H32 UNL     1      22.113  26.590  38.809  1.00  0.00     0.157 HD
ENDROOT
BRANCH   1   5
HETATM    5  C2  UNL     1      22.800  27.578  41.122  1.00  0.00     0.072 C 
HETATM    6  C1  UNL     1      22.807  26.058  41.409  1.00  0.00     0.074 C 
HETATM    7  N1  UNL     1      22.429  28.277  42.054  1.00  0.00    -0.268 N 
ATOM      8  H1  UNL     1      22.165  27.722  42.868  1.00  0.00     0.194 HD
BRANCH   7   9
HETATM    9  O1  UNL     1      22.285  29.581  42.267  1.00  0.00    -0.280 OA
BRANCH   9  10
HETATM   10  C3  UNL     1      20.853  29.992  42.228  1.00  0.00     0.201 C 
BRANCH  10  11
HETATM   11  C4  UNL     1      20.658  30.543  40.847  1.00  0.00     0.030 C 
BRANCH  11  12
HETATM   12  C5  UNL     1      19.717  29.885  39.963  1.00  0.00     0.029 C 
BRANCH  12  13
HETATM   13  C6  UNL     1      19.938  29.839  38.510  1.00  0.00     0.230 C 
BRANCH  13  14
HETATM   14  N2  UNL     1      21.036  30.528  37.930  1.00  0.00    -0.079 N 
ATOM     15  H23 UNL     1      20.709  31.004  37.089  1.00  0.00     0.274 HD
ATOM     16  H22 UNL     1      21.275  31.316  38.532  1.00  0.00     0.274 HD
ATOM     17  H21 UNL     1      21.895  30.027  37.702  1.00  0.00     0.274 HD
ENDBRANCH  13  14
ENDBRANCH  12  13
ENDBRANCH  11  12
ENDBRANCH  10  11
ENDBRANCH   9  10
ENDBRANCH   7   9
ENDBRANCH   1   5
BRANCH   1  18
HETATM   18  N4  UNL     1      24.023  29.131  39.594  1.00  0.00    -0.284 N 
ATOM     19  H4  UNL     1      23.696  30.039  39.925  1.00  0.00     0.184 HD
BRANCH  18  20
HETATM   20  N5  UNL     1      25.246  29.050  39.003  1.00  0.00    -0.088 NA
BRANCH  20  21
HETATM   21  C8  UNL     1      25.796  30.345  38.642  1.00  0.00     0.352 C 
HETATM   22  N6  UNL     1      25.620  31.293  39.711  1.00  0.00    -0.079 NA
HETATM   23  N7  UNL     1      26.145  30.800  40.903  1.00  0.00    -0.032 NA
HETATM   24  N8  UNL     1      27.108  29.843  40.591  1.00  0.00    -0.071 NA
HETATM   25  C9  UNL     1      27.920  30.239  39.475  1.00  0.00     0.378 C 
HETATM   26  O3  UNL     1      27.128  30.156  38.322  1.00  0.00    -0.307 OA
BRANCH  25  27
HETATM   27  O2  UNL     1      28.437  31.522  39.642  1.00  0.00    -0.357 OA
ATOM     28  H2  UNL     1      28.478  31.995  38.819  1.00  0.00     0.214 HD
ENDBRANCH  25  27
ENDBRANCH  20  21
ENDBRANCH  18  20
ENDBRANCH   1  18
TORSDOF 11
ENDMDL
