MODEL 1
REMARK VINA RESULT: -6.625519224      0.000      0.000
REMARK  11 active torsions:
REMARK  status: ('A' for Active; 'I' for Inactive)
REMARK    1  A    between atoms: N1_1  and  C1_5 
REMARK    2  A    between atoms: C3_7  and  N2_8 
REMARK    3  A    between atoms: C4_12  and  N3_13 
REMARK    4  A    between atoms: N3_13  and  C5_15 
REMARK    5  A    between atoms: C5_15  and  C6_16 
REMARK    6  A    between atoms: C6_16  and  C7_17 
REMARK    7  A    between atoms: C7_17  and  O1_18 
REMARK    8  A    between atoms: O1_18  and  C8_19 
REMARK    9  A    between atoms: C8_19  and  C9_20 
REMARK   10  A    between atoms: C10_26  and  O2_27 
REMARK   11  A    between atoms: C11_29  and  O3_30 
ROOT
HETATM    1  C6  UNL     1      24.377  26.565  40.690  1.00  0.00     0.045 C 
ENDROOT
BRANCH   1   2
HETATM    2  C5  UNL     1      25.677  27.393  40.799  1.00  0.00     0.116 C 
BRANCH   2   3
HETATM    3  N3  UNL     1      25.566  28.497  39.919  1.00  0.00    -0.413 N 
ATOM      4  H3  UNL     1      24.996  28.423  39.078  1.00  0.00     0.153 HD
BRANCH   3   5
HETATM    5  C4  UNL     1      26.243  29.695  40.206  1.00  0.00     0.137 C 
HETATM    6  C1  UNL     1      25.631  31.025  39.952  1.00  0.00     0.209 C 
HETATM    7  C2  UNL     1      26.006  30.843  38.473  1.00  0.00     0.069 C 
HETATM    8  C3  UNL     1      27.177  30.011  39.016  1.00  0.00     0.209 C 
BRANCH   6   9
HETATM    9  N1  UNL     1      24.262  31.254  40.222  1.00  0.00    -0.073 N 
ATOM     10  H13 UNL     1      24.167  31.916  40.993  1.00  0.00     0.274 HD
ATOM     11  H12 UNL     1      23.846  31.795  39.464  1.00  0.00     0.274 HD
ATOM     12  H11 UNL     1      23.697  30.425  40.407  1.00  0.00     0.274 HD
ENDBRANCH   6   9
BRANCH   8  13
HETATM   13  N2  UNL     1      28.297  30.840  39.391  1.00  0.00    -0.073 N 
ATOM     14  H23 UNL     1      28.014  31.573  40.041  1.00  0.00     0.274 HD
ATOM     15  H22 UNL     1      28.947  30.335  39.993  1.00  0.00     0.274 HD
ATOM     16  H21 UNL     1      28.771  31.229  38.577  1.00  0.00     0.274 HD
ENDBRANCH   8  13
ENDBRANCH   3   5
ENDBRANCH   2   3
ENDBRANCH   1   2
BRANCH   1  17
HETATM   17  C7  UNL     1      23.352  27.136  41.579  1.00  0.00     0.169 C 
BRANCH  17  18
HETATM   18  O1  UNL     1      23.220  28.469  41.665  1.00  0.00    -0.389 OA
BRANCH  18  19
HETATM   19  C8  UNL     1      21.987  29.023  41.611  1.00  0.00     0.197 C 
BRANCH  19  20
HETATM   20  C9  UNL     1      21.170  28.544  40.404  1.00  0.00     0.156 C 
HETATM   21  N4  UNL     1      19.800  28.507  40.781  1.00  0.00    -0.315 N 
HETATM   22  N5  UNL     1      19.007  29.546  40.374  1.00  0.00    -0.248 N 
ATOM     23  H4  UNL     1      19.422  27.736  41.332  1.00  0.00     0.181 HD
HETATM   24  N6  UNL     1      19.113  29.902  39.046  1.00  0.00    -0.091 NA
ATOM     25  H5  UNL     1      18.376  30.028  41.015  1.00  0.00     0.203 HD
HETATM   26  C10 UNL     1      20.465  30.378  38.832  1.00  0.00     0.263 C 
HETATM   27  C11 UNL     1      21.485  29.348  39.178  1.00  0.00     0.190 C 
BRANCH  26  28
HETATM   28  O2  UNL     1      20.581  30.700  37.481  1.00  0.00    -0.375 OA
ATOM     29  H2  UNL     1      21.400  30.329  37.172  1.00  0.00     0.211 HD
ENDBRANCH  26  28
BRANCH  27  30
HETATM   30  O3  UNL     1      21.704  28.554  38.058  1.00  0.00    -0.389 OA
ATOM     31  H3  UNL     1      22.523  28.755  37.621  1.00  0.00     0.210 HD
ENDBRANCH  27  30
ENDBRANCH  19  20
ENDBRANCH  18  19
ENDBRANCH  17  18
ENDBRANCH   1  17
TORSDOF 11
ENDMDL
MODEL 2
REMARK VINA RESULT: -6.596270396      2.528      6.244
REMARK  11 active torsions:
REMARK  status: ('A' for Active; 'I' for Inactive)
REMARK    1  A    between atoms: N1_1  and  C1_5 
REMARK    2  A    between atoms: C3_7  and  N2_8 
REMARK    3  A    between atoms: C4_12  and  N3_13 
REMARK    4  A    between atoms: N3_13  and  C5_15 
REMARK    5  A    between atoms: C5_15  and  C6_16 
REMARK    6  A    between atoms: C6_16  and  C7_17 
REMARK    7  A    between atoms: C7_17  and  O1_18 
REMARK    8  A    between atoms: O1_18  and  C8_19 
REMARK    9  A    between atoms: C8_19  and  C9_20 
REMARK   10  A    between atoms: C10_26  and  O2_27 
REMARK   11  A    between atoms: C11_29  and  O3_30 
ROOT
HETATM    1  C6  UNL     1      23.022  27.571  41.434  1.00  0.00     0.045 C 
ENDROOT
BRANCH   1   2
HETATM    2  C5  UNL     1      22.135  26.928  40.345  1.00  0.00     0.116 C 
BRANCH   2   3
HETATM    3  N3  UNL     1      21.524  27.971  39.608  1.00  0.00    -0.413 N 
ATOM      4  H3  UNL     1      22.081  28.764  39.290  1.00  0.00     0.153 HD
BRANCH   3   5
HETATM    5  C4  UNL     1      20.151  27.914  39.315  1.00  0.00     0.137 C 
HETATM    6  C1  UNL     1      19.365  29.131  38.987  1.00  0.00     0.209 C 
HETATM    7  C2  UNL     1      19.314  29.426  40.494  1.00  0.00     0.069 C 
HETATM    8  C3  UNL     1      19.378  27.901  40.654  1.00  0.00     0.209 C 
BRANCH   6   9
HETATM    9  N1  UNL     1      19.914  30.149  38.173  1.00  0.00    -0.073 N 
ATOM     10  H13 UNL     1      20.926  30.180  38.294  1.00  0.00     0.274 HD
ATOM     11  H12 UNL     1      19.855  29.877  37.192  1.00  0.00     0.274 HD
ATOM     12  H11 UNL     1      19.522  31.083  38.297  1.00  0.00     0.274 HD
ENDBRANCH   6   9
BRANCH   8  13
HETATM   13  N2  UNL     1      18.075  27.293  40.539  1.00  0.00    -0.073 N 
ATOM     14  H23 UNL     1      17.551  27.373  41.410  1.00  0.00     0.274 HD
ATOM     15  H22 UNL     1      17.463  27.839  39.933  1.00  0.00     0.274 HD
ATOM     16  H21 UNL     1      18.134  26.323  40.230  1.00  0.00     0.274 HD
ENDBRANCH   8  13
ENDBRANCH   3   5
ENDBRANCH   2   3
ENDBRANCH   1   2
BRANCH   1  17
HETATM   17  C7  UNL     1      22.971  29.038  41.311  1.00  0.00     0.169 C 
BRANCH  17  18
HETATM   18  O1  UNL     1      24.015  29.692  40.779  1.00  0.00    -0.389 OA
BRANCH  18  19
HETATM   19  C8  UNL     1      24.971  28.999  40.118  1.00  0.00     0.197 C 
BRANCH  19  20
HETATM   20  C9  UNL     1      25.688  29.839  39.053  1.00  0.00     0.156 C 
HETATM   21  N4  UNL     1      25.037  31.101  38.970  1.00  0.00    -0.315 N 
HETATM   22  N5  UNL     1      25.632  32.159  39.603  1.00  0.00    -0.248 N 
ATOM     23  H4  UNL     1      24.162  31.213  38.458  1.00  0.00     0.181 HD
HETATM   24  N6  UNL     1      26.983  32.317  39.373  1.00  0.00    -0.091 NA
ATOM     25  H5  UNL     1      25.109  32.791  40.208  1.00  0.00     0.203 HD
HETATM   26  C10 UNL     1      27.654  31.152  39.915  1.00  0.00     0.263 C 
HETATM   27  C11 UNL     1      27.166  29.886  39.298  1.00  0.00     0.190 C 
BRANCH  26  28
HETATM   28  O2  UNL     1      29.014  31.297  39.646  1.00  0.00    -0.375 OA
ATOM     29  H2  UNL     1      29.242  30.649  38.990  1.00  0.00     0.211 HD
ENDBRANCH  26  28
BRANCH  27  30
HETATM   30  O3  UNL     1      27.909  29.644  38.148  1.00  0.00    -0.389 OA
ATOM     31  H3  UNL     1      28.705  30.160  38.110  1.00  0.00     0.210 HD
ENDBRANCH  27  30
ENDBRANCH  19  20
ENDBRANCH  18  19
ENDBRANCH  17  18
ENDBRANCH   1  17
TORSDOF 11
ENDMDL
MODEL 3
REMARK VINA RESULT: -6.555935679      2.410      5.617
REMARK  11 active torsions:
REMARK  status: ('A' for Active; 'I' for Inactive)
REMARK    1  A    between atoms: N1_1  and  C1_5 
REMARK    2  A    between atoms: C3_7  and  N2_8 
REMARK    3  A    between atoms: C4_12  and  N3_13 
REMARK    4  A    between atoms: N3_13  and  C5_15 
REMARK    5  A    between atoms: C5_15  and  C6_16 
REMARK    6  A    between atoms: C6_16  and  C7_17 
REMARK    7  A    between atoms: C7_17  and  O1_18 
REMARK    8  A    between atoms: O1_18  and  C8_19 
REMARK    9  A    between atoms: C8_19  and  C9_20 
REMARK   10  A    between atoms: C10_26  and  O2_27 
REMARK   11  A    between atoms: C11_29  and  O3_30 
ROOT
HETATM    1  C6  UNL     1      22.910  26.466  40.620  1.00  0.00     0.045 C 
ENDROOT
BRANCH   1   2
HETATM    2  C5  UNL     1      21.445  26.882  40.356  1.00  0.00     0.116 C 
BRANCH   2   3
HETATM    3  N3  UNL     1      21.457  28.162  39.751  1.00  0.00    -0.413 N 
ATOM      4  H3  UNL     1      22.190  28.404  39.085  1.00  0.00     0.153 HD
BRANCH   3   5
HETATM    5  C4  UNL     1      20.459  29.098  40.070  1.00  0.00     0.137 C 
HETATM    6  C1  UNL     1      20.339  30.394  39.354  1.00  0.00     0.209 C 
HETATM    7  C2  UNL     1      21.491  30.910  40.229  1.00  0.00     0.069 C 
HETATM    8  C3  UNL     1      20.952  29.928  41.278  1.00  0.00     0.209 C 
BRANCH   6   9
HETATM    9  N1  UNL     1      20.539  30.470  37.956  1.00  0.00    -0.073 N 
ATOM     10  H13 UNL     1      19.732  30.911  37.515  1.00  0.00     0.274 HD
ATOM     11  H12 UNL     1      21.261  31.158  37.747  1.00  0.00     0.274 HD
ATOM     12  H11 UNL     1      20.752  29.590  37.486  1.00  0.00     0.274 HD
ENDBRANCH   6   9
BRANCH   8  13
HETATM   13  N2  UNL     1      19.869  30.498  42.042  1.00  0.00    -0.073 N 
ATOM     14  H23 UNL     1      19.772  31.496  41.860  1.00  0.00     0.274 HD
ATOM     15  H22 UNL     1      18.963  30.183  41.693  1.00  0.00     0.274 HD
ATOM     16  H21 UNL     1      19.968  30.310  43.039  1.00  0.00     0.274 HD
ENDBRANCH   8  13
ENDBRANCH   3   5
ENDBRANCH   2   3
ENDBRANCH   1   2
BRANCH   1  17
HETATM   17  C7  UNL     1      23.560  27.469  41.480  1.00  0.00     0.169 C 
BRANCH  17  18
HETATM   18  O1  UNL     1      24.320  28.425  40.922  1.00  0.00    -0.389 OA
BRANCH  18  19
HETATM   19  C8  UNL     1      25.433  28.078  40.236  1.00  0.00     0.197 C 
BRANCH  19  20
HETATM   20  C9  UNL     1      25.813  29.102  39.159  1.00  0.00     0.156 C 
HETATM   21  N4  UNL     1      24.870  30.165  39.204  1.00  0.00    -0.315 N 
HETATM   22  N5  UNL     1      25.250  31.317  39.838  1.00  0.00    -0.248 N 
ATOM     23  H4  UNL     1      23.946  30.073  38.780  1.00  0.00     0.181 HD
HETATM   24  N6  UNL     1      26.491  31.812  39.496  1.00  0.00    -0.091 NA
ATOM     25  H5  UNL     1      24.652  31.781  40.522  1.00  0.00     0.203 HD
HETATM   26  C10 UNL     1      27.477  30.833  39.910  1.00  0.00     0.263 C 
HETATM   27  C11 UNL     1      27.252  29.505  39.272  1.00  0.00     0.190 C 
BRANCH  26  28
HETATM   28  O2  UNL     1      28.726  31.318  39.529  1.00  0.00    -0.375 OA
ATOM     29  H2  UNL     1      29.342  30.599  39.605  1.00  0.00     0.211 HD
ENDBRANCH  26  28
BRANCH  27  30
HETATM   30  O3  UNL     1      27.911  29.490  38.048  1.00  0.00    -0.389 OA
ATOM     31  H3  UNL     1      28.668  28.916  38.046  1.00  0.00     0.210 HD
ENDBRANCH  27  30
ENDBRANCH  19  20
ENDBRANCH  18  19
ENDBRANCH  17  18
ENDBRANCH   1  17
TORSDOF 11
ENDMDL
MODEL 4
REMARK VINA RESULT: -6.544784191      1.780      2.453
REMARK  11 active torsions:
REMARK  status: ('A' for Active; 'I' for Inactive)
REMARK    1  A    between atoms: N1_1  and  C1_5 
REMARK    2  A    between atoms: C3_7  and  N2_8 
REMARK    3  A    between atoms: C4_12  and  N3_13 
REMARK    4  A    between atoms: N3_13  and  C5_15 
REMARK    5  A    between atoms: C5_15  and  C6_16 
REMARK    6  A    between atoms: C6_16  and  C7_17 
REMARK    7  A    between atoms: C7_17  and  O1_18 
REMARK    8  A    between atoms: O1_18  and  C8_19 
REMARK    9  A    between atoms: C8_19  and  C9_20 
REMARK   10  A    between atoms: C10_26  and  O2_27 
REMARK   11  A    between atoms: C11_29  and  O3_30 
ROOT
HETATM    1  C6  UNL     1      23.703  27.215  40.770  1.00  0.00     0.045 C 
ENDROOT
BRANCH   1   2
HETATM    2  C5  UNL     1      24.031  27.913  39.431  1.00  0.00     0.116 C 
BRANCH   2   3
HETATM    3  N3  UNL     1      25.306  28.515  39.554  1.00  0.00    -0.413 N 
ATOM      4  H3  UNL     1      26.075  27.999  39.982  1.00  0.00     0.153 HD
BRANCH   3   5
HETATM    5  C4  UNL     1      25.513  29.824  39.087  1.00  0.00     0.137 C 
HETATM    6  C1  UNL     1      26.867  30.335  38.749  1.00  0.00     0.209 C 
HETATM    7  C2  UNL     1      27.095  30.540  40.254  1.00  0.00     0.069 C 
HETATM    8  C3  UNL     1      25.577  30.764  40.313  1.00  0.00     0.209 C 
BRANCH   6   9
HETATM    9  N1  UNL     1      27.805  29.511  38.085  1.00  0.00    -0.073 N 
ATOM     10  H13 UNL     1      27.791  28.575  38.490  1.00  0.00     0.274 HD
ATOM     11  H12 UNL     1      27.479  29.307  37.140  1.00  0.00     0.274 HD
ATOM     12  H11 UNL     1      28.763  29.860  38.053  1.00  0.00     0.274 HD
ENDBRANCH   6   9
BRANCH   8  13
HETATM   13  N2  UNL     1      25.222  32.125  39.992  1.00  0.00    -0.073 N 
ATOM     14  H23 UNL     1      24.710  32.176  39.112  1.00  0.00     0.274 HD
ATOM     15  H22 UNL     1      24.498  32.477  40.620  1.00  0.00     0.274 HD
ATOM     16  H21 UNL     1      26.036  32.738  39.984  1.00  0.00     0.274 HD
ENDBRANCH   8  13
ENDBRANCH   3   5
ENDBRANCH   2   3
ENDBRANCH   1   2
BRANCH   1  17
HETATM   17  C7  UNL     1      22.942  28.135  41.632  1.00  0.00     0.169 C 
BRANCH  17  18
HETATM   18  O1  UNL     1      22.913  29.444  41.339  1.00  0.00    -0.389 OA
BRANCH  18  19
HETATM   19  C8  UNL     1      21.933  30.222  41.854  1.00  0.00     0.197 C 
BRANCH  19  20
HETATM   20  C9  UNL     1      20.938  30.708  40.792  1.00  0.00     0.156 C 
HETATM   21  N4  UNL     1      21.674  31.318  39.739  1.00  0.00    -0.315 N 
HETATM   22  N5  UNL     1      21.879  30.579  38.605  1.00  0.00    -0.248 N 
ATOM     23  H4  UNL     1      22.034  32.268  39.826  1.00  0.00     0.181 HD
HETATM   24  N6  UNL     1      20.768  29.946  38.088  1.00  0.00    -0.091 NA
ATOM     25  H5  UNL     1      22.798  30.502  38.169  1.00  0.00     0.203 HD
HETATM   26  C10 UNL     1      20.325  28.977  39.071  1.00  0.00     0.263 C 
HETATM   27  C11 UNL     1      20.001  29.613  40.380  1.00  0.00     0.190 C 
BRANCH  26  28
HETATM   28  O2  UNL     1      19.181  28.367  38.563  1.00  0.00    -0.375 OA
ATOM     29  H2  UNL     1      18.473  28.998  38.627  1.00  0.00     0.211 HD
ENDBRANCH  26  28
BRANCH  27  30
HETATM   30  O3  UNL     1      18.674  30.026  40.349  1.00  0.00    -0.389 OA
ATOM     31  H3  UNL     1      18.070  29.338  40.604  1.00  0.00     0.210 HD
ENDBRANCH  27  30
ENDBRANCH  19  20
ENDBRANCH  18  19
ENDBRANCH  17  18
ENDBRANCH   1  17
TORSDOF 11
ENDMDL
MODEL 5
REMARK VINA RESULT: -6.533641891      2.215      3.498
REMARK  11 active torsions:
REMARK  status: ('A' for Active; 'I' for Inactive)
REMARK    1  A    between atoms: N1_1  and  C1_5 
REMARK    2  A    between atoms: C3_7  and  N2_8 
REMARK    3  A    between atoms: C4_12  and  N3_13 
REMARK    4  A    between atoms: N3_13  and  C5_15 
REMARK    5  A    between atoms: C5_15  and  C6_16 
REMARK    6  A    between atoms: C6_16  and  C7_17 
REMARK    7  A    between atoms: C7_17  and  O1_18 
REMARK    8  A    between atoms: O1_18  and  C8_19 
REMARK    9  A    between atoms: C8_19  and  C9_20 
REMARK   10  A    between atoms: C10_26  and  O2_27 
REMARK   11  A    between atoms: C11_29  and  O3_30 
ROOT
HETATM    1  C6  UNL     1      25.849  30.344  39.651  1.00  0.00     0.045 C 
ENDROOT
BRANCH   1   2
HETATM    2  C5  UNL     1      26.461  29.300  40.611  1.00  0.00     0.116 C 
BRANCH   2   3
HETATM    3  N3  UNL     1      25.687  28.118  40.521  1.00  0.00    -0.413 N 
ATOM      4  H3  UNL     1      25.195  27.767  41.343  1.00  0.00     0.153 HD
BRANCH   3   5
HETATM    5  C4  UNL     1      25.595  27.428  39.300  1.00  0.00     0.137 C 
HETATM    6  C1  UNL     1      24.324  26.815  38.835  1.00  0.00     0.209 C 
HETATM    7  C2  UNL     1      24.613  25.648  39.791  1.00  0.00     0.069 C 
HETATM    8  C3  UNL     1      26.089  25.981  39.532  1.00  0.00     0.209 C 
BRANCH   6   9
HETATM    9  N1  UNL     1      23.090  27.481  39.022  1.00  0.00    -0.073 N 
ATOM     10  H13 UNL     1      22.329  26.905  38.661  1.00  0.00     0.274 HD
ATOM     11  H12 UNL     1      22.853  27.498  40.014  1.00  0.00     0.274 HD
ATOM     12  H11 UNL     1      23.026  28.422  38.634  1.00  0.00     0.274 HD
ENDBRANCH   6   9
BRANCH   8  13
HETATM   13  N2  UNL     1      26.577  25.359  38.325  1.00  0.00    -0.073 N 
ATOM     14  H23 UNL     1      25.869  24.754  37.908  1.00  0.00     0.274 HD
ATOM     15  H22 UNL     1      26.673  26.038  37.570  1.00  0.00     0.274 HD
ATOM     16  H21 UNL     1      27.449  24.855  38.484  1.00  0.00     0.274 HD
ENDBRANCH   8  13
ENDBRANCH   3   5
ENDBRANCH   2   3
ENDBRANCH   1   2
BRANCH   1  17
HETATM   17  C7  UNL     1      24.625  30.906  40.248  1.00  0.00     0.169 C 
BRANCH  17  18
HETATM   18  O1  UNL     1      23.441  30.328  39.995  1.00  0.00    -0.389 OA
BRANCH  18  19
HETATM   19  C8  UNL     1      22.475  30.342  40.943  1.00  0.00     0.197 C 
BRANCH  19  20
HETATM   20  C9  UNL     1      21.092  30.695  40.379  1.00  0.00     0.156 C 
HETATM   21  N4  UNL     1      21.253  31.092  39.023  1.00  0.00    -0.315 N 
HETATM   22  N5  UNL     1      20.949  30.171  38.057  1.00  0.00    -0.248 N 
ATOM     23  H4  UNL     1      21.582  32.027  38.780  1.00  0.00     0.181 HD
HETATM   24  N6  UNL     1      19.745  29.514  38.209  1.00  0.00    -0.091 NA
ATOM     25  H5  UNL     1      21.573  29.982  37.274  1.00  0.00     0.203 HD
HETATM   26  C10 UNL     1      19.826  28.739  39.430  1.00  0.00     0.263 C 
HETATM   27  C11 UNL     1      20.106  29.592  40.620  1.00  0.00     0.190 C 
BRANCH  26  28
HETATM   28  O2  UNL     1      18.596  28.107  39.601  1.00  0.00    -0.375 OA
ATOM     29  H2  UNL     1      18.768  27.179  39.713  1.00  0.00     0.211 HD
ENDBRANCH  26  28
BRANCH  27  30
HETATM   30  O3  UNL     1      18.896  30.054  41.123  1.00  0.00    -0.389 OA
ATOM     31  H3  UNL     1      18.304  29.350  41.359  1.00  0.00     0.210 HD
ENDBRANCH  27  30
ENDBRANCH  19  20
ENDBRANCH  18  19
ENDBRANCH  17  18
ENDBRANCH   1  17
TORSDOF 11
ENDMDL
