MODEL 1
REMARK VINA RESULT: -6.666438957      0.000      0.000
REMARK  5 active torsions:
REMARK  status: ('A' for Active; 'I' for Inactive)
REMARK    1  A    between atoms: C2_2  and  C3_4 
REMARK    2  A    between atoms: C3_4  and  O2_5 
REMARK    3  A    between atoms: C3_4  and  N1_7 
REMARK    4  A    between atoms: N1_7  and  N2_9 
REMARK    5  A    between atoms: C7_17  and  N5_18 
ROOT
HETATM    1  N2  UNL     1       6.343  -9.258  38.349  1.00  0.00    -0.050 N 
HETATM    2  C4  UNL     1       6.586  -7.921  38.550  1.00  0.00     0.285 A 
HETATM    3  O3  UNL     1       6.535  -7.435  39.732  1.00  0.00    -0.266 OA
HETATM    4  C5  UNL     1       6.877  -7.139  37.471  1.00  0.00     0.122 A 
HETATM    5  C6  UNL     1       6.938  -7.636  36.183  1.00  0.00     0.137 A 
HETATM    6  N3  UNL     1       7.247  -6.760  35.123  1.00  0.00    -0.082 NA
HETATM    7  N4  UNL     1       6.697  -8.940  36.028  1.00  0.00    -0.177 N 
ATOM      8  H4  UNL     1       6.732  -9.350  35.094  1.00  0.00     0.185 HD
HETATM    9  C7  UNL     1       6.406  -9.731  37.096  1.00  0.00     0.701 A 
ENDROOT
BRANCH   1  10
HETATM   10  N1  UNL     1       6.039 -10.015  39.461  1.00  0.00    -0.277 N 
ATOM     11  H1  UNL     1       6.825 -10.253  40.067  1.00  0.00     0.184 HD
BRANCH  10  12
HETATM   12  C3  UNL     1       4.768 -10.508  39.871  1.00  0.00     0.304 C 
BRANCH  12  13
HETATM   13  C2  UNL     1       3.650  -9.712  39.253  1.00  0.00     0.172 C 
HETATM   14  C1  UNL     1       3.100  -8.498  39.911  1.00  0.00     0.096 C 
HETATM   15  O1  UNL     1       3.200 -10.082  38.194  1.00  0.00    -0.294 OA
ENDBRANCH  12  13
BRANCH  12  16
HETATM   16  O2  UNL     1       4.562 -10.438  41.264  1.00  0.00    -0.368 OA
ATOM     17  H2  UNL     1       5.034 -11.177  41.631  1.00  0.00     0.212 HD
ENDBRANCH  12  16
ENDBRANCH  10  12
ENDBRANCH   1  10
BRANCH   9  18
HETATM   18  N5  UNL     1       6.180 -10.959  36.821  1.00  0.00    -0.233 N 
ATOM     19  H52 UNL     1       6.653 -11.635  37.421  1.00  0.00     0.174 HD
ATOM     20  H51 UNL     1       5.577 -11.239  36.047  1.00  0.00     0.174 HD
ENDBRANCH   9  18
TORSDOF 5
ENDMDL
MODEL 2
REMARK VINA RESULT: -6.579898238      1.421      1.701
REMARK  5 active torsions:
REMARK  status: ('A' for Active; 'I' for Inactive)
REMARK    1  A    between atoms: C2_2  and  C3_4 
REMARK    2  A    between atoms: C3_4  and  O2_5 
REMARK    3  A    between atoms: C3_4  and  N1_7 
REMARK    4  A    between atoms: N1_7  and  N2_9 
REMARK    5  A    between atoms: C7_17  and  N5_18 
ROOT
HETATM    1  N2  UNL     1       5.444  -9.082  38.130  1.00  0.00    -0.050 N 
HETATM    2  C4  UNL     1       5.323  -7.715  38.068  1.00  0.00     0.285 A 
HETATM    3  O3  UNL     1       4.636  -7.095  38.950  1.00  0.00    -0.266 OA
HETATM    4  C5  UNL     1       5.946  -7.049  37.053  1.00  0.00     0.122 A 
HETATM    5  C6  UNL     1       6.694  -7.692  36.086  1.00  0.00     0.137 A 
HETATM    6  N3  UNL     1       7.306  -6.928  35.072  1.00  0.00    -0.082 NA
HETATM    7  N4  UNL     1       6.789  -9.020  36.180  1.00  0.00    -0.177 N 
ATOM      8  H4  UNL     1       7.332  -9.536  35.487  1.00  0.00     0.185 HD
HETATM    9  C7  UNL     1       6.173  -9.696  37.187  1.00  0.00     0.701 A 
ENDROOT
BRANCH   1  10
HETATM   10  N1  UNL     1       4.790  -9.724  39.161  1.00  0.00    -0.277 N 
ATOM     11  H1  UNL     1       3.855 -10.072  38.947  1.00  0.00     0.184 HD
BRANCH  10  12
HETATM   12  C3  UNL     1       5.254  -9.963  40.486  1.00  0.00     0.304 C 
BRANCH  12  13
HETATM   13  C2  UNL     1       4.144  -9.803  41.489  1.00  0.00     0.172 C 
HETATM   14  C1  UNL     1       2.938  -8.985  41.195  1.00  0.00     0.096 C 
HETATM   15  O1  UNL     1       4.251 -10.361  42.556  1.00  0.00    -0.294 OA
ENDBRANCH  12  13
BRANCH  12  16
HETATM   16  O2  UNL     1       6.268  -9.072  40.893  1.00  0.00    -0.368 OA
ATOM     17  H2  UNL     1       6.129  -8.277  40.393  1.00  0.00     0.212 HD
ENDBRANCH  12  16
ENDBRANCH  10  12
ENDBRANCH   1  10
BRANCH   9  18
HETATM   18  N5  UNL     1       6.324 -10.966  37.165  1.00  0.00    -0.233 N 
ATOM     19  H52 UNL     1       6.596 -11.389  38.053  1.00  0.00     0.174 HD
ATOM     20  H51 UNL     1       6.193 -11.513  36.313  1.00  0.00     0.174 HD
ENDBRANCH   9  18
TORSDOF 5
ENDMDL
MODEL 3
REMARK VINA RESULT: -6.513006044      2.469      3.140
REMARK  5 active torsions:
REMARK  status: ('A' for Active; 'I' for Inactive)
REMARK    1  A    between atoms: C2_2  and  C3_4 
REMARK    2  A    between atoms: C3_4  and  O2_5 
REMARK    3  A    between atoms: C3_4  and  N1_7 
REMARK    4  A    between atoms: N1_7  and  N2_9 
REMARK    5  A    between atoms: C7_17  and  N5_18 
ROOT
HETATM    1  N2  UNL     1       5.827  -9.588  38.000  1.00  0.00    -0.050 N 
HETATM    2  C4  UNL     1       5.002  -8.732  38.689  1.00  0.00     0.285 A 
HETATM    3  O3  UNL     1       4.533  -9.078  39.827  1.00  0.00    -0.266 OA
HETATM    4  C5  UNL     1       4.703  -7.523  38.133  1.00  0.00     0.122 A 
HETATM    5  C6  UNL     1       5.194  -7.123  36.905  1.00  0.00     0.137 A 
HETATM    6  N3  UNL     1       4.836  -5.857  36.402  1.00  0.00    -0.082 NA
HETATM    7  N4  UNL     1       5.992  -7.981  36.266  1.00  0.00    -0.177 N 
ATOM      8  H4  UNL     1       6.379  -7.727  35.356  1.00  0.00     0.185 HD
HETATM    9  C7  UNL     1       6.299  -9.190  36.809  1.00  0.00     0.701 A 
ENDROOT
BRANCH   1  10
HETATM   10  N1  UNL     1       6.098 -10.807  38.586  1.00  0.00    -0.277 N 
ATOM     11  H1  UNL     1       5.299 -11.430  38.707  1.00  0.00     0.184 HD
BRANCH  10  12
HETATM   12  C3  UNL     1       7.350 -11.306  39.043  1.00  0.00     0.304 C 
BRANCH  12  13
HETATM   13  C2  UNL     1       8.141 -10.236  39.745  1.00  0.00     0.172 C 
HETATM   14  C1  UNL     1       7.673  -9.629  41.019  1.00  0.00     0.096 C 
HETATM   15  O1  UNL     1       9.180  -9.871  39.248  1.00  0.00    -0.294 OA
ENDBRANCH  12  13
BRANCH  12  16
HETATM   16  O2  UNL     1       8.180 -11.774  38.003  1.00  0.00    -0.368 OA
ATOM     17  H2  UNL     1       7.992 -11.220  37.255  1.00  0.00     0.212 HD
ENDBRANCH  12  16
ENDBRANCH  10  12
ENDBRANCH   1  10
BRANCH   9  18
HETATM   18  N5  UNL     1       7.061  -9.932  36.098  1.00  0.00    -0.233 N 
ATOM     19  H52 UNL     1       8.015  -9.589  35.978  1.00  0.00     0.174 HD
ATOM     20  H51 UNL     1       6.731 -10.799  35.674  1.00  0.00     0.174 HD
ENDBRANCH   9  18
TORSDOF 5
ENDMDL
MODEL 4
REMARK VINA RESULT: -6.500518856      2.822      4.980
REMARK  5 active torsions:
REMARK  status: ('A' for Active; 'I' for Inactive)
REMARK    1  A    between atoms: C2_2  and  C3_4 
REMARK    2  A    between atoms: C3_4  and  O2_5 
REMARK    3  A    between atoms: C3_4  and  N1_7 
REMARK    4  A    between atoms: N1_7  and  N2_9 
REMARK    5  A    between atoms: C7_17  and  N5_18 
ROOT
HETATM    1  N2  UNL     1       5.749  -9.533  40.954  1.00  0.00    -0.050 N 
HETATM    2  C4  UNL     1       4.736  -9.404  41.872  1.00  0.00     0.285 A 
HETATM    3  O3  UNL     1       3.521  -9.565  41.508  1.00  0.00    -0.266 OA
HETATM    4  C5  UNL     1       5.059  -9.103  43.163  1.00  0.00     0.122 A 
HETATM    5  C6  UNL     1       6.362  -8.922  43.585  1.00  0.00     0.137 A 
HETATM    6  N3  UNL     1       6.609  -8.613  44.937  1.00  0.00    -0.082 NA
HETATM    7  N4  UNL     1       7.318  -9.055  42.663  1.00  0.00    -0.177 N 
ATOM      8  H4  UNL     1       8.295  -8.931  42.930  1.00  0.00     0.185 HD
HETATM    9  C7  UNL     1       7.010  -9.356  41.373  1.00  0.00     0.701 A 
ENDROOT
BRANCH   1  10
HETATM   10  N1  UNL     1       5.385  -9.824  39.655  1.00  0.00    -0.277 N 
ATOM     11  H1  UNL     1       5.280  -9.024  39.032  1.00  0.00     0.184 HD
BRANCH  10  12
HETATM   12  C3  UNL     1       5.139 -11.101  39.074  1.00  0.00     0.304 C 
BRANCH  12  13
HETATM   13  C2  UNL     1       5.769 -11.211  37.713  1.00  0.00     0.172 C 
HETATM   14  C1  UNL     1       6.580 -10.107  37.136  1.00  0.00     0.096 C 
HETATM   15  O1  UNL     1       5.603 -12.231  37.086  1.00  0.00    -0.294 OA
ENDBRANCH  12  13
BRANCH  12  16
HETATM   16  O2  UNL     1       3.769 -11.375  38.885  1.00  0.00    -0.368 OA
ATOM     17  H2  UNL     1       3.671 -12.309  39.026  1.00  0.00     0.212 HD
ENDBRANCH  12  16
ENDBRANCH  10  12
ENDBRANCH   1  10
BRANCH   9  18
HETATM   18  N5  UNL     1       8.009  -9.444  40.579  1.00  0.00    -0.233 N 
ATOM     19  H52 UNL     1       7.877 -10.063  39.778  1.00  0.00     0.174 HD
ATOM     20  H51 UNL     1       8.880  -8.939  40.745  1.00  0.00     0.174 HD
ENDBRANCH   9  18
TORSDOF 5
ENDMDL
MODEL 5
REMARK VINA RESULT: -6.484643028      1.348      1.852
REMARK  5 active torsions:
REMARK  status: ('A' for Active; 'I' for Inactive)
REMARK    1  A    between atoms: C2_2  and  C3_4 
REMARK    2  A    between atoms: C3_4  and  O2_5 
REMARK    3  A    between atoms: C3_4  and  N1_7 
REMARK    4  A    between atoms: N1_7  and  N2_9 
REMARK    5  A    between atoms: C7_17  and  N5_18 
ROOT
HETATM    1  N2  UNL     1       5.613  -8.797  38.794  1.00  0.00    -0.050 N 
HETATM    2  C4  UNL     1       6.372  -7.657  38.896  1.00  0.00     0.285 A 
HETATM    3  O3  UNL     1       6.547  -7.107  40.036  1.00  0.00    -0.266 OA
HETATM    4  C5  UNL     1       6.924  -7.137  37.762  1.00  0.00     0.122 A 
HETATM    5  C6  UNL     1       6.752  -7.708  36.516  1.00  0.00     0.137 A 
HETATM    6  N3  UNL     1       7.358  -7.107  35.395  1.00  0.00    -0.082 NA
HETATM    7  N4  UNL     1       6.008  -8.815  36.458  1.00  0.00    -0.177 N 
ATOM      8  H4  UNL     1       5.855  -9.272  35.559  1.00  0.00     0.185 HD
HETATM    9  C7  UNL     1       5.452  -9.345  37.581  1.00  0.00     0.701 A 
ENDROOT
BRANCH   1  10
HETATM   10  N1  UNL     1       5.059  -9.288  39.959  1.00  0.00    -0.277 N 
ATOM     11  H1  UNL     1       5.676  -9.854  40.541  1.00  0.00     0.184 HD
BRANCH  10  12
HETATM   12  C3  UNL     1       3.735  -9.106  40.450  1.00  0.00     0.304 C 
BRANCH  12  13
HETATM   13  C2  UNL     1       3.651  -9.421  41.919  1.00  0.00     0.172 C 
HETATM   14  C1  UNL     1       2.798  -8.625  42.840  1.00  0.00     0.096 C 
HETATM   15  O1  UNL     1       4.299 -10.348  42.344  1.00  0.00    -0.294 OA
ENDBRANCH  12  13
BRANCH  12  16
HETATM   16  O2  UNL     1       2.786  -9.940  39.825  1.00  0.00    -0.368 OA
ATOM     17  H2  UNL     1       1.939  -9.556  40.018  1.00  0.00     0.212 HD
ENDBRANCH  12  16
ENDBRANCH  10  12
ENDBRANCH   1  10
BRANCH   9  18
HETATM   18  N5  UNL     1       4.750 -10.398  37.398  1.00  0.00    -0.233 N 
ATOM     19  H52 UNL     1       4.176 -10.683  38.192  1.00  0.00     0.174 HD
ATOM     20  H51 UNL     1       4.774 -10.920  36.522  1.00  0.00     0.174 HD
ENDBRANCH   9  18
TORSDOF 5
ENDMDL
