MODEL 1
REMARK VINA RESULT: -6.905474688      0.000      0.000
REMARK  5 active torsions:
REMARK  status: ('A' for Active; 'I' for Inactive)
REMARK       I    between atoms: C2_2  and  N1_4 
REMARK    1  A    between atoms: N1_4  and  C3_6 
REMARK    2  A    between atoms: C3_6  and  N2_7 
REMARK    3  A    between atoms: C3_6  and  C4_11 
REMARK    4  A    between atoms: N2_7  and  N3_8 
REMARK       I    between atoms: C4_11  and  N4_13 
REMARK    5  A    between atoms: N4_13  and  N5_15 
ROOT
HETATM    1  C4  UNL     1       3.790  -9.476  39.166  1.00  0.00     0.277 C 
HETATM    2  O2  UNL     1       2.935  -9.770  38.323  1.00  0.00    -0.268 OA
HETATM    3  N4  UNL     1       5.146  -9.328  38.906  1.00  0.00    -0.255 N 
ATOM      4  H4  UNL     1       5.714  -9.084  39.717  1.00  0.00     0.191 HD
ENDROOT
BRANCH   1   5
HETATM    5  C3  UNL     1       3.275  -9.274  40.575  1.00  0.00     0.293 C 
BRANCH   5   6
HETATM    6  N1  UNL     1       4.327  -8.780  41.435  1.00  0.00    -0.334 N 
HETATM    7  C2  UNL     1       4.646  -9.425  42.645  1.00  0.00     0.215 C 
HETATM    8  C1  UNL     1       5.723  -8.918  43.524  1.00  0.00     0.117 C 
HETATM    9  O1  UNL     1       4.008 -10.449  42.992  1.00  0.00    -0.274 OA
ATOM     10  H1  UNL     1       4.849  -7.948  41.160  1.00  0.00     0.164 HD
ENDBRANCH   5   6
BRANCH   5  11
HETATM   11  N2  UNL     1       2.188  -8.288  40.479  1.00  0.00    -0.113 NA
BRANCH  11  12
HETATM   12  N3  UNL     1       2.781  -7.060  40.114  1.00  0.00    -0.346 N 
ATOM     13  H32 UNL     1       3.767  -6.818  40.218  1.00  0.00     0.172 HD
ATOM     14  H31 UNL     1       2.039  -6.474  39.732  1.00  0.00     0.172 HD
ENDBRANCH  11  12
ENDBRANCH   5  11
ENDBRANCH   1   5
BRANCH   3  15
HETATM   15  N5  UNL     1       5.849  -9.457  37.723  1.00  0.00    -0.196 N 
HETATM   16  C5  UNL     1       6.126  -8.426  36.864  1.00  0.00     0.228 A 
HETATM   17  N6  UNL     1       6.820  -8.894  35.820  1.00  0.00    -0.290 N 
HETATM   18  N7  UNL     1       7.005 -10.172  35.959  1.00  0.00    -0.249 N 
ATOM     19  H6  UNL     1       7.152  -8.333  35.035  1.00  0.00     0.188 HD
HETATM   20  C6  UNL     1       6.402 -10.526  37.142  1.00  0.00     0.361 A 
ATOM     21  H7  UNL     1       7.499 -10.792  35.318  1.00  0.00     0.192 HD
HETATM   22  O3  UNL     1       6.442 -11.715  37.502  1.00  0.00    -0.243 OA
ENDBRANCH   3  15
TORSDOF 5
ENDMDL
MODEL 2
REMARK VINA RESULT: -6.713512062      1.800      2.241
REMARK  5 active torsions:
REMARK  status: ('A' for Active; 'I' for Inactive)
REMARK       I    between atoms: C2_2  and  N1_4 
REMARK    1  A    between atoms: N1_4  and  C3_6 
REMARK    2  A    between atoms: C3_6  and  N2_7 
REMARK    3  A    between atoms: C3_6  and  C4_11 
REMARK    4  A    between atoms: N2_7  and  N3_8 
REMARK       I    between atoms: C4_11  and  N4_13 
REMARK    5  A    between atoms: N4_13  and  N5_15 
ROOT
HETATM    1  C4  UNL     1       4.881  -9.514  40.103  1.00  0.00     0.277 C 
HETATM    2  O2  UNL     1       3.921 -10.121  39.615  1.00  0.00    -0.268 OA
HETATM    3  N4  UNL     1       6.021  -9.135  39.406  1.00  0.00    -0.255 N 
ATOM      4  H4  UNL     1       6.719  -8.642  39.962  1.00  0.00     0.191 HD
ENDROOT
BRANCH   1   5
HETATM    5  C3  UNL     1       4.762  -9.181  41.575  1.00  0.00     0.293 C 
BRANCH   5   6
HETATM    6  N1  UNL     1       3.793  -8.128  41.782  1.00  0.00    -0.334 N 
HETATM    7  C2  UNL     1       4.033  -7.081  42.691  1.00  0.00     0.215 C 
HETATM    8  C1  UNL     1       3.041  -6.004  42.902  1.00  0.00     0.117 C 
HETATM    9  O1  UNL     1       5.108  -7.055  43.341  1.00  0.00    -0.274 OA
ATOM     10  H1  UNL     1       2.917  -8.144  41.258  1.00  0.00     0.164 HD
ENDBRANCH   5   6
BRANCH   5  11
HETATM   11  N2  UNL     1       4.324 -10.417  42.242  1.00  0.00    -0.113 NA
BRANCH  11  12
HETATM   12  N3  UNL     1       3.939 -10.059  43.553  1.00  0.00    -0.346 N 
ATOM     13  H32 UNL     1       4.554  -9.684  44.275  1.00  0.00     0.172 HD
ATOM     14  H31 UNL     1       2.940 -10.249  43.630  1.00  0.00     0.172 HD
ENDBRANCH  11  12
ENDBRANCH   5  11
ENDBRANCH   1   5
BRANCH   3  15
HETATM   15  N5  UNL     1       6.360  -9.320  38.079  1.00  0.00    -0.196 N 
HETATM   16  C5  UNL     1       6.321  -8.340  37.121  1.00  0.00     0.228 A 
HETATM   17  N6  UNL     1       6.711  -8.853  35.948  1.00  0.00    -0.290 N 
HETATM   18  N7  UNL     1       6.998 -10.111  36.098  1.00  0.00    -0.249 N 
ATOM     19  H6  UNL     1       6.772  -8.336  35.071  1.00  0.00     0.188 HD
HETATM   20  C6  UNL     1       6.780 -10.404  37.422  1.00  0.00     0.361 A 
ATOM     21  H7  UNL     1       7.321 -10.755  35.375  1.00  0.00     0.192 HD
HETATM   22  O3  UNL     1       6.988 -11.564  37.820  1.00  0.00    -0.243 OA
ENDBRANCH   3  15
TORSDOF 5
ENDMDL
MODEL 3
REMARK VINA RESULT: -6.558412683      2.122      2.684
REMARK  5 active torsions:
REMARK  status: ('A' for Active; 'I' for Inactive)
REMARK       I    between atoms: C2_2  and  N1_4 
REMARK    1  A    between atoms: N1_4  and  C3_6 
REMARK    2  A    between atoms: C3_6  and  N2_7 
REMARK    3  A    between atoms: C3_6  and  C4_11 
REMARK    4  A    between atoms: N2_7  and  N3_8 
REMARK       I    between atoms: C4_11  and  N4_13 
REMARK    5  A    between atoms: N4_13  and  N5_15 
ROOT
HETATM    1  C4  UNL     1       4.877  -9.410  40.089  1.00  0.00     0.277 C 
HETATM    2  O2  UNL     1       3.942 -10.057  39.604  1.00  0.00    -0.268 OA
HETATM    3  N4  UNL     1       5.991  -8.972  39.385  1.00  0.00    -0.255 N 
ATOM      4  H4  UNL     1       6.671  -8.450  39.939  1.00  0.00     0.191 HD
ENDROOT
BRANCH   1   5
HETATM    5  C3  UNL     1       4.755  -9.095  41.564  1.00  0.00     0.293 C 
BRANCH   5   6
HETATM    6  N1  UNL     1       3.780  -8.050  41.783  1.00  0.00    -0.334 N 
HETATM    7  C2  UNL     1       4.011  -7.015  42.707  1.00  0.00     0.215 C 
HETATM    8  C1  UNL     1       3.012  -5.947  42.930  1.00  0.00     0.117 C 
HETATM    9  O1  UNL     1       5.083  -6.992  43.361  1.00  0.00    -0.274 OA
ATOM     10  H1  UNL     1       2.906  -8.064  41.256  1.00  0.00     0.164 HD
ENDBRANCH   5   6
BRANCH   5  11
HETATM   11  N2  UNL     1       4.325 -10.340  42.217  1.00  0.00    -0.113 NA
BRANCH  11  12
HETATM   12  N3  UNL     1       3.959 -10.004  43.539  1.00  0.00    -0.346 N 
ATOM     13  H32 UNL     1       3.220 -10.447  44.085  1.00  0.00     0.172 HD
ATOM     14  H31 UNL     1       4.572  -9.244  43.832  1.00  0.00     0.172 HD
ENDBRANCH  11  12
ENDBRANCH   5  11
ENDBRANCH   1   5
BRANCH   3  15
HETATM   15  N5  UNL     1       6.328  -9.130  38.055  1.00  0.00    -0.196 N 
HETATM   16  C5  UNL     1       6.683 -10.321  37.477  1.00  0.00     0.228 A 
HETATM   17  N6  UNL     1       6.945 -10.122  36.180  1.00  0.00    -0.290 N 
HETATM   18  N7  UNL     1       6.778  -8.867  35.890  1.00  0.00    -0.249 N 
ATOM     19  H6  UNL     1       7.233 -10.846  35.520  1.00  0.00     0.188 HD
HETATM   20  C6  UNL     1       6.395  -8.247  37.054  1.00  0.00     0.361 A 
ATOM     21  H7  UNL     1       6.907  -8.428  34.978  1.00  0.00     0.192 HD
HETATM   22  O3  UNL     1       6.171  -7.024  37.035  1.00  0.00    -0.243 OA
ENDBRANCH   3  15
TORSDOF 5
ENDMDL
MODEL 4
REMARK VINA RESULT: -6.525881044      1.817      2.238
REMARK  5 active torsions:
REMARK  status: ('A' for Active; 'I' for Inactive)
REMARK       I    between atoms: C2_2  and  N1_4 
REMARK    1  A    between atoms: N1_4  and  C3_6 
REMARK    2  A    between atoms: C3_6  and  N2_7 
REMARK    3  A    between atoms: C3_6  and  C4_11 
REMARK    4  A    between atoms: N2_7  and  N3_8 
REMARK       I    between atoms: C4_11  and  N4_13 
REMARK    5  A    between atoms: N4_13  and  N5_15 
ROOT
HETATM    1  C4  UNL     1       5.348  -9.815  40.486  1.00  0.00     0.277 C 
HETATM    2  O2  UNL     1       4.320 -10.370  40.081  1.00  0.00    -0.268 OA
HETATM    3  N4  UNL     1       6.395  -9.392  39.677  1.00  0.00    -0.255 N 
ATOM      4  H4  UNL     1       7.170  -8.954  40.174  1.00  0.00     0.191 HD
ENDROOT
BRANCH   1   5
HETATM    5  C3  UNL     1       5.429  -9.604  41.982  1.00  0.00     0.293 C 
BRANCH   5   6
HETATM    6  N1  UNL     1       5.460  -8.192  42.295  1.00  0.00    -0.334 N 
HETATM    7  C2  UNL     1       6.566  -7.611  42.943  1.00  0.00     0.215 C 
HETATM    8  C1  UNL     1       6.596  -6.166  43.262  1.00  0.00     0.117 C 
HETATM    9  O1  UNL     1       7.549  -8.325  43.260  1.00  0.00    -0.274 OA
ATOM     10  H1  UNL     1       4.665  -7.606  42.041  1.00  0.00     0.164 HD
ENDBRANCH   5   6
BRANCH   5  11
HETATM   11  N2  UNL     1       4.226 -10.227  42.552  1.00  0.00    -0.113 NA
BRANCH  11  12
HETATM   12  N3  UNL     1       3.286  -9.193  42.755  1.00  0.00    -0.346 N 
ATOM     13  H32 UNL     1       2.880  -8.604  42.027  1.00  0.00     0.172 HD
ATOM     14  H31 UNL     1       3.099  -9.155  43.756  1.00  0.00     0.172 HD
ENDBRANCH  11  12
ENDBRANCH   5  11
ENDBRANCH   1   5
BRANCH   3  15
HETATM   15  N5  UNL     1       6.555  -9.471  38.307  1.00  0.00    -0.196 N 
HETATM   16  C5  UNL     1       6.338  -8.435  37.436  1.00  0.00     0.228 A 
HETATM   17  N6  UNL     1       6.583  -8.848  36.187  1.00  0.00    -0.290 N 
HETATM   18  N7  UNL     1       6.947 -10.095  36.205  1.00  0.00    -0.249 N 
ATOM     19  H6  UNL     1       6.498  -8.272  35.349  1.00  0.00     0.188 HD
HETATM   20  C6  UNL     1       6.929 -10.486  37.522  1.00  0.00     0.361 A 
ATOM     21  H7  UNL     1       7.195 -10.671  35.401  1.00  0.00     0.192 HD
HETATM   22  O3  UNL     1       7.244 -11.655  37.804  1.00  0.00    -0.243 OA
ENDBRANCH   3  15
TORSDOF 5
ENDMDL
MODEL 5
REMARK VINA RESULT: -6.420783500      2.457      2.809
REMARK  5 active torsions:
REMARK  status: ('A' for Active; 'I' for Inactive)
REMARK       I    between atoms: C2_2  and  N1_4 
REMARK    1  A    between atoms: N1_4  and  C3_6 
REMARK    2  A    between atoms: C3_6  and  N2_7 
REMARK    3  A    between atoms: C3_6  and  C4_11 
REMARK    4  A    between atoms: N2_7  and  N3_8 
REMARK       I    between atoms: C4_11  and  N4_13 
REMARK    5  A    between atoms: N4_13  and  N5_15 
ROOT
HETATM    1  C4  UNL     1       6.649  -9.630  40.717  1.00  0.00     0.277 C 
HETATM    2  O2  UNL     1       7.843  -9.948  40.749  1.00  0.00    -0.268 OA
HETATM    3  N4  UNL     1       5.911  -9.428  39.557  1.00  0.00    -0.255 N 
ATOM      4  H4  UNL     1       4.936  -9.169  39.709  1.00  0.00     0.191 HD
ENDROOT
BRANCH   1   5
HETATM    5  C3  UNL     1       5.982  -9.459  42.064  1.00  0.00     0.293 C 
BRANCH   5   6
HETATM    6  N1  UNL     1       5.860  -8.057  42.396  1.00  0.00    -0.334 N 
HETATM    7  C2  UNL     1       6.816  -7.410  43.202  1.00  0.00     0.215 C 
HETATM    8  C1  UNL     1       6.690  -5.975  43.541  1.00  0.00     0.117 C 
HETATM    9  O1  UNL     1       7.797  -8.057  43.646  1.00  0.00    -0.274 OA
ATOM     10  H1  UNL     1       5.065  -7.525  42.040  1.00  0.00     0.164 HD
ENDBRANCH   5   6
BRANCH   5  11
HETATM   11  N2  UNL     1       4.651 -10.074  41.947  1.00  0.00    -0.113 NA
BRANCH  11  12
HETATM   12  N3  UNL     1       4.013  -9.910  43.196  1.00  0.00    -0.346 N 
ATOM     13  H32 UNL     1       3.123 -10.325  43.471  1.00  0.00     0.172 HD
ATOM     14  H31 UNL     1       4.611  -9.304  43.757  1.00  0.00     0.172 HD
ENDBRANCH  11  12
ENDBRANCH   5  11
ENDBRANCH   1   5
BRANCH   3  15
HETATM   15  N5  UNL     1       6.286  -9.522  38.231  1.00  0.00    -0.196 N 
HETATM   16  C5  UNL     1       6.251  -8.484  37.336  1.00  0.00     0.228 A 
HETATM   17  N6  UNL     1       6.678  -8.914  36.143  1.00  0.00    -0.290 N 
HETATM   18  N7  UNL     1       6.986 -10.174  36.220  1.00  0.00    -0.249 N 
ATOM     19  H6  UNL     1       6.751  -8.341  35.302  1.00  0.00     0.188 HD
HETATM   20  C6  UNL     1       6.743 -10.555  37.517  1.00  0.00     0.361 A 
ATOM     21  H7  UNL     1       7.338 -10.764  35.467  1.00  0.00     0.192 HD
HETATM   22  O3  UNL     1       6.963 -11.734  37.846  1.00  0.00    -0.243 OA
ENDBRANCH   3  15
TORSDOF 5
ENDMDL
