MODEL 1
REMARK VINA RESULT: -6.548950868      0.000      0.000
REMARK  6 active torsions:
REMARK  status: ('A' for Active; 'I' for Inactive)
REMARK    1  A    between atoms: C2_5  and  C3_6 
REMARK    2  A    between atoms: C3_6  and  O1_7 
REMARK    3  A    between atoms: C3_6  and  C4_9 
REMARK    4  A    between atoms: C4_9  and  C5_15 
REMARK    5  A    between atoms: N3_10  and  N4_12 
REMARK    6  A    between atoms: C6_18  and  N6_19 
ROOT
HETATM    1  C3  UNL     1       5.806  -9.385  36.894  1.00  0.00     0.229 C 
ENDROOT
BRANCH   1   2
HETATM    2  C2  UNL     1       5.737  -9.667  38.349  1.00  0.00     0.107 A 
HETATM    3  N2  UNL     1       6.678  -9.271  39.217  1.00  0.00    -0.282 N 
HETATM    4  N1  UNL     1       6.303  -9.685  40.411  1.00  0.00    -0.237 N 
ATOM      5  H2  UNL     1       7.524  -8.747  38.995  1.00  0.00     0.188 HD
HETATM    6  C1  UNL     1       7.073  -9.448  41.639  1.00  0.00     0.200 C 
HETATM    7  N7  UNL     1       5.164 -10.328  40.343  1.00  0.00    -0.268 N 
HETATM    8  C6  UNL     1       4.777 -10.335  39.059  1.00  0.00     0.142 A 
ATOM      9  H7  UNL     1       4.662 -10.747  41.126  1.00  0.00     0.190 HD
BRANCH   8  10
HETATM   10  N6  UNL     1       3.694 -10.873  38.554  1.00  0.00    -0.383 N 
ATOM     11  H62 UNL     1       3.565 -11.244  37.613  1.00  0.00     0.157 HD
ATOM     12  H61 UNL     1       2.809 -10.996  39.046  1.00  0.00     0.157 HD
ENDBRANCH   8  10
ENDBRANCH   1   2
BRANCH   1  13
HETATM   13  O1  UNL     1       7.031  -9.924  36.450  1.00  0.00    -0.383 OA
ATOM     14  H1  UNL     1       7.494  -9.210  36.027  1.00  0.00     0.211 HD
ENDBRANCH   1  13
BRANCH   1  15
HETATM   15  C4  UNL     1       5.785  -7.924  36.667  1.00  0.00     0.125 C 
HETATM   16  N3  UNL     1       4.684  -7.276  36.728  1.00  0.00    -0.304 N 
ATOM     17  H3  UNL     1       3.837  -7.804  36.938  1.00  0.00     0.186 HD
BRANCH  16  18
HETATM   18  N4  UNL     1       4.559  -5.917  36.532  1.00  0.00    -0.345 N 
ATOM     19  H42 UNL     1       5.042  -5.315  37.197  1.00  0.00     0.176 HD
ATOM     20  H41 UNL     1       4.023  -5.485  35.779  1.00  0.00     0.176 HD
ENDBRANCH  16  18
BRANCH  15  21
HETATM   21  C5  UNL     1       7.017  -7.232  36.377  1.00  0.00     0.281 C 
HETATM   22  N5  UNL     1       7.302  -6.857  35.044  1.00  0.00    -0.056 NA
HETATM   23  O2  UNL     1       7.822  -6.968  37.293  1.00  0.00    -0.270 OA
ENDBRANCH  15  21
ENDBRANCH   1  15
TORSDOF 6
ENDMDL
MODEL 2
REMARK VINA RESULT: -6.516288394      1.342      1.814
REMARK  6 active torsions:
REMARK  status: ('A' for Active; 'I' for Inactive)
REMARK    1  A    between atoms: C2_5  and  C3_6 
REMARK    2  A    between atoms: C3_6  and  O1_7 
REMARK    3  A    between atoms: C3_6  and  C4_9 
REMARK    4  A    between atoms: C4_9  and  C5_15 
REMARK    5  A    between atoms: N3_10  and  N4_12 
REMARK    6  A    between atoms: C6_18  and  N6_19 
ROOT
HETATM    1  C3  UNL     1       6.309  -9.686  36.878  1.00  0.00     0.229 C 
ENDROOT
BRANCH   1   2
HETATM    2  C2  UNL     1       6.953  -9.937  38.191  1.00  0.00     0.107 A 
HETATM    3  N2  UNL     1       6.627  -9.272  39.306  1.00  0.00    -0.282 N 
HETATM    4  N1  UNL     1       7.386  -9.743  40.275  1.00  0.00    -0.237 N 
ATOM      5  H2  UNL     1       5.922  -8.539  39.390  1.00  0.00     0.188 HD
HETATM    6  C1  UNL     1       7.331  -9.267  41.664  1.00  0.00     0.200 C 
HETATM    7  N7  UNL     1       8.183 -10.680  39.827  1.00  0.00    -0.268 N 
HETATM    8  C6  UNL     1       7.938 -10.831  38.518  1.00  0.00     0.142 A 
ATOM      9  H7  UNL     1       8.867 -11.202  40.375  1.00  0.00     0.190 HD
BRANCH   8  10
HETATM   10  N6  UNL     1       8.516 -11.663  37.686  1.00  0.00    -0.383 N 
ATOM     11  H62 UNL     1       8.100 -12.475  37.230  1.00  0.00     0.157 HD
ATOM     12  H61 UNL     1       9.486 -11.611  37.376  1.00  0.00     0.157 HD
ENDBRANCH   8  10
ENDBRANCH   1   2
BRANCH   1  13
HETATM   13  O1  UNL     1       7.259 -10.049  35.901  1.00  0.00    -0.383 OA
ATOM     14  H1  UNL     1       7.548 -10.925  36.128  1.00  0.00     0.211 HD
ENDBRANCH   1  13
BRANCH   1  15
HETATM   15  C4  UNL     1       5.979  -8.250  36.751  1.00  0.00     0.125 C 
HETATM   16  N3  UNL     1       4.766  -7.856  36.838  1.00  0.00    -0.304 N 
ATOM     17  H3  UNL     1       4.049  -8.565  36.996  1.00  0.00     0.186 HD
BRANCH  16  18
HETATM   18  N4  UNL     1       4.354  -6.545  36.733  1.00  0.00    -0.345 N 
ATOM     19  H42 UNL     1       3.350  -6.377  36.791  1.00  0.00     0.176 HD
ATOM     20  H41 UNL     1       4.977  -5.747  36.602  1.00  0.00     0.176 HD
ENDBRANCH  16  18
BRANCH  15  21
HETATM   21  C5  UNL     1       7.036  -7.294  36.530  1.00  0.00     0.281 C 
HETATM   22  N5  UNL     1       7.340  -6.893  35.209  1.00  0.00    -0.056 NA
HETATM   23  O2  UNL     1       7.676  -6.827  37.494  1.00  0.00    -0.270 OA
ENDBRANCH  15  21
ENDBRANCH   1  15
TORSDOF 6
ENDMDL
MODEL 3
REMARK VINA RESULT: -6.361029560      2.491      3.509
REMARK  6 active torsions:
REMARK  status: ('A' for Active; 'I' for Inactive)
REMARK    1  A    between atoms: C2_5  and  C3_6 
REMARK    2  A    between atoms: C3_6  and  O1_7 
REMARK    3  A    between atoms: C3_6  and  C4_9 
REMARK    4  A    between atoms: C4_9  and  C5_15 
REMARK    5  A    between atoms: N3_10  and  N4_12 
REMARK    6  A    between atoms: C6_18  and  N6_19 
ROOT
HETATM    1  C3  UNL     1       5.336  -8.350  37.672  1.00  0.00     0.229 C 
ENDROOT
BRANCH   1   2
HETATM    2  C2  UNL     1       4.306  -8.339  38.739  1.00  0.00     0.107 A 
HETATM    3  N2  UNL     1       4.250  -7.401  39.694  1.00  0.00    -0.282 N 
HETATM    4  N1  UNL     1       3.223  -7.695  40.466  1.00  0.00    -0.237 N 
ATOM      5  H2  UNL     1       4.883  -6.609  39.802  1.00  0.00     0.188 HD
HETATM    6  C1  UNL     1       2.824  -6.901  41.636  1.00  0.00     0.200 C 
HETATM    7  N7  UNL     1       2.620  -8.779  40.046  1.00  0.00    -0.268 N 
HETATM    8  C6  UNL     1       3.275  -9.212  38.959  1.00  0.00     0.142 A 
ATOM      9  H7  UNL     1       1.801  -9.215  40.469  1.00  0.00     0.190 HD
BRANCH   8  10
HETATM   10  N6  UNL     1       3.002 -10.266  38.229  1.00  0.00    -0.383 N 
ATOM     11  H62 UNL     1       2.987 -11.242  38.526  1.00  0.00     0.157 HD
ATOM     12  H61 UNL     1       2.764 -10.253  37.237  1.00  0.00     0.157 HD
ENDBRANCH   8  10
ENDBRANCH   1   2
BRANCH   1  13
HETATM   13  O1  UNL     1       4.671  -8.738  36.491  1.00  0.00    -0.383 OA
ATOM     14  H1  UNL     1       5.249  -8.503  35.774  1.00  0.00     0.211 HD
ENDBRANCH   1  13
BRANCH   1  15
HETATM   15  C4  UNL     1       6.389  -9.333  38.004  1.00  0.00     0.125 C 
HETATM   16  N3  UNL     1       7.076  -9.207  39.076  1.00  0.00    -0.304 N 
ATOM     17  H3  UNL     1       6.868  -8.411  39.679  1.00  0.00     0.186 HD
BRANCH  16  18
HETATM   18  N4  UNL     1       8.078 -10.066  39.475  1.00  0.00    -0.345 N 
ATOM     19  H42 UNL     1       8.792  -9.678  40.090  1.00  0.00     0.176 HD
ATOM     20  H41 UNL     1       8.149 -11.046  39.200  1.00  0.00     0.176 HD
ENDBRANCH  16  18
BRANCH  15  21
HETATM   21  C5  UNL     1       6.637 -10.439  37.112  1.00  0.00     0.281 C 
HETATM   22  N5  UNL     1       5.909 -11.639  37.281  1.00  0.00    -0.056 NA
HETATM   23  O2  UNL     1       7.485 -10.337  36.202  1.00  0.00    -0.270 OA
ENDBRANCH  15  21
ENDBRANCH   1  15
TORSDOF 6
ENDMDL
MODEL 4
REMARK VINA RESULT: -6.291236756      2.158      2.901
REMARK  6 active torsions:
REMARK  status: ('A' for Active; 'I' for Inactive)
REMARK    1  A    between atoms: C2_5  and  C3_6 
REMARK    2  A    between atoms: C3_6  and  O1_7 
REMARK    3  A    between atoms: C3_6  and  C4_9 
REMARK    4  A    between atoms: C4_9  and  C5_15 
REMARK    5  A    between atoms: N3_10  and  N4_12 
REMARK    6  A    between atoms: C6_18  and  N6_19 
ROOT
HETATM    1  C3  UNL     1       6.796  -7.642  38.959  1.00  0.00     0.229 C 
ENDROOT
BRANCH   1   2
HETATM    2  C2  UNL     1       5.717  -8.013  39.907  1.00  0.00     0.107 A 
HETATM    3  N2  UNL     1       5.940  -8.692  41.040  1.00  0.00    -0.282 N 
HETATM    4  N1  UNL     1       4.774  -8.849  41.634  1.00  0.00    -0.237 N 
ATOM      5  H2  UNL     1       6.843  -9.025  41.379  1.00  0.00     0.188 HD
HETATM    6  C1  UNL     1       4.594  -9.549  42.913  1.00  0.00     0.200 C 
HETATM    7  N7  UNL     1       3.816  -8.298  40.931  1.00  0.00    -0.268 N 
HETATM    8  C6  UNL     1       4.374  -7.761  39.836  1.00  0.00     0.142 A 
ATOM      9  H7  UNL     1       2.826  -8.282  41.172  1.00  0.00     0.190 HD
BRANCH   8  10
HETATM   10  N6  UNL     1       3.772  -7.116  38.867  1.00  0.00    -0.383 N 
ATOM     11  H62 UNL     1       4.203  -6.635  38.078  1.00  0.00     0.157 HD
ATOM     12  H61 UNL     1       2.763  -7.003  38.769  1.00  0.00     0.157 HD
ENDBRANCH   8  10
ENDBRANCH   1   2
BRANCH   1  13
HETATM   13  O1  UNL     1       6.623  -6.268  38.690  1.00  0.00    -0.383 OA
ATOM     14  H1  UNL     1       7.384  -6.000  38.189  1.00  0.00     0.211 HD
ENDBRANCH   1  13
BRANCH   1  15
HETATM   15  C4  UNL     1       6.654  -8.421  37.711  1.00  0.00     0.125 C 
HETATM   16  N3  UNL     1       6.847  -9.686  37.714  1.00  0.00    -0.304 N 
ATOM     17  H3  UNL     1       7.099 -10.123  38.600  1.00  0.00     0.186 HD
BRANCH  16  18
HETATM   18  N4  UNL     1       6.741 -10.501  36.607  1.00  0.00    -0.345 N 
ATOM     19  H42 UNL     1       5.862 -10.457  36.092  1.00  0.00     0.176 HD
ATOM     20  H41 UNL     1       7.470 -11.133  36.277  1.00  0.00     0.176 HD
ENDBRANCH  16  18
BRANCH  15  21
HETATM   21  C5  UNL     1       6.293  -7.747  36.488  1.00  0.00     0.281 C 
HETATM   22  N5  UNL     1       7.313  -7.214  35.667  1.00  0.00    -0.056 NA
HETATM   23  O2  UNL     1       5.094  -7.635  36.159  1.00  0.00    -0.270 OA
ENDBRANCH  15  21
ENDBRANCH   1  15
TORSDOF 6
ENDMDL
MODEL 5
REMARK VINA RESULT: -6.224467646      1.095      1.095
REMARK  6 active torsions:
REMARK  status: ('A' for Active; 'I' for Inactive)
REMARK    1  A    between atoms: C2_5  and  C3_6 
REMARK    2  A    between atoms: C3_6  and  O1_7 
REMARK    3  A    between atoms: C3_6  and  C4_9 
REMARK    4  A    between atoms: C4_9  and  C5_15 
REMARK    5  A    between atoms: N3_10  and  N4_12 
REMARK    6  A    between atoms: C6_18  and  N6_19 
ROOT
HETATM    1  C3  UNL     1       5.253  -9.135  37.042  1.00  0.00     0.229 C 
ENDROOT
BRANCH   1   2
HETATM    2  C2  UNL     1       5.060  -9.390  38.491  1.00  0.00     0.107 A 
HETATM    3  N2  UNL     1       6.008  -9.157  39.408  1.00  0.00    -0.282 N 
HETATM    4  N1  UNL     1       5.504  -9.490  40.579  1.00  0.00    -0.237 N 
ATOM      5  H2  UNL     1       6.944  -8.790  39.232  1.00  0.00     0.188 HD
HETATM    6  C1  UNL     1       6.238  -9.381  41.847  1.00  0.00     0.200 C 
HETATM    7  N7  UNL     1       4.276  -9.925  40.450  1.00  0.00    -0.268 N 
HETATM    8  C6  UNL     1       3.962  -9.875  39.148  1.00  0.00     0.142 A 
ATOM      9  H7  UNL     1       3.668 -10.244  41.204  1.00  0.00     0.190 HD
BRANCH   8  10
HETATM   10  N6  UNL     1       2.830 -10.220  38.584  1.00  0.00    -0.383 N 
ATOM     11  H62 UNL     1       2.064  -9.609  38.301  1.00  0.00     0.157 HD
ATOM     12  H61 UNL     1       2.553 -11.173  38.348  1.00  0.00     0.157 HD
ENDBRANCH   8  10
ENDBRANCH   1   2
BRANCH   1  13
HETATM   13  O1  UNL     1       6.388  -9.883  36.663  1.00  0.00    -0.383 OA
ATOM     14  H1  UNL     1       6.133 -10.375  35.891  1.00  0.00     0.211 HD
ENDBRANCH   1  13
BRANCH   1  15
HETATM   15  C4  UNL     1       5.500  -7.695  36.816  1.00  0.00     0.125 C 
HETATM   16  N3  UNL     1       4.530  -6.862  36.843  1.00  0.00    -0.304 N 
ATOM     17  H3  UNL     1       3.596  -7.230  37.024  1.00  0.00     0.186 HD
BRANCH  16  18
HETATM   18  N4  UNL     1       4.653  -5.503  36.644  1.00  0.00    -0.345 N 
ATOM     19  H42 UNL     1       5.144  -4.980  37.369  1.00  0.00     0.176 HD
ATOM     20  H41 UNL     1       4.293  -4.998  35.835  1.00  0.00     0.176 HD
ENDBRANCH  16  18
BRANCH  15  21
HETATM   21  C5  UNL     1       6.843  -7.234  36.566  1.00  0.00     0.281 C 
HETATM   22  N5  UNL     1       7.718  -7.030  37.658  1.00  0.00    -0.056 NA
HETATM   23  O2  UNL     1       7.229  -7.017  35.399  1.00  0.00    -0.270 OA
ENDBRANCH  15  21
ENDBRANCH   1  15
TORSDOF 6
ENDMDL
