MODEL 1
REMARK VINA RESULT: -6.020500899      0.000      0.000
REMARK  7 active torsions:
REMARK  status: ('A' for Active; 'I' for Inactive)
REMARK    1  A    between atoms: C2_5  and  N3_6 
REMARK    2  A    between atoms: C4_12  and  C5_13 
REMARK    3  A    between atoms: C5_13  and  C6_14 
REMARK    4  A    between atoms: C6_14  and  N5_15 
REMARK    5  A    between atoms: C6_14  and  C7_19 
REMARK    6  A    between atoms: C7_19  and  N6_20 
REMARK    7  A    between atoms: N7_24  and  N8_25 
ROOT
HETATM    1  C1  UNL     1       7.780  -8.808  43.650  1.00  0.00     0.179 C 
HETATM    2  N1  UNL     1       6.477  -9.050  43.047  1.00  0.00    -0.276 N 
HETATM    3  N2  UNL     1       5.271  -8.925  43.623  1.00  0.00    -0.280 N 
ATOM      4  H2  UNL     1       5.108  -8.634  44.587  1.00  0.00     0.189 HD
HETATM    5  C2  UNL     1       4.317  -9.236  42.745  1.00  0.00     0.145 A 
HETATM    6  C3  UNL     1       4.958  -9.569  41.573  1.00  0.00     0.127 A 
HETATM    7  N4  UNL     1       4.817  -9.968  40.298  1.00  0.00    -0.338 N 
ATOM      8  H4  UNL     1       3.929 -10.151  39.829  1.00  0.00     0.167 HD
HETATM    9  C4  UNL     1       6.035 -10.088  39.738  1.00  0.00     0.107 A 
HETATM   10  N7  UNL     1       6.991  -9.772  40.630  1.00  0.00    -0.230 N 
HETATM   11  C8  UNL     1       6.338  -9.452  41.762  1.00  0.00     0.175 A 
ENDROOT
BRANCH   9  12
HETATM   12  C5  UNL     1       6.312 -10.505  38.346  1.00  0.00     0.113 C 
BRANCH  12  13
HETATM   13  C6  UNL     1       6.702  -9.349  37.449  1.00  0.00     0.215 C 
BRANCH  13  14
HETATM   14  N5  UNL     1       6.969  -9.930  36.133  1.00  0.00    -0.073 N 
ATOM     15  H53 UNL     1       7.523 -10.787  36.171  1.00  0.00     0.274 HD
ATOM     16  H52 UNL     1       6.143 -10.336  35.692  1.00  0.00     0.274 HD
ATOM     17  H51 UNL     1       7.403  -9.191  35.581  1.00  0.00     0.274 HD
ENDBRANCH  13  14
BRANCH  13  18
HETATM   18  C7  UNL     1       5.541  -8.403  37.265  1.00  0.00     0.262 C 
BRANCH  18  19
HETATM   19  N6  UNL     1       4.419  -9.067  36.665  1.00  0.00    -0.077 N 
ATOM     20  H63 UNL     1       3.801  -8.407  36.194  1.00  0.00     0.274 HD
ATOM     21  H62 UNL     1       4.700  -9.623  35.858  1.00  0.00     0.274 HD
ATOM     22  H61 UNL     1       3.913  -9.630  37.349  1.00  0.00     0.274 HD
ENDBRANCH  18  19
ENDBRANCH  13  18
ENDBRANCH  12  13
ENDBRANCH   9  12
BRANCH  10  23
HETATM   23  N8  UNL     1       8.384  -9.770  40.445  1.00  0.00    -0.335 N 
ATOM     24  H82 UNL     1       8.909  -9.163  39.814  1.00  0.00     0.177 HD
ATOM     25  H81 UNL     1       9.081 -10.359  40.900  1.00  0.00     0.177 HD
ENDBRANCH  10  23
BRANCH   5  26
HETATM   26  N3  UNL     1       3.058  -9.212  42.998  1.00  0.00    -0.382 N 
ATOM     27  H32 UNL     1       2.583  -8.971  43.868  1.00  0.00     0.157 HD
ATOM     28  H31 UNL     1       2.328  -9.445  42.324  1.00  0.00     0.157 HD
ENDBRANCH   5  26
TORSDOF 7
ENDMDL
MODEL 2
REMARK VINA RESULT: -5.963031025      0.848      2.454
REMARK  7 active torsions:
REMARK  status: ('A' for Active; 'I' for Inactive)
REMARK    1  A    between atoms: C2_5  and  N3_6 
REMARK    2  A    between atoms: C4_12  and  C5_13 
REMARK    3  A    between atoms: C5_13  and  C6_14 
REMARK    4  A    between atoms: C6_14  and  N5_15 
REMARK    5  A    between atoms: C6_14  and  C7_19 
REMARK    6  A    between atoms: C7_19  and  N6_20 
REMARK    7  A    between atoms: N7_24  and  N8_25 
ROOT
HETATM    1  C1  UNL     1       3.024  -8.568  42.885  1.00  0.00     0.179 C 
HETATM    2  N1  UNL     1       4.441  -8.818  42.666  1.00  0.00    -0.276 N 
HETATM    3  N2  UNL     1       5.444  -8.687  43.548  1.00  0.00    -0.280 N 
ATOM      4  H2  UNL     1       5.338  -8.385  44.517  1.00  0.00     0.189 HD
HETATM    5  C2  UNL     1       6.600  -9.010  42.970  1.00  0.00     0.145 A 
HETATM    6  C3  UNL     1       6.304  -9.358  41.671  1.00  0.00     0.127 A 
HETATM    7  N4  UNL     1       6.788  -9.774  40.488  1.00  0.00    -0.338 N 
ATOM      8  H4  UNL     1       7.769  -9.963  40.283  1.00  0.00     0.167 HD
HETATM    9  C4  UNL     1       5.769  -9.900  39.618  1.00  0.00     0.107 A 
HETATM   10  N7  UNL     1       4.606  -9.572  40.210  1.00  0.00    -0.230 N 
HETATM   11  C8  UNL     1       4.926  -9.237  41.473  1.00  0.00     0.175 A 
ENDROOT
BRANCH   9  12
HETATM   12  C5  UNL     1       5.883 -10.334  38.208  1.00  0.00     0.113 C 
BRANCH  12  13
HETATM   13  C6  UNL     1       6.666  -9.362  37.351  1.00  0.00     0.215 C 
BRANCH  13  14
HETATM   14  N5  UNL     1       6.997 -10.083  36.121  1.00  0.00    -0.073 N 
ATOM     15  H53 UNL     1       7.699 -10.811  36.253  1.00  0.00     0.274 HD
ATOM     16  H52 UNL     1       6.247 -10.691  35.792  1.00  0.00     0.274 HD
ATOM     17  H51 UNL     1       7.272  -9.372  35.443  1.00  0.00     0.274 HD
ENDBRANCH  13  14
BRANCH  13  18
HETATM   18  C7  UNL     1       5.799  -8.199  36.939  1.00  0.00     0.262 C 
BRANCH  18  19
HETATM   19  N6  UNL     1       4.534  -8.647  36.431  1.00  0.00    -0.077 N 
ATOM     20  H63 UNL     1       3.933  -7.863  36.176  1.00  0.00     0.274 HD
ATOM     21  H62 UNL     1       4.630  -9.076  35.511  1.00  0.00     0.274 HD
ATOM     22  H61 UNL     1       4.071  -9.274  37.090  1.00  0.00     0.274 HD
ENDBRANCH  18  19
ENDBRANCH  13  18
ENDBRANCH  12  13
ENDBRANCH   9  12
BRANCH  10  23
HETATM   23  N8  UNL     1       3.318  -9.569  39.649  1.00  0.00    -0.335 N 
ATOM     24  H82 UNL     1       3.056  -9.189  38.739  1.00  0.00     0.177 HD
ATOM     25  H81 UNL     1       2.456  -9.939  40.049  1.00  0.00     0.177 HD
ENDBRANCH  10  23
BRANCH   5  26
HETATM   26  N3  UNL     1       7.742  -8.984  43.558  1.00  0.00    -0.382 N 
ATOM     27  H32 UNL     1       8.663  -8.793  43.161  1.00  0.00     0.157 HD
ATOM     28  H31 UNL     1       7.886  -9.161  44.552  1.00  0.00     0.157 HD
ENDBRANCH   5  26
TORSDOF 7
ENDMDL
MODEL 3
REMARK VINA RESULT: -5.911072803      1.140      1.834
REMARK  7 active torsions:
REMARK  status: ('A' for Active; 'I' for Inactive)
REMARK    1  A    between atoms: C2_5  and  N3_6 
REMARK    2  A    between atoms: C4_12  and  C5_13 
REMARK    3  A    between atoms: C5_13  and  C6_14 
REMARK    4  A    between atoms: C6_14  and  N5_15 
REMARK    5  A    between atoms: C6_14  and  C7_19 
REMARK    6  A    between atoms: C7_19  and  N6_20 
REMARK    7  A    between atoms: N7_24  and  N8_25 
ROOT
HETATM    1  C1  UNL     1       6.933  -8.847  44.283  1.00  0.00     0.179 C 
HETATM    2  N1  UNL     1       5.806  -8.969  43.370  1.00  0.00    -0.276 N 
HETATM    3  N2  UNL     1       4.501  -9.036  43.680  1.00  0.00    -0.280 N 
ATOM      4  H2  UNL     1       4.121  -9.009  44.626  1.00  0.00     0.189 HD
HETATM    5  C2  UNL     1       3.777  -9.143  42.567  1.00  0.00     0.145 A 
HETATM    6  C3  UNL     1       4.669  -9.141  41.518  1.00  0.00     0.127 A 
HETATM    7  N4  UNL     1       4.825  -9.203  40.185  1.00  0.00    -0.338 N 
ATOM      8  H4  UNL     1       4.070  -9.288  39.503  1.00  0.00     0.167 HD
HETATM    9  C4  UNL     1       6.137  -9.134  39.893  1.00  0.00     0.107 A 
HETATM   10  N7  UNL     1       6.861  -9.026  41.022  1.00  0.00    -0.230 N 
HETATM   11  C8  UNL     1       5.966  -9.031  42.027  1.00  0.00     0.175 A 
ENDROOT
BRANCH   9  12
HETATM   12  C5  UNL     1       6.727  -9.169  38.536  1.00  0.00     0.113 C 
BRANCH  12  13
HETATM   13  C6  UNL     1       6.738 -10.558  37.933  1.00  0.00     0.215 C 
BRANCH  13  14
HETATM   14  N5  UNL     1       6.974 -10.374  36.500  1.00  0.00    -0.073 N 
ATOM     15  H53 UNL     1       7.351 -11.203  36.041  1.00  0.00     0.274 HD
ATOM     16  H52 UNL     1       6.116 -10.307  35.952  1.00  0.00     0.274 HD
ATOM     17  H51 UNL     1       7.575  -9.554  36.416  1.00  0.00     0.274 HD
ENDBRANCH  13  14
BRANCH  13  18
HETATM   18  C7  UNL     1       7.907 -11.355  38.455  1.00  0.00     0.262 C 
BRANCH  18  19
HETATM   19  N6  UNL     1       8.802 -11.722  37.394  1.00  0.00    -0.077 N 
ATOM     20  H63 UNL     1       9.369 -12.532  37.645  1.00  0.00     0.274 HD
ATOM     21  H62 UNL     1       8.300 -12.121  36.602  1.00  0.00     0.274 HD
ATOM     22  H61 UNL     1       9.383 -10.933  37.111  1.00  0.00     0.274 HD
ENDBRANCH  18  19
ENDBRANCH  13  18
ENDBRANCH  12  13
ENDBRANCH   9  12
BRANCH  10  23
HETATM   23  N8  UNL     1       8.257  -8.930  41.152  1.00  0.00    -0.335 N 
ATOM     24  H82 UNL     1       8.815  -8.081  41.066  1.00  0.00     0.177 HD
ATOM     25  H81 UNL     1       8.924  -9.676  41.351  1.00  0.00     0.177 HD
ENDBRANCH  10  23
BRANCH   5  26
HETATM   26  N3  UNL     1       2.495  -9.227  42.535  1.00  0.00    -0.382 N 
ATOM     27  H32 UNL     1       1.911 -10.047  42.372  1.00  0.00     0.157 HD
ATOM     28  H31 UNL     1       1.859  -8.442  42.678  1.00  0.00     0.157 HD
ENDBRANCH   5  26
TORSDOF 7
ENDMDL
MODEL 4
REMARK VINA RESULT: -5.873922513      1.274      2.956
REMARK  7 active torsions:
REMARK  status: ('A' for Active; 'I' for Inactive)
REMARK    1  A    between atoms: C2_5  and  N3_6 
REMARK    2  A    between atoms: C4_12  and  C5_13 
REMARK    3  A    between atoms: C5_13  and  C6_14 
REMARK    4  A    between atoms: C6_14  and  N5_15 
REMARK    5  A    between atoms: C6_14  and  C7_19 
REMARK    6  A    between atoms: C7_19  and  N6_20 
REMARK    7  A    between atoms: N7_24  and  N8_25 
ROOT
HETATM    1  C1  UNL     1       3.429  -9.482  43.193  1.00  0.00     0.179 C 
HETATM    2  N1  UNL     1       4.854  -9.239  43.030  1.00  0.00    -0.276 N 
HETATM    3  N2  UNL     1       5.767  -9.032  43.993  1.00  0.00    -0.280 N 
ATOM      4  H2  UNL     1       5.570  -9.018  44.994  1.00  0.00     0.189 HD
HETATM    5  C2  UNL     1       6.968  -8.847  43.446  1.00  0.00     0.145 A 
HETATM    6  C3  UNL     1       6.795  -8.944  42.083  1.00  0.00     0.127 A 
HETATM    7  N4  UNL     1       7.387  -8.899  40.877  1.00  0.00    -0.338 N 
ATOM      8  H4  UNL     1       8.379  -8.733  40.710  1.00  0.00     0.167 HD
HETATM    9  C4  UNL     1       6.458  -9.109  39.926  1.00  0.00     0.107 A 
HETATM   10  N7  UNL     1       5.249  -9.295  40.487  1.00  0.00    -0.230 N 
HETATM   11  C8  UNL     1       5.447  -9.194  41.813  1.00  0.00     0.175 A 
ENDROOT
BRANCH   9  12
HETATM   12  C5  UNL     1       6.703  -9.137  38.467  1.00  0.00     0.113 C 
BRANCH  12  13
HETATM   13  C6  UNL     1       6.727 -10.541  37.899  1.00  0.00     0.215 C 
BRANCH  13  14
HETATM   14  N5  UNL     1       6.971 -10.392  36.463  1.00  0.00    -0.073 N 
ATOM     15  H53 UNL     1       7.843  -9.908  36.247  1.00  0.00     0.274 HD
ATOM     16  H52 UNL     1       7.198 -11.270  35.996  1.00  0.00     0.274 HD
ATOM     17  H51 UNL     1       6.145  -9.930  36.083  1.00  0.00     0.274 HD
ENDBRANCH  13  14
BRANCH  13  18
HETATM   18  C7  UNL     1       7.897 -11.317  38.448  1.00  0.00     0.262 C 
BRANCH  18  19
HETATM   19  N6  UNL     1       8.793 -11.719  37.401  1.00  0.00    -0.077 N 
ATOM     20  H63 UNL     1       9.108 -12.681  37.526  1.00  0.00     0.274 HD
ATOM     21  H62 UNL     1       8.305 -11.828  36.513  1.00  0.00     0.274 HD
ATOM     22  H61 UNL     1       9.580 -11.075  37.320  1.00  0.00     0.274 HD
ENDBRANCH  18  19
ENDBRANCH  13  18
ENDBRANCH  12  13
ENDBRANCH   9  12
BRANCH  10  23
HETATM   23  N8  UNL     1       4.023  -9.540  39.845  1.00  0.00    -0.335 N 
ATOM     24  H82 UNL     1       3.893 -10.020  38.954  1.00  0.00     0.177 HD
ATOM     25  H81 UNL     1       3.086  -9.287  40.158  1.00  0.00     0.177 HD
ENDBRANCH  10  23
BRANCH   5  26
HETATM   26  N3  UNL     1       8.046  -8.625  44.109  1.00  0.00    -0.382 N 
ATOM     27  H32 UNL     1       8.739  -9.293  44.446  1.00  0.00     0.157 HD
ATOM     28  H31 UNL     1       8.366  -7.702  44.401  1.00  0.00     0.157 HD
ENDBRANCH   5  26
TORSDOF 7
ENDMDL
MODEL 5
REMARK VINA RESULT: -5.861970481      2.038      5.329
REMARK  7 active torsions:
REMARK  status: ('A' for Active; 'I' for Inactive)
REMARK    1  A    between atoms: C2_5  and  N3_6 
REMARK    2  A    between atoms: C4_12  and  C5_13 
REMARK    3  A    between atoms: C5_13  and  C6_14 
REMARK    4  A    between atoms: C6_14  and  N5_15 
REMARK    5  A    between atoms: C6_14  and  C7_19 
REMARK    6  A    between atoms: C7_19  and  N6_20 
REMARK    7  A    between atoms: N7_24  and  N8_25 
ROOT
HETATM    1  C1  UNL     1       6.600  -7.854  36.266  1.00  0.00     0.179 C 
HETATM    2  N1  UNL     1       5.624  -8.431  37.178  1.00  0.00    -0.276 N 
HETATM    3  N2  UNL     1       4.539  -9.157  36.867  1.00  0.00    -0.280 N 
ATOM      4  H2  UNL     1       4.250  -9.404  35.920  1.00  0.00     0.189 HD
HETATM    5  C2  UNL     1       3.894  -9.506  37.979  1.00  0.00     0.145 A 
HETATM    6  C3  UNL     1       4.610  -8.976  39.029  1.00  0.00     0.127 A 
HETATM    7  N4  UNL     1       4.698  -8.835  40.362  1.00  0.00    -0.338 N 
ATOM      8  H4  UNL     1       4.042  -9.220  41.043  1.00  0.00     0.167 HD
HETATM    9  C4  UNL     1       5.791  -8.107  40.655  1.00  0.00     0.107 A 
HETATM   10  N7  UNL     1       6.436  -7.758  39.527  1.00  0.00    -0.230 N 
HETATM   11  C8  UNL     1       5.716  -8.288  38.521  1.00  0.00     0.175 A 
ENDROOT
BRANCH   9  12
HETATM   12  C5  UNL     1       6.243  -7.728  42.013  1.00  0.00     0.113 C 
BRANCH  12  13
HETATM   13  C6  UNL     1       6.828  -8.891  42.786  1.00  0.00     0.215 C 
BRANCH  13  14
HETATM   14  N5  UNL     1       8.281  -8.773  42.654  1.00  0.00    -0.073 N 
ATOM     15  H53 UNL     1       8.688  -9.455  42.013  1.00  0.00     0.274 HD
ATOM     16  H52 UNL     1       8.577  -7.936  42.151  1.00  0.00     0.274 HD
ATOM     17  H51 UNL     1       8.655  -8.833  43.601  1.00  0.00     0.274 HD
ENDBRANCH  13  14
BRANCH  13  18
HETATM   18  C7  UNL     1       6.525  -8.759  44.257  1.00  0.00     0.262 C 
BRANCH  18  19
HETATM   19  N6  UNL     1       7.694  -9.000  45.053  1.00  0.00    -0.077 N 
ATOM     20  H63 UNL     1       7.463  -9.478  45.924  1.00  0.00     0.274 HD
ATOM     21  H62 UNL     1       8.290  -9.714  44.636  1.00  0.00     0.274 HD
ATOM     22  H61 UNL     1       8.209  -8.137  45.226  1.00  0.00     0.274 HD
ENDBRANCH  18  19
ENDBRANCH  13  18
ENDBRANCH  12  13
ENDBRANCH   9  12
BRANCH  10  23
HETATM   23  N8  UNL     1       7.612  -7.000  39.398  1.00  0.00    -0.335 N 
ATOM     24  H82 UNL     1       8.226  -6.705  40.157  1.00  0.00     0.177 HD
ATOM     25  H81 UNL     1       8.034  -6.632  38.546  1.00  0.00     0.177 HD
ENDBRANCH  10  23
BRANCH   5  26
HETATM   26  N3  UNL     1       2.816 -10.205  38.009  1.00  0.00    -0.382 N 
ATOM     27  H32 UNL     1       2.637 -11.124  37.603  1.00  0.00     0.157 HD
ATOM     28  H31 UNL     1       1.952  -9.917  38.468  1.00  0.00     0.157 HD
ENDBRANCH   5  26
TORSDOF 7
ENDMDL
