MODEL 1
REMARK VINA RESULT: -4.624621082      0.000      0.000
REMARK  1 active torsions:
REMARK  status: ('A' for Active; 'I' for Inactive)
REMARK    1  A    between atoms: N1_1  and  N2_4 
REMARK       I    between atoms: N2_4  and  C1_6 
REMARK       I    between atoms: C1_6  and  N3_7 
REMARK       I    between atoms: C1_6  and  N4_11 
ROOT
HETATM    1  N2  UNL     1      34.957  57.088  27.668  1.00  0.00    -0.296 N 
ATOM      2  H2  UNL     1      34.852  57.882  28.300  1.00  0.00     0.183 HD
HETATM    3  C1  UNL     1      34.544  57.176  26.319  1.00  0.00     0.412 C 
HETATM    4  N3  UNL     1      33.525  56.168  26.077  1.00  0.00    -0.039 N 
ATOM      5  H31 UNL     1      33.227  56.231  25.104  1.00  0.00     0.279 HD
ATOM      6  H32 UNL     1      32.744  56.237  26.730  1.00  0.00     0.279 HD
ATOM      7  H33 UNL     1      33.835  55.230  26.329  1.00  0.00     0.279 HD
HETATM    8  N4  UNL     1      35.613  57.007  25.352  1.00  0.00    -0.240 N 
HETATM    9  C2  UNL     1      36.251  58.098  24.889  1.00  0.00     0.131 A 
HETATM   10  N5  UNL     1      35.902  59.419  25.329  1.00  0.00    -0.082 NA
HETATM   11  C3  UNL     1      37.263  57.935  23.973  1.00  0.00     0.120 A 
HETATM   12  C4  UNL     1      37.623  56.686  23.531  1.00  0.00     0.252 A 
HETATM   13  O1  UNL     1      38.536  56.542  22.704  1.00  0.00    -0.268 OA
HETATM   14  N6  UNL     1      36.954  55.601  24.021  1.00  0.00    -0.275 N 
ATOM     15  H6  UNL     1      37.200  54.661  23.711  1.00  0.00     0.173 HD
HETATM   16  C5  UNL     1      35.967  55.784  24.917  1.00  0.00     0.333 A 
HETATM   17  O2  UNL     1      35.389  54.733  25.328  1.00  0.00    -0.246 OA
ENDROOT
BRANCH   1  18
HETATM   18  N1  UNL     1      35.494  55.926  28.098  1.00  0.00    -0.346 N 
ATOM     19  H12 UNL     1      36.320  55.546  27.636  1.00  0.00     0.176 HD
ATOM     20  H11 UNL     1      35.053  55.452  28.886  1.00  0.00     0.176 HD
ENDBRANCH   1  18
TORSDOF 1
ENDMDL
MODEL 2
REMARK VINA RESULT: -4.333220339      1.283      1.293
REMARK  1 active torsions:
REMARK  status: ('A' for Active; 'I' for Inactive)
REMARK    1  A    between atoms: N1_1  and  N2_4 
REMARK       I    between atoms: N2_4  and  C1_6 
REMARK       I    between atoms: C1_6  and  N3_7 
REMARK       I    between atoms: C1_6  and  N4_11 
ROOT
HETATM    1  N2  UNL     1      34.877  57.415  26.473  1.00  0.00    -0.296 N 
ATOM      2  H2  UNL     1      34.475  58.228  26.941  1.00  0.00     0.183 HD
HETATM    3  C1  UNL     1      34.501  57.078  25.153  1.00  0.00     0.412 C 
HETATM    4  N3  UNL     1      33.918  55.745  25.159  1.00  0.00    -0.039 N 
ATOM      5  H31 UNL     1      33.647  55.503  24.207  1.00  0.00     0.279 HD
ATOM      6  H32 UNL     1      33.145  55.660  25.820  1.00  0.00     0.279 HD
ATOM      7  H33 UNL     1      34.537  55.051  25.578  1.00  0.00     0.279 HD
HETATM    8  N4  UNL     1      35.587  57.112  24.192  1.00  0.00    -0.240 N 
HETATM    9  C2  UNL     1      35.806  58.243  23.495  1.00  0.00     0.131 A 
HETATM   10  N5  UNL     1      34.994  59.412  23.681  1.00  0.00    -0.082 NA
HETATM   11  C3  UNL     1      36.836  58.273  22.586  1.00  0.00     0.120 A 
HETATM   12  C4  UNL     1      37.634  57.173  22.383  1.00  0.00     0.252 A 
HETATM   13  O1  UNL     1      38.562  57.203  21.561  1.00  0.00    -0.268 OA
HETATM   14  N6  UNL     1      37.383  56.042  23.107  1.00  0.00    -0.275 N 
ATOM     15  H6  UNL     1      37.959  55.210  22.978  1.00  0.00     0.173 HD
HETATM   16  C5  UNL     1      36.369  56.036  23.991  1.00  0.00     0.333 A 
HETATM   17  O2  UNL     1      36.195  54.952  24.627  1.00  0.00    -0.246 OA
ENDROOT
BRANCH   1  18
HETATM   18  N1  UNL     1      35.782  56.632  27.100  1.00  0.00    -0.346 N 
ATOM     19  H12 UNL     1      35.607  55.632  27.198  1.00  0.00     0.176 HD
ATOM     20  H11 UNL     1      36.628  57.069  27.465  1.00  0.00     0.176 HD
ENDBRANCH   1  18
TORSDOF 1
ENDMDL
MODEL 3
REMARK VINA RESULT: -4.332842273      1.634      1.839
REMARK  1 active torsions:
REMARK  status: ('A' for Active; 'I' for Inactive)
REMARK    1  A    between atoms: N1_1  and  N2_4 
REMARK       I    between atoms: N2_4  and  C1_6 
REMARK       I    between atoms: C1_6  and  N3_7 
REMARK       I    between atoms: C1_6  and  N4_11 
ROOT
HETATM    1  N2  UNL     1      33.577  57.910  25.319  1.00  0.00    -0.296 N 
ATOM      2  H2  UNL     1      33.070  58.796  25.300  1.00  0.00     0.183 HD
HETATM    3  C1  UNL     1      33.768  57.159  24.136  1.00  0.00     0.412 C 
HETATM    4  N3  UNL     1      33.150  55.853  24.309  1.00  0.00    -0.039 N 
ATOM      5  H31 UNL     1      33.288  55.312  23.457  1.00  0.00     0.279 HD
ATOM      6  H32 UNL     1      32.168  55.918  24.577  1.00  0.00     0.279 HD
ATOM      7  H33 UNL     1      33.490  55.367  25.139  1.00  0.00     0.279 HD
HETATM    8  N4  UNL     1      35.156  56.977  23.758  1.00  0.00    -0.240 N 
HETATM    9  C2  UNL     1      35.719  57.853  22.906  1.00  0.00     0.131 A 
HETATM   10  N5  UNL     1      34.982  58.960  22.365  1.00  0.00    -0.082 NA
HETATM   11  C3  UNL     1      37.036  57.679  22.549  1.00  0.00     0.120 A 
HETATM   12  C4  UNL     1      37.771  56.631  23.047  1.00  0.00     0.252 A 
HETATM   13  O1  UNL     1      38.958  56.476  22.723  1.00  0.00    -0.268 OA
HETATM   14  N6  UNL     1      37.167  55.761  23.909  1.00  0.00    -0.275 N 
ATOM     15  H6  UNL     1      37.689  54.974  24.296  1.00  0.00     0.173 HD
HETATM   16  C5  UNL     1      35.879  55.951  24.245  1.00  0.00     0.333 A 
HETATM   17  O2  UNL     1      35.384  55.105  25.049  1.00  0.00    -0.246 OA
ENDROOT
BRANCH   1  18
HETATM   18  N1  UNL     1      34.083  57.426  26.473  1.00  0.00    -0.346 N 
ATOM     19  H12 UNL     1      34.928  56.855  26.458  1.00  0.00     0.176 HD
ATOM     20  H11 UNL     1      33.599  57.646  27.343  1.00  0.00     0.176 HD
ENDBRANCH   1  18
TORSDOF 1
ENDMDL
MODEL 4
REMARK VINA RESULT: -4.205838957      1.985      3.929
REMARK  1 active torsions:
REMARK  status: ('A' for Active; 'I' for Inactive)
REMARK    1  A    between atoms: N1_1  and  N2_4 
REMARK       I    between atoms: N2_4  and  C1_6 
REMARK       I    between atoms: C1_6  and  N3_7 
REMARK       I    between atoms: C1_6  and  N4_11 
ROOT
HETATM    1  N2  UNL     1      34.518  58.647  24.753  1.00  0.00    -0.296 N 
ATOM      2  H2  UNL     1      34.295  59.627  24.927  1.00  0.00     0.183 HD
HETATM    3  C1  UNL     1      35.665  58.052  25.327  1.00  0.00     0.412 C 
HETATM    4  N3  UNL     1      36.526  57.574  24.256  1.00  0.00    -0.039 N 
ATOM      5  H31 UNL     1      37.354  57.145  24.670  1.00  0.00     0.279 HD
ATOM      6  H32 UNL     1      36.760  58.307  23.586  1.00  0.00     0.279 HD
ATOM      7  H33 UNL     1      36.041  56.947  23.615  1.00  0.00     0.279 HD
HETATM    8  N4  UNL     1      35.383  56.953  26.231  1.00  0.00    -0.240 N 
HETATM    9  C2  UNL     1      35.256  57.207  27.546  1.00  0.00     0.131 A 
HETATM   10  N5  UNL     1      35.391  58.536  28.074  1.00  0.00    -0.082 NA
HETATM   11  C3  UNL     1      34.989  56.164  28.401  1.00  0.00     0.120 A 
HETATM   12  C4  UNL     1      34.853  54.881  27.930  1.00  0.00     0.252 A 
HETATM   13  O1  UNL     1      34.612  53.941  28.703  1.00  0.00    -0.268 OA
HETATM   14  N6  UNL     1      34.989  54.659  26.589  1.00  0.00    -0.275 N 
ATOM     15  H6  UNL     1      34.893  53.716  26.211  1.00  0.00     0.173 HD
HETATM   16  C5  UNL     1      35.250  55.695  25.772  1.00  0.00     0.333 A 
HETATM   17  O2  UNL     1      35.364  55.415  24.540  1.00  0.00    -0.246 OA
ENDROOT
BRANCH   1  18
HETATM   18  N1  UNL     1      33.725  57.884  23.970  1.00  0.00    -0.346 N 
ATOM     19  H12 UNL     1      33.247  58.301  23.172  1.00  0.00     0.176 HD
ATOM     20  H11 UNL     1      33.624  56.896  24.201  1.00  0.00     0.176 HD
ENDBRANCH   1  18
TORSDOF 1
ENDMDL
MODEL 5
REMARK VINA RESULT: -4.179296614      3.665      5.729
REMARK  1 active torsions:
REMARK  status: ('A' for Active; 'I' for Inactive)
REMARK    1  A    between atoms: N1_1  and  N2_4 
REMARK       I    between atoms: N2_4  and  C1_6 
REMARK       I    between atoms: C1_6  and  N3_7 
REMARK       I    between atoms: C1_6  and  N4_11 
ROOT
HETATM    1  N2  UNL     1      40.111  56.420  20.260  1.00  0.00    -0.296 N 
ATOM      2  H2  UNL     1      40.559  56.586  19.358  1.00  0.00     0.183 HD
HETATM    3  C1  UNL     1      39.890  57.481  21.166  1.00  0.00     0.412 C 
HETATM    4  N3  UNL     1      40.597  57.192  22.404  1.00  0.00    -0.039 N 
ATOM      5  H31 UNL     1      40.437  57.957  23.058  1.00  0.00     0.279 HD
ATOM      6  H32 UNL     1      41.589  57.007  22.253  1.00  0.00     0.279 HD
ATOM      7  H33 UNL     1      40.344  56.285  22.796  1.00  0.00     0.279 HD
HETATM    8  N4  UNL     1      38.493  57.731  21.470  1.00  0.00    -0.240 N 
HETATM    9  C2  UNL     1      37.821  58.642  20.743  1.00  0.00     0.131 A 
HETATM   10  N5  UNL     1      38.451  59.370  19.677  1.00  0.00    -0.082 NA
HETATM   11  C3  UNL     1      36.498  58.877  21.032  1.00  0.00     0.120 A 
HETATM   12  C4  UNL     1      35.864  58.198  22.044  1.00  0.00     0.252 A 
HETATM   13  O1  UNL     1      34.669  58.412  22.303  1.00  0.00    -0.268 OA
HETATM   14  N6  UNL     1      36.576  57.281  22.762  1.00  0.00    -0.275 N 
ATOM     15  H6  UNL     1      36.131  56.761  23.519  1.00  0.00     0.173 HD
HETATM   16  C5  UNL     1      37.870  57.067  22.461  1.00  0.00     0.333 A 
HETATM   17  O2  UNL     1      38.469  56.202  23.169  1.00  0.00    -0.246 OA
ENDROOT
BRANCH   1  18
HETATM   18  N1  UNL     1      39.714  55.180  20.617  1.00  0.00    -0.346 N 
ATOM     19  H12 UNL     1      39.239  55.035  21.508  1.00  0.00     0.176 HD
ATOM     20  H11 UNL     1      39.902  54.409  19.977  1.00  0.00     0.176 HD
ENDBRANCH   1  18
TORSDOF 1
ENDMDL
