MODEL 1
REMARK VINA RESULT: -4.028472175      0.000      0.000
REMARK  4 active torsions:
REMARK  status: ('A' for Active; 'I' for Inactive)
REMARK    1  A    between atoms: N1_1  and  C1_4 
REMARK    2  A    between atoms: C2_9  and  C3_10 
REMARK    3  A    between atoms: C4_13  and  N5_14 
REMARK    4  A    between atoms: N5_14  and  N6_16 
ROOT
HETATM    1  C1  UNL     1      40.625  56.012  20.979  1.00  0.00     0.692 A 
HETATM    2  N2  UNL     1      40.945  56.778  22.015  1.00  0.00    -0.132 N 
ATOM      3  H2  UNL     1      40.351  56.775  22.845  1.00  0.00     0.205 HD
HETATM    4  N3  UNL     1      42.023  57.546  21.988  1.00  0.00    -0.278 N 
ATOM      5  H3  UNL     1      42.250  58.127  22.794  1.00  0.00     0.188 HD
HETATM    6  C2  UNL     1      42.820  57.566  20.904  1.00  0.00     0.160 A 
HETATM    7  C4  UNL     1      42.523  56.785  19.807  1.00  0.00     0.168 A 
HETATM    8  N7  UNL     1      41.422  56.025  19.884  1.00  0.00    -0.172 N 
ATOM      9  H7  UNL     1      41.176  55.436  19.089  1.00  0.00     0.186 HD
ENDROOT
BRANCH   7  10
HETATM   10  N5  UNL     1      43.293  56.825  18.802  1.00  0.00    -0.290 N 
ATOM     11  H5  UNL     1      43.170  57.612  18.164  1.00  0.00     0.188 HD
BRANCH  10  12
HETATM   12  N6  UNL     1      44.278  55.916  18.479  1.00  0.00    -0.344 N 
ATOM     13  H62 UNL     1      45.112  56.310  18.045  1.00  0.00     0.176 HD
ATOM     14  H61 UNL     1      44.252  54.907  18.629  1.00  0.00     0.176 HD
ENDBRANCH  10  12
ENDBRANCH   7  10
BRANCH   6  15
HETATM   15  C3  UNL     1      44.002  58.420  20.900  1.00  0.00     0.286 C 
HETATM   16  N4  UNL     1      45.303  57.853  20.850  1.00  0.00    -0.056 NA
HETATM   17  O1  UNL     1      43.917  59.674  20.940  1.00  0.00    -0.269 OA
ENDBRANCH   6  15
BRANCH   1  18
HETATM   18  N1  UNL     1      39.566  55.269  21.028  1.00  0.00    -0.233 N 
ATOM     19  H12 UNL     1      38.638  55.661  20.870  1.00  0.00     0.174 HD
ATOM     20  H11 UNL     1      39.653  54.273  21.228  1.00  0.00     0.174 HD
ENDBRANCH   1  18
TORSDOF 4
ENDMDL
MODEL 2
REMARK VINA RESULT: -4.026534231      3.875      5.874
REMARK  4 active torsions:
REMARK  status: ('A' for Active; 'I' for Inactive)
REMARK    1  A    between atoms: N1_1  and  C1_4 
REMARK    2  A    between atoms: C2_9  and  C3_10 
REMARK    3  A    between atoms: C4_13  and  N5_14 
REMARK    4  A    between atoms: N5_14  and  N6_16 
ROOT
HETATM    1  C1  UNL     1      40.145  56.565  21.534  1.00  0.00     0.692 A 
HETATM    2  N2  UNL     1      40.406  57.839  21.801  1.00  0.00    -0.132 N 
ATOM      3  H2  UNL     1      41.268  58.259  21.453  1.00  0.00     0.205 HD
HETATM    4  N3  UNL     1      39.563  58.573  22.511  1.00  0.00    -0.278 N 
ATOM      5  H3  UNL     1      39.783  59.550  22.705  1.00  0.00     0.188 HD
HETATM    6  C2  UNL     1      38.420  58.040  22.979  1.00  0.00     0.160 A 
HETATM    7  C4  UNL     1      38.112  56.720  22.724  1.00  0.00     0.168 A 
HETATM    8  N7  UNL     1      38.996  56.020  22.001  1.00  0.00    -0.172 N 
ATOM      9  H7  UNL     1      38.797  55.041  21.794  1.00  0.00     0.186 HD
ENDROOT
BRANCH   7  10
HETATM   10  N5  UNL     1      37.028  56.246  23.178  1.00  0.00    -0.290 N 
ATOM     11  H5  UNL     1      36.171  56.527  22.700  1.00  0.00     0.188 HD
BRANCH  10  12
HETATM   12  N6  UNL     1      36.886  55.391  24.249  1.00  0.00    -0.344 N 
ATOM     13  H62 UNL     1      36.542  55.818  25.108  1.00  0.00     0.176 HD
ATOM     14  H61 UNL     1      37.088  54.391  24.264  1.00  0.00     0.176 HD
ENDBRANCH  10  12
ENDBRANCH   7  10
BRANCH   6  15
HETATM   15  C3  UNL     1      37.509  58.870  23.758  1.00  0.00     0.286 C 
HETATM   16  N4  UNL     1      37.094  60.139  23.273  1.00  0.00    -0.056 NA
HETATM   17  O1  UNL     1      37.063  58.501  24.874  1.00  0.00    -0.269 OA
ENDBRANCH   6  15
BRANCH   1  18
HETATM   18  N1  UNL     1      40.984  55.867  20.838  1.00  0.00    -0.233 N 
ATOM     19  H12 UNL     1      41.350  54.981  21.184  1.00  0.00     0.174 HD
ATOM     20  H11 UNL     1      41.289  56.202  19.924  1.00  0.00     0.174 HD
ENDBRANCH   1  18
TORSDOF 4
ENDMDL
MODEL 3
REMARK VINA RESULT: -3.980891127      1.610      2.852
REMARK  4 active torsions:
REMARK  status: ('A' for Active; 'I' for Inactive)
REMARK    1  A    between atoms: N1_1  and  C1_4 
REMARK    2  A    between atoms: C2_9  and  C3_10 
REMARK    3  A    between atoms: C4_13  and  N5_14 
REMARK    4  A    between atoms: N5_14  and  N6_16 
ROOT
HETATM    1  C1  UNL     1      39.502  56.370  21.808  1.00  0.00     0.692 A 
HETATM    2  N2  UNL     1      39.922  55.517  20.880  1.00  0.00    -0.132 N 
ATOM      3  H2  UNL     1      39.378  54.676  20.688  1.00  0.00     0.205 HD
HETATM    4  N3  UNL     1      41.037  55.742  20.202  1.00  0.00    -0.278 N 
ATOM      5  H3  UNL     1      41.341  55.075  19.494  1.00  0.00     0.188 HD
HETATM    6  C2  UNL     1      41.770  56.845  20.439  1.00  0.00     0.160 A 
HETATM    7  C4  UNL     1      41.368  57.756  21.394  1.00  0.00     0.168 A 
HETATM    8  N7  UNL     1      40.234  57.483  22.053  1.00  0.00    -0.172 N 
ATOM      9  H7  UNL     1      39.910  58.137  22.765  1.00  0.00     0.186 HD
ENDROOT
BRANCH   7  10
HETATM   10  N5  UNL     1      42.079  58.785  21.595  1.00  0.00    -0.290 N 
ATOM     11  H5  UNL     1      42.036  59.516  20.886  1.00  0.00     0.188 HD
BRANCH  10  12
HETATM   12  N6  UNL     1      42.906  59.019  22.673  1.00  0.00    -0.344 N 
ATOM     13  H62 UNL     1      42.441  59.075  23.578  1.00  0.00     0.176 HD
ATOM     14  H61 UNL     1      43.919  59.140  22.651  1.00  0.00     0.176 HD
ENDBRANCH  10  12
ENDBRANCH   7  10
BRANCH   6  15
HETATM   15  C3  UNL     1      42.993  57.070  19.678  1.00  0.00     0.286 C 
HETATM   16  N4  UNL     1      42.997  56.946  18.263  1.00  0.00    -0.056 NA
HETATM   17  O1  UNL     1      44.077  57.377  20.236  1.00  0.00    -0.269 OA
ENDBRANCH   6  15
BRANCH   1  18
HETATM   18  N1  UNL     1      38.410  56.128  22.458  1.00  0.00    -0.233 N 
ATOM     19  H12 UNL     1      37.810  55.341  22.210  1.00  0.00     0.174 HD
ATOM     20  H11 UNL     1      38.136  56.731  23.234  1.00  0.00     0.174 HD
ENDBRANCH   1  18
TORSDOF 4
ENDMDL
MODEL 4
REMARK VINA RESULT: -3.910799956      3.020      5.015
REMARK  4 active torsions:
REMARK  status: ('A' for Active; 'I' for Inactive)
REMARK    1  A    between atoms: N1_1  and  C1_4 
REMARK    2  A    between atoms: C2_9  and  C3_10 
REMARK    3  A    between atoms: C4_13  and  N5_14 
REMARK    4  A    between atoms: N5_14  and  N6_16 
ROOT
HETATM    1  C1  UNL     1      41.407  56.418  20.529  1.00  0.00     0.692 A 
HETATM    2  N2  UNL     1      40.354  55.612  20.466  1.00  0.00    -0.132 N 
ATOM      3  H2  UNL     1      40.350  54.841  19.797  1.00  0.00     0.205 HD
HETATM    4  N3  UNL     1      39.308  55.793  21.257  1.00  0.00    -0.278 N 
ATOM      5  H3  UNL     1      38.509  55.163  21.192  1.00  0.00     0.188 HD
HETATM    6  C2  UNL     1      39.292  56.802  22.147  1.00  0.00     0.160 A 
HETATM    7  C4  UNL     1      40.366  57.662  22.244  1.00  0.00     0.168 A 
HETATM    8  N7  UNL     1      41.399  57.436  21.422  1.00  0.00    -0.172 N 
ATOM      9  H7  UNL     1      42.210  58.054  21.470  1.00  0.00     0.186 HD
ENDROOT
BRANCH   7  10
HETATM   10  N5  UNL     1      40.322  58.603  23.091  1.00  0.00    -0.290 N 
ATOM     11  H5  UNL     1      39.401  58.996  23.290  1.00  0.00     0.188 HD
BRANCH  10  12
HETATM   12  N6  UNL     1      41.387  59.152  23.772  1.00  0.00    -0.344 N 
ATOM     13  H62 UNL     1      41.619  58.704  24.657  1.00  0.00     0.176 HD
ATOM     14  H61 UNL     1      41.954  59.949  23.480  1.00  0.00     0.176 HD
ENDBRANCH  10  12
ENDBRANCH   7  10
BRANCH   6  15
HETATM   15  C3  UNL     1      38.128  56.980  23.007  1.00  0.00     0.286 C 
HETATM   16  N4  UNL     1      37.380  58.187  22.970  1.00  0.00    -0.056 NA
HETATM   17  O1  UNL     1      37.747  56.086  23.805  1.00  0.00    -0.269 OA
ENDBRANCH   6  15
BRANCH   1  18
HETATM   18  N1  UNL     1      42.418  56.221  19.745  1.00  0.00    -0.233 N 
ATOM     19  H12 UNL     1      43.232  55.692  20.055  1.00  0.00     0.174 HD
ATOM     20  H11 UNL     1      42.407  56.597  18.797  1.00  0.00     0.174 HD
ENDBRANCH   1  18
TORSDOF 4
ENDMDL
MODEL 5
REMARK VINA RESULT: -3.904030324      2.340      3.141
REMARK  4 active torsions:
REMARK  status: ('A' for Active; 'I' for Inactive)
REMARK    1  A    between atoms: N1_1  and  C1_4 
REMARK    2  A    between atoms: C2_9  and  C3_10 
REMARK    3  A    between atoms: C4_13  and  N5_14 
REMARK    4  A    between atoms: N5_14  and  N6_16 
ROOT
HETATM    1  C1  UNL     1      38.025  56.917  22.738  1.00  0.00     0.692 A 
HETATM    2  N2  UNL     1      38.270  58.163  23.126  1.00  0.00    -0.132 N 
ATOM      3  H2  UNL     1      37.522  58.713  23.548  1.00  0.00     0.205 HD
HETATM    4  N3  UNL     1      39.469  58.702  22.972  1.00  0.00    -0.278 N 
ATOM      5  H3  UNL     1      39.635  59.661  23.277  1.00  0.00     0.188 HD
HETATM    6  C2  UNL     1      40.470  57.995  22.418  1.00  0.00     0.160 A 
HETATM    7  C4  UNL     1      40.258  56.697  22.001  1.00  0.00     0.168 A 
HETATM    8  N7  UNL     1      39.028  56.198  22.179  1.00  0.00    -0.172 N 
ATOM      9  H7  UNL     1      38.839  55.240  21.882  1.00  0.00     0.186 HD
ENDROOT
BRANCH   7  10
HETATM   10  N5  UNL     1      41.220  56.057  21.482  1.00  0.00    -0.290 N 
ATOM     11  H5  UNL     1      41.930  55.700  22.123  1.00  0.00     0.188 HD
BRANCH  10  12
HETATM   12  N6  UNL     1      41.407  55.791  20.143  1.00  0.00    -0.344 N 
ATOM     13  H62 UNL     1      41.020  54.907  19.813  1.00  0.00     0.176 HD
ATOM     14  H61 UNL     1      41.887  56.382  19.464  1.00  0.00     0.176 HD
ENDBRANCH  10  12
ENDBRANCH   7  10
BRANCH   6  15
HETATM   15  C3  UNL     1      41.782  58.612  22.260  1.00  0.00     0.286 C 
HETATM   16  N4  UNL     1      42.350  58.782  20.969  1.00  0.00    -0.056 NA
HETATM   17  O1  UNL     1      42.452  59.011  23.246  1.00  0.00    -0.269 OA
ENDBRANCH   6  15
BRANCH   1  18
HETATM   18  N1  UNL     1      36.845  56.411  22.898  1.00  0.00    -0.233 N 
ATOM     19  H12 UNL     1      36.624  55.472  22.569  1.00  0.00     0.174 HD
ATOM     20  H11 UNL     1      36.118  56.955  23.362  1.00  0.00     0.174 HD
ENDBRANCH   1  18
TORSDOF 4
ENDMDL
