MODEL 1
REMARK VINA RESULT: -4.415995480      0.000      0.000
REMARK  2 active torsions:
REMARK  status: ('A' for Active; 'I' for Inactive)
REMARK    1  A    between atoms: C3_9  and  C4_10 
REMARK    2  A    between atoms: N5_13  and  N6_14 
ROOT
HETATM    1  N1  UNL     1      39.586  55.359  21.076  1.00  0.00    -0.381 N 
ATOM      2  H11 UNL     1      38.935  55.443  21.857  1.00  0.00     0.157 HD
ATOM      3  H12 UNL     1      39.341  54.671  20.364  1.00  0.00     0.157 HD
HETATM    4  C1  UNL     1      40.656  56.072  20.983  1.00  0.00     0.171 A 
HETATM    5  N2  UNL     1      41.517  55.960  19.951  1.00  0.00    -0.325 N 
ATOM      6  H2  UNL     1      41.314  55.285  19.214  1.00  0.00     0.169 HD
HETATM    7  C2  UNL     1      42.633  56.705  19.857  1.00  0.00     0.152 A 
HETATM    8  N3  UNL     1      43.548  56.595  18.772  1.00  0.00    -0.080 NA
HETATM    9  C3  UNL     1      42.916  57.622  20.848  1.00  0.00     0.165 A 
HETATM   10  N5  UNL     1      42.092  57.770  21.896  1.00  0.00    -0.215 N 
HETATM   11  C5  UNL     1      40.989  57.003  21.946  1.00  0.00     0.310 A 
HETATM   12  O2  UNL     1      40.190  57.114  22.915  1.00  0.00    -0.262 OA
ENDROOT
BRANCH  10  13
HETATM   13  N6  UNL     1      42.352  58.697  22.925  1.00  0.00    -0.335 N 
ATOM     14  H62 UNL     1      42.913  58.419  23.731  1.00  0.00     0.177 HD
ATOM     15  H61 UNL     1      41.994  59.652  22.895  1.00  0.00     0.177 HD
ENDBRANCH  10  13
BRANCH   9  16
HETATM   16  C4  UNL     1      44.113  58.458  20.799  1.00  0.00     0.286 C 
HETATM   17  N4  UNL     1      44.102  59.729  20.167  1.00  0.00    -0.056 NA
HETATM   18  O1  UNL     1      45.208  58.090  21.316  1.00  0.00    -0.269 OA
ENDBRANCH   9  16
TORSDOF 2
ENDMDL
MODEL 2
REMARK VINA RESULT: -4.214306423      2.083      4.867
REMARK  2 active torsions:
REMARK  status: ('A' for Active; 'I' for Inactive)
REMARK    1  A    between atoms: C3_9  and  C4_10 
REMARK    2  A    between atoms: N5_13  and  N6_14 
ROOT
HETATM    1  N1  UNL     1      43.488  57.925  20.902  1.00  0.00    -0.381 N 
ATOM      2  H11 UNL     1      43.943  57.315  20.223  1.00  0.00     0.157 HD
ATOM      3  H12 UNL     1      44.045  58.710  21.239  1.00  0.00     0.157 HD
HETATM    4  C1  UNL     1      42.284  57.726  21.319  1.00  0.00     0.171 A 
HETATM    5  N2  UNL     1      41.683  58.532  22.218  1.00  0.00    -0.325 N 
ATOM      6  H2  UNL     1      42.202  59.332  22.583  1.00  0.00     0.169 HD
HETATM    7  C2  UNL     1      40.428  58.322  22.651  1.00  0.00     0.152 A 
HETATM    8  N3  UNL     1      39.785  59.167  23.599  1.00  0.00    -0.080 NA
HETATM    9  C3  UNL     1      39.718  57.245  22.163  1.00  0.00     0.165 A 
HETATM   10  N5  UNL     1      40.272  56.413  21.268  1.00  0.00    -0.215 N 
HETATM   11  C5  UNL     1      41.530  56.663  20.865  1.00  0.00     0.310 A 
HETATM   12  O2  UNL     1      42.083  55.904  20.024  1.00  0.00    -0.262 OA
ENDROOT
BRANCH  10  13
HETATM   13  N6  UNL     1      39.575  55.303  20.749  1.00  0.00    -0.335 N 
ATOM     14  H62 UNL     1      38.569  55.217  20.900  1.00  0.00     0.177 HD
ATOM     15  H61 UNL     1      40.045  54.569  20.220  1.00  0.00     0.177 HD
ENDBRANCH  10  13
BRANCH   9  16
HETATM   16  C4  UNL     1      38.351  56.967  22.596  1.00  0.00     0.286 C 
HETATM   17  N4  UNL     1      37.235  57.559  21.950  1.00  0.00    -0.056 NA
HETATM   18  O1  UNL     1      38.101  56.190  23.564  1.00  0.00    -0.269 OA
ENDBRANCH   9  16
TORSDOF 2
ENDMDL
MODEL 3
REMARK VINA RESULT: -4.213138245      6.502      8.732
REMARK  2 active torsions:
REMARK  status: ('A' for Active; 'I' for Inactive)
REMARK    1  A    between atoms: C3_9  and  C4_10 
REMARK    2  A    between atoms: N5_13  and  N6_14 
ROOT
HETATM    1  N1  UNL     1      37.213  56.445  22.637  1.00  0.00    -0.381 N 
ATOM      2  H11 UNL     1      37.322  55.455  22.415  1.00  0.00     0.157 HD
ATOM      3  H12 UNL     1      37.568  57.100  21.940  1.00  0.00     0.157 HD
HETATM    4  C1  UNL     1      36.663  56.856  23.728  1.00  0.00     0.171 A 
HETATM    5  N2  UNL     1      36.519  58.164  24.022  1.00  0.00    -0.325 N 
ATOM      6  H2  UNL     1      36.859  58.857  23.355  1.00  0.00     0.169 HD
HETATM    7  C2  UNL     1      35.945  58.590  25.161  1.00  0.00     0.152 A 
HETATM    8  N3  UNL     1      35.788  59.968  25.481  1.00  0.00    -0.080 NA
HETATM    9  C3  UNL     1      35.482  57.661  26.070  1.00  0.00     0.165 A 
HETATM   10  N5  UNL     1      35.602  56.348  25.825  1.00  0.00    -0.215 N 
HETATM   11  C5  UNL     1      36.184  55.970  24.672  1.00  0.00     0.310 A 
HETATM   12  O2  UNL     1      36.314  54.745  24.407  1.00  0.00    -0.262 OA
ENDROOT
BRANCH  10  13
HETATM   13  N6  UNL     1      35.140  55.373  26.732  1.00  0.00    -0.335 N 
ATOM     14  H62 UNL     1      34.200  54.990  26.632  1.00  0.00     0.177 HD
ATOM     15  H61 UNL     1      35.719  55.031  27.499  1.00  0.00     0.177 HD
ENDBRANCH  10  13
BRANCH   9  16
HETATM   16  C4  UNL     1      34.850  58.064  27.324  1.00  0.00     0.286 C 
HETATM   17  N4  UNL     1      35.607  58.248  28.509  1.00  0.00    -0.056 NA
HETATM   18  O1  UNL     1      33.603  58.267  27.409  1.00  0.00    -0.269 OA
ENDBRANCH   9  16
TORSDOF 2
ENDMDL
MODEL 4
REMARK VINA RESULT: -4.039078337      5.322      7.904
REMARK  2 active torsions:
REMARK  status: ('A' for Active; 'I' for Inactive)
REMARK    1  A    between atoms: C3_9  and  C4_10 
REMARK    2  A    between atoms: N5_13  and  N6_14 
ROOT
HETATM    1  N1  UNL     1      38.513  58.419  21.543  1.00  0.00    -0.381 N 
ATOM      2  H11 UNL     1      39.433  57.981  21.589  1.00  0.00     0.157 HD
ATOM      3  H12 UNL     1      38.443  59.246  20.951  1.00  0.00     0.157 HD
HETATM    4  C1  UNL     1      37.493  57.965  22.188  1.00  0.00     0.171 A 
HETATM    5  N2  UNL     1      36.277  58.545  22.128  1.00  0.00    -0.325 N 
ATOM      6  H2  UNL     1      36.158  59.376  21.548  1.00  0.00     0.169 HD
HETATM    7  C2  UNL     1      35.216  58.069  22.802  1.00  0.00     0.152 A 
HETATM    8  N3  UNL     1      33.928  58.673  22.744  1.00  0.00    -0.080 NA
HETATM    9  C3  UNL     1      35.366  56.945  23.588  1.00  0.00     0.165 A 
HETATM   10  N5  UNL     1      36.555  56.333  23.683  1.00  0.00    -0.215 N 
HETATM   11  C5  UNL     1      37.587  56.845  22.990  1.00  0.00     0.310 A 
HETATM   12  O2  UNL     1      38.720  56.297  23.054  1.00  0.00    -0.262 OA
ENDROOT
BRANCH  10  13
HETATM   13  N6  UNL     1      36.742  55.183  24.477  1.00  0.00    -0.335 N 
ATOM     14  H62 UNL     1      37.458  54.501  24.225  1.00  0.00     0.177 HD
ATOM     15  H61 UNL     1      36.179  55.004  25.308  1.00  0.00     0.177 HD
ENDBRANCH  10  13
BRANCH   9  16
HETATM   16  C4  UNL     1      34.248  56.383  24.343  1.00  0.00     0.286 C 
HETATM   17  N4  UNL     1      34.028  56.723  25.703  1.00  0.00    -0.056 NA
HETATM   18  O1  UNL     1      33.430  55.571  23.821  1.00  0.00    -0.269 OA
ENDBRANCH   9  16
TORSDOF 2
ENDMDL
MODEL 5
REMARK VINA RESULT: -3.948897554      2.306      5.182
REMARK  2 active torsions:
REMARK  status: ('A' for Active; 'I' for Inactive)
REMARK    1  A    between atoms: C3_9  and  C4_10 
REMARK    2  A    between atoms: N5_13  and  N6_14 
ROOT
HETATM    1  N1  UNL     1      43.152  58.306  21.502  1.00  0.00    -0.381 N 
ATOM      2  H11 UNL     1      43.721  57.714  20.896  1.00  0.00     0.157 HD
ATOM      3  H12 UNL     1      43.609  59.142  21.866  1.00  0.00     0.157 HD
HETATM    4  C1  UNL     1      41.928  58.027  21.796  1.00  0.00     0.171 A 
HETATM    5  N2  UNL     1      41.175  58.808  22.596  1.00  0.00    -0.325 N 
ATOM      6  H2  UNL     1      41.590  59.655  22.985  1.00  0.00     0.169 HD
HETATM    7  C2  UNL     1      39.900  58.514  22.901  1.00  0.00     0.152 A 
HETATM    8  N3  UNL     1      39.096  59.333  23.745  1.00  0.00    -0.080 NA
HETATM    9  C3  UNL     1      39.329  57.371  22.380  1.00  0.00     0.165 A 
HETATM   10  N5  UNL     1      40.036  56.560  21.579  1.00  0.00    -0.215 N 
HETATM   11  C5  UNL     1      41.308  56.896  21.303  1.00  0.00     0.310 A 
HETATM   12  O2  UNL     1      42.004  56.158  20.554  1.00  0.00    -0.262 OA
ENDROOT
BRANCH  10  13
HETATM   13  N6  UNL     1      39.483  55.385  21.031  1.00  0.00    -0.335 N 
ATOM     14  H62 UNL     1      38.484  55.200  21.126  1.00  0.00     0.177 HD
ATOM     15  H61 UNL     1      40.053  54.701  20.534  1.00  0.00     0.177 HD
ENDBRANCH  10  13
BRANCH   9  16
HETATM   16  C4  UNL     1      37.947  57.000  22.676  1.00  0.00     0.286 C 
HETATM   17  N4  UNL     1      37.627  56.141  23.759  1.00  0.00    -0.056 NA
HETATM   18  O1  UNL     1      36.977  57.426  21.984  1.00  0.00    -0.269 OA
ENDBRANCH   9  16
TORSDOF 2
ENDMDL
