MODEL 1
REMARK VINA RESULT: -7.507450115      0.000      0.000
REMARK  5 active torsions:
REMARK  status: ('A' for Active; 'I' for Inactive)
REMARK    1  A    between atoms: C7_7  and  O1_8 
REMARK    2  A    between atoms: C7_7  and  C8_10 
REMARK    3  A    between atoms: C8_10  and  O2_11 
REMARK    4  A    between atoms: O2_11  and  C9_12 
REMARK    5  A    between atoms: C17_21  and  C18_22 
ROOT
HETATM    1  C1  UNL     1      -8.151  16.477  37.830  1.00  0.00     0.010 C 
HETATM    2  C2  UNL     1      -8.620  16.623  39.299  1.00  0.00    -0.014 C 
HETATM    3  C3  UNL     1      -7.552  16.141  40.132  1.00  0.00     0.005 C 
HETATM    4  C4  UNL     1      -7.721  15.806  41.543  1.00  0.00     0.006 C 
HETATM    5  C5  UNL     1      -8.927  15.112  42.044  1.00  0.00     0.001 C 
HETATM    6  C6  UNL     1      -9.225  13.803  41.424  1.00  0.00     0.046 C 
HETATM    7  C7  UNL     1      -9.691  13.751  40.021  1.00  0.00     0.087 C 
HETATM    8  C15 UNL     1     -10.527  14.899  39.570  1.00  0.00     0.049 C 
HETATM    9  C16 UNL     1     -11.577  14.914  40.646  1.00  0.00    -0.008 C 
HETATM   10  C17 UNL     1     -11.358  15.395  41.886  1.00  0.00    -0.015 C 
HETATM   11  C19 UNL     1     -10.110  15.991  42.385  1.00  0.00    -0.010 C 
HETATM   12  C20 UNL     1     -10.206  16.285  43.858  1.00  0.00     0.021 C 
HETATM   13  C21 UNL     1     -10.035  17.341  41.697  1.00  0.00     0.015 C 
HETATM   14  C22 UNL     1     -10.721  17.278  40.352  1.00  0.00     0.007 C 
HETATM   15  C23 UNL     1     -10.026  16.245  39.427  1.00  0.00    -0.000 C 
ENDROOT
BRANCH   7  16
HETATM   16  O1  UNL     1      -8.783  13.263  39.092  1.00  0.00    -0.387 OA
ATOM     17  H1  UNL     1      -9.114  13.134  38.210  1.00  0.00     0.210 HD
ENDBRANCH   7  16
BRANCH   7  18
HETATM   18  C8  UNL     1     -10.697  12.558  40.001  1.00  0.00     0.206 C 
BRANCH  18  19
HETATM   19  O2  UNL     1     -10.956  12.169  38.716  1.00  0.00    -0.383 OA
BRANCH  19  20
HETATM   20  C9  UNL     1     -12.222  11.685  38.600  1.00  0.00     0.121 C 
HETATM   21  C10 UNL     1     -12.628  11.103  39.949  1.00  0.00     0.035 C 
HETATM   22  C11 UNL     1     -13.979  10.428  39.841  1.00  0.00     0.040 C 
HETATM   23  C12 UNL     1     -14.991  11.553  39.589  1.00  0.00     0.170 C 
HETATM   24  F1  UNL     1     -14.940  12.491  40.594  1.00  0.00    -0.249 F 
HETATM   25  C13 UNL     1     -14.627  12.159  38.259  1.00  0.00     0.040 C 
HETATM   26  C14 UNL     1     -13.247  12.734  38.236  1.00  0.00     0.035 C 
ENDBRANCH  19  20
ENDBRANCH  18  19
ENDBRANCH   7  18
BRANCH  10  27
HETATM   27  C18 UNL     1     -12.540  15.280  42.703  1.00  0.00     0.266 C 
HETATM   28  O3  UNL     1     -13.385  14.384  42.660  1.00  0.00    -0.302 OA
ENDBRANCH  10  27
TORSDOF 5
ENDMDL
MODEL 2
REMARK VINA RESULT: -7.440880456      1.468      1.751
REMARK  5 active torsions:
REMARK  status: ('A' for Active; 'I' for Inactive)
REMARK    1  A    between atoms: C7_7  and  O1_8 
REMARK    2  A    between atoms: C7_7  and  C8_10 
REMARK    3  A    between atoms: C8_10  and  O2_11 
REMARK    4  A    between atoms: O2_11  and  C9_12 
REMARK    5  A    between atoms: C17_21  and  C18_22 
ROOT
HETATM    1  C1  UNL     1      -8.022  16.352  37.854  1.00  0.00     0.010 C 
HETATM    2  C2  UNL     1      -8.589  16.502  39.287  1.00  0.00    -0.014 C 
HETATM    3  C3  UNL     1      -7.559  16.075  40.195  1.00  0.00     0.005 C 
HETATM    4  C4  UNL     1      -7.805  15.755  41.598  1.00  0.00     0.006 C 
HETATM    5  C5  UNL     1      -9.013  15.022  42.033  1.00  0.00     0.001 C 
HETATM    6  C6  UNL     1      -9.220  13.693  41.418  1.00  0.00     0.046 C 
HETATM    7  C7  UNL     1      -9.593  13.601  39.990  1.00  0.00     0.087 C 
HETATM    8  C15 UNL     1     -10.442  14.708  39.467  1.00  0.00     0.049 C 
HETATM    9  C16 UNL     1     -11.558  14.698  40.473  1.00  0.00    -0.008 C 
HETATM   10  C17 UNL     1     -11.438  15.206  41.716  1.00  0.00    -0.015 C 
HETATM   11  C19 UNL     1     -10.249  15.858  42.283  1.00  0.00    -0.010 C 
HETATM   12  C20 UNL     1     -10.450  16.171  43.742  1.00  0.00     0.021 C 
HETATM   13  C21 UNL     1     -10.181  17.199  41.577  1.00  0.00     0.015 C 
HETATM   14  C22 UNL     1     -10.777  17.090  40.193  1.00  0.00     0.007 C 
HETATM   15  C23 UNL     1      -9.985  16.071  39.332  1.00  0.00    -0.000 C 
ENDROOT
BRANCH   7  16
HETATM   16  O1  UNL     1      -8.609  13.136  39.128  1.00  0.00    -0.387 OA
ATOM     17  H1  UNL     1      -7.938  13.762  38.880  1.00  0.00     0.210 HD
ENDBRANCH   7  16
BRANCH   7  18
HETATM   18  C8  UNL     1     -10.549  12.370  39.927  1.00  0.00     0.206 C 
BRANCH  18  19
HETATM   19  O2  UNL     1     -10.331  11.650  38.785  1.00  0.00    -0.383 OA
BRANCH  19  20
HETATM   20  C9  UNL     1     -11.425  10.908  38.460  1.00  0.00     0.121 C 
HETATM   21  C10 UNL     1     -12.541  11.868  38.061  1.00  0.00     0.035 C 
HETATM   22  C11 UNL     1     -13.825  11.103  37.819  1.00  0.00     0.040 C 
HETATM   23  C12 UNL     1     -13.579  10.257  36.563  1.00  0.00     0.170 C 
HETATM   24  F1  UNL     1     -13.221  11.055  35.500  1.00  0.00    -0.249 F 
HETATM   25  C13 UNL     1     -12.480   9.290  36.913  1.00  0.00     0.040 C 
HETATM   26  C14 UNL     1     -11.204   9.968  37.299  1.00  0.00     0.035 C 
ENDBRANCH  19  20
ENDBRANCH  18  19
ENDBRANCH   7  18
BRANCH  10  27
HETATM   27  C18 UNL     1     -12.665  15.056  42.458  1.00  0.00     0.266 C 
HETATM   28  O3  UNL     1     -13.405  14.072  42.474  1.00  0.00    -0.302 OA
ENDBRANCH  10  27
TORSDOF 5
ENDMDL
MODEL 3
REMARK VINA RESULT: -7.167720383      2.429      3.511
REMARK  5 active torsions:
REMARK  status: ('A' for Active; 'I' for Inactive)
REMARK    1  A    between atoms: C7_7  and  O1_8 
REMARK    2  A    between atoms: C7_7  and  C8_10 
REMARK    3  A    between atoms: C8_10  and  O2_11 
REMARK    4  A    between atoms: O2_11  and  C9_12 
REMARK    5  A    between atoms: C17_21  and  C18_22 
ROOT
HETATM    1  C1  UNL     1     -10.274  18.281  41.594  1.00  0.00     0.010 C 
HETATM    2  C2  UNL     1     -11.587  17.853  42.294  1.00  0.00    -0.014 C 
HETATM    3  C3  UNL     1     -11.234  17.402  43.613  1.00  0.00     0.005 C 
HETATM    4  C4  UNL     1     -12.128  16.619  44.461  1.00  0.00     0.006 C 
HETATM    5  C5  UNL     1     -12.982  15.543  43.915  1.00  0.00     0.001 C 
HETATM    6  C6  UNL     1     -12.278  14.457  43.200  1.00  0.00     0.046 C 
HETATM    7  C7  UNL     1     -11.661  14.732  41.884  1.00  0.00     0.087 C 
HETATM    8  C15 UNL     1     -12.362  15.734  41.033  1.00  0.00     0.049 C 
HETATM    9  C16 UNL     1     -13.756  15.171  41.037  1.00  0.00    -0.008 C 
HETATM   10  C17 UNL     1     -14.596  15.284  42.086  1.00  0.00    -0.015 C 
HETATM   11  C19 UNL     1     -14.321  15.972  43.356  1.00  0.00    -0.010 C 
HETATM   12  C20 UNL     1     -15.448  15.767  44.333  1.00  0.00     0.021 C 
HETATM   13  C21 UNL     1     -14.344  17.446  42.999  1.00  0.00     0.015 C 
HETATM   14  C22 UNL     1     -13.907  17.642  41.566  1.00  0.00     0.007 C 
HETATM   15  C23 UNL     1     -12.455  17.137  41.361  1.00  0.00    -0.000 C 
ENDROOT
BRANCH   7  16
HETATM   16  O1  UNL     1     -10.274  14.781  41.856  1.00  0.00    -0.387 OA
ATOM     17  H1  UNL     1      -9.885  15.648  41.826  1.00  0.00     0.210 HD
ENDBRANCH   7  16
BRANCH   7  18
HETATM   18  C8  UNL     1     -11.856  13.404  41.090  1.00  0.00     0.206 C 
BRANCH  18  19
HETATM   19  O2  UNL     1     -10.765  13.146  40.307  1.00  0.00    -0.383 OA
BRANCH  19  20
HETATM   20  C9  UNL     1     -11.117  12.441  39.197  1.00  0.00     0.121 C 
HETATM   21  C10 UNL     1     -10.855  10.965  39.477  1.00  0.00     0.035 C 
HETATM   22  C11 UNL     1     -11.102  10.146  38.228  1.00  0.00     0.040 C 
HETATM   23  C12 UNL     1     -12.611  10.224  37.966  1.00  0.00     0.170 C 
HETATM   24  F1  UNL     1     -13.320   9.769  39.055  1.00  0.00    -0.249 F 
HETATM   25  C13 UNL     1     -12.917  11.671  37.683  1.00  0.00     0.040 C 
HETATM   26  C14 UNL     1     -12.574  12.576  38.824  1.00  0.00     0.035 C 
ENDBRANCH  19  20
ENDBRANCH  18  19
ENDBRANCH   7  18
BRANCH  10  27
HETATM   27  C18 UNL     1     -15.860  14.650  41.808  1.00  0.00     0.266 C 
HETATM   28  O3  UNL     1     -16.049  13.465  41.531  1.00  0.00    -0.302 OA
ENDBRANCH  10  27
TORSDOF 5
ENDMDL
MODEL 4
REMARK VINA RESULT: -7.102825644      0.913      1.092
REMARK  5 active torsions:
REMARK  status: ('A' for Active; 'I' for Inactive)
REMARK    1  A    between atoms: C7_7  and  O1_8 
REMARK    2  A    between atoms: C7_7  and  C8_10 
REMARK    3  A    between atoms: C8_10  and  O2_11 
REMARK    4  A    between atoms: O2_11  and  C9_12 
REMARK    5  A    between atoms: C17_21  and  C18_22 
ROOT
HETATM    1  C1  UNL     1      -8.055  16.387  37.818  1.00  0.00     0.010 C 
HETATM    2  C2  UNL     1      -8.511  16.610  39.281  1.00  0.00    -0.014 C 
HETATM    3  C3  UNL     1      -7.502  16.034  40.129  1.00  0.00     0.005 C 
HETATM    4  C4  UNL     1      -7.711  15.746  41.545  1.00  0.00     0.006 C 
HETATM    5  C5  UNL     1      -8.985  15.193  42.053  1.00  0.00     0.001 C 
HETATM    6  C6  UNL     1      -9.417  13.911  41.456  1.00  0.00     0.046 C 
HETATM    7  C7  UNL     1      -9.882  13.881  40.052  1.00  0.00     0.087 C 
HETATM    8  C15 UNL     1     -10.590  15.102  39.575  1.00  0.00     0.049 C 
HETATM    9  C16 UNL     1     -11.636  15.249  40.644  1.00  0.00    -0.008 C 
HETATM   10  C17 UNL     1     -11.372  15.728  41.877  1.00  0.00    -0.015 C 
HETATM   11  C19 UNL     1     -10.070  16.198  42.371  1.00  0.00    -0.010 C 
HETATM   12  C20 UNL     1     -10.139  16.530  43.838  1.00  0.00     0.021 C 
HETATM   13  C21 UNL     1      -9.850  17.519  41.658  1.00  0.00     0.015 C 
HETATM   14  C22 UNL     1     -10.535  17.504  40.311  1.00  0.00     0.007 C 
HETATM   15  C23 UNL     1      -9.950  16.385  39.409  1.00  0.00    -0.000 C 
ENDROOT
BRANCH   7  16
HETATM   16  O1  UNL     1      -9.027  13.283  39.136  1.00  0.00    -0.387 OA
ATOM     17  H1  UNL     1      -9.340  13.233  38.241  1.00  0.00     0.210 HD
ENDBRANCH   7  16
BRANCH   7  18
HETATM   18  C8  UNL     1     -11.008  12.801  40.049  1.00  0.00     0.206 C 
BRANCH  18  19
HETATM   19  O2  UNL     1     -11.098  12.204  38.823  1.00  0.00    -0.383 OA
BRANCH  19  20
HETATM   20  C9  UNL     1     -12.329  11.654  38.638  1.00  0.00     0.121 C 
HETATM   21  C10 UNL     1     -13.366  12.631  39.181  1.00  0.00     0.035 C 
HETATM   22  C11 UNL     1     -14.746  12.011  39.125  1.00  0.00     0.040 C 
HETATM   23  C12 UNL     1     -15.087  11.880  37.634  1.00  0.00     0.170 C 
HETATM   24  F1  UNL     1     -15.023  13.105  37.009  1.00  0.00    -0.249 F 
HETATM   25  C13 UNL     1     -14.084  10.919  37.054  1.00  0.00     0.040 C 
HETATM   26  C14 UNL     1     -12.672  11.394  37.190  1.00  0.00     0.035 C 
ENDBRANCH  19  20
ENDBRANCH  18  19
ENDBRANCH   7  18
BRANCH  10  27
HETATM   27  C18 UNL     1     -12.563  15.754  42.689  1.00  0.00     0.266 C 
HETATM   28  O3  UNL     1     -13.381  14.845  42.832  1.00  0.00    -0.302 OA
ENDBRANCH  10  27
TORSDOF 5
ENDMDL
MODEL 5
REMARK VINA RESULT: -7.082933592      1.763      3.955
REMARK  5 active torsions:
REMARK  status: ('A' for Active; 'I' for Inactive)
REMARK    1  A    between atoms: C7_7  and  O1_8 
REMARK    2  A    between atoms: C7_7  and  C8_10 
REMARK    3  A    between atoms: C8_10  and  O2_11 
REMARK    4  A    between atoms: O2_11  and  C9_12 
REMARK    5  A    between atoms: C17_21  and  C18_22 
ROOT
HETATM    1  C1  UNL     1     -10.597  15.794  43.921  1.00  0.00     0.010 C 
HETATM    2  C2  UNL     1      -9.921  16.250  42.605  1.00  0.00    -0.014 C 
HETATM    3  C3  UNL     1     -10.924  16.930  41.830  1.00  0.00     0.005 C 
HETATM    4  C4  UNL     1     -10.781  17.218  40.406  1.00  0.00     0.006 C 
HETATM    5  C5  UNL     1     -10.179  16.247  39.467  1.00  0.00     0.001 C 
HETATM    6  C6  UNL     1     -10.828  14.920  39.405  1.00  0.00     0.046 C 
HETATM    7  C7  UNL     1     -10.705  13.994  40.552  1.00  0.00     0.087 C 
HETATM    8  C15 UNL     1      -9.425  14.067  41.312  1.00  0.00     0.049 C 
HETATM    9  C16 UNL     1      -8.432  13.916  40.194  1.00  0.00    -0.008 C 
HETATM   10  C17 UNL     1      -8.128  14.911  39.336  1.00  0.00    -0.015 C 
HETATM   11  C19 UNL     1      -8.671  16.276  39.352  1.00  0.00    -0.010 C 
HETATM   12  C20 UNL     1      -8.198  17.058  38.156  1.00  0.00     0.021 C 
HETATM   13  C21 UNL     1      -8.020  16.928  40.557  1.00  0.00     0.015 C 
HETATM   14  C22 UNL     1      -7.721  15.888  41.613  1.00  0.00     0.007 C 
HETATM   15  C23 UNL     1      -9.027  15.209  42.100  1.00  0.00    -0.000 C 
ENDROOT
BRANCH   7  16
HETATM   16  O1  UNL     1     -11.849  13.807  41.314  1.00  0.00    -0.387 OA
ATOM     17  H1  UNL     1     -11.926  12.970  41.757  1.00  0.00     0.210 HD
ENDBRANCH   7  16
BRANCH   7  18
HETATM   18  C8  UNL     1     -10.638  12.582  39.893  1.00  0.00     0.206 C 
BRANCH  18  19
HETATM   19  O2  UNL     1     -11.886  12.165  39.522  1.00  0.00    -0.383 OA
BRANCH  19  20
HETATM   20  C9  UNL     1     -11.867  11.617  38.276  1.00  0.00     0.121 C 
HETATM   21  C10 UNL     1     -11.283  10.213  38.389  1.00  0.00     0.035 C 
HETATM   22  C11 UNL     1     -11.113   9.607  37.012  1.00  0.00     0.040 C 
HETATM   23  C12 UNL     1     -12.532   9.390  36.470  1.00  0.00     0.170 C 
HETATM   24  F1  UNL     1     -13.263   8.593  37.321  1.00  0.00    -0.249 F 
HETATM   25  C13 UNL     1     -13.149  10.758  36.341  1.00  0.00     0.040 C 
HETATM   26  C14 UNL     1     -13.233  11.488  37.644  1.00  0.00     0.035 C 
ENDBRANCH  19  20
ENDBRANCH  18  19
ENDBRANCH   7  18
BRANCH  10  27
HETATM   27  C18 UNL     1      -7.148  14.480  38.370  1.00  0.00     0.266 C 
HETATM   28  O3  UNL     1      -6.764  13.327  38.168  1.00  0.00    -0.302 OA
ENDBRANCH  10  27
TORSDOF 5
ENDMDL
