MODEL 1
REMARK VINA RESULT: -8.513305381      0.000      0.000
REMARK  4 active torsions:
REMARK  status: ('A' for Active; 'I' for Inactive)
REMARK    1  A    between atoms: C2_2  and  N1_3 
REMARK       I    between atoms: N1_3  and  C3_5 
REMARK    2  A    between atoms: C3_5  and  C4_7 
REMARK    3  A    between atoms: C6_11  and  N3_12 
REMARK    4  A    between atoms: N3_12  and  C8_14 
ROOT
HETATM    1  C4  UNL     1      -7.753  14.928  39.193  1.00  0.00     0.122 A 
HETATM    2  N2  UNL     1      -7.927  13.731  39.826  1.00  0.00    -0.358 N 
ATOM      3  H2  UNL     1      -7.104  13.164  40.032  1.00  0.00     0.165 HD
HETATM    4  C5  UNL     1      -9.131  13.268  40.190  1.00  0.00     0.117 A 
HETATM    5  C6  UNL     1     -10.234  14.073  39.892  1.00  0.00     0.047 A 
HETATM    6  C20 UNL     1     -10.096  15.281  39.255  1.00  0.00     0.057 A 
HETATM    7  C21 UNL     1      -8.830  15.724  38.894  1.00  0.00     0.068 A 
HETATM    8 CL1  UNL     1      -8.624  17.259  38.077  1.00  0.00    -0.082 Cl
ENDROOT
BRANCH   5   9
HETATM    9  N3  UNL     1     -11.509  13.632  40.287  1.00  0.00    -0.374 N 
HETATM   10  C7  UNL     1     -12.070  14.335  41.459  1.00  0.00     0.150 C 
BRANCH   9  11
HETATM   11  C8  UNL     1     -12.295  12.607  39.676  1.00  0.00     0.034 C 
HETATM   12  C9  UNL     1     -12.968  11.726  40.693  1.00  0.00     0.035 C 
HETATM   13  C10 UNL     1     -13.773  10.659  39.959  1.00  0.00    -0.011 C 
HETATM   14  C11 UNL     1     -12.867   9.802  39.114  1.00  0.00     0.014 C 
HETATM   15  C17 UNL     1     -14.852  11.345  39.188  1.00  0.00     0.014 C 
HETATM   16  C12 UNL     1     -12.266  10.727  38.063  1.00  0.00    -0.041 C 
HETATM   17  C13 UNL     1     -11.369   9.967  37.101  1.00  0.00     0.015 C 
HETATM   18  C14 UNL     1     -13.374  11.343  37.271  1.00  0.00     0.018 C 
HETATM   19  C19 UNL     1     -11.412  11.715  38.810  1.00  0.00     0.040 C 
HETATM   20  C15 UNL     1     -14.215  12.253  38.161  1.00  0.00    -0.041 C 
HETATM   21  C16 UNL     1     -15.246  12.924  37.303  1.00  0.00     0.015 C 
HETATM   22  C18 UNL     1     -13.287  13.273  38.749  1.00  0.00     0.040 C 
ENDBRANCH   9  11
ENDBRANCH   5   9
BRANCH   1  23
HETATM   23  C3  UNL     1      -6.409  15.374  38.872  1.00  0.00     0.269 C 
HETATM   24  N1  UNL     1      -5.856  15.050  37.617  1.00  0.00    -0.356 N 
ATOM     25  H1  UNL     1      -6.444  14.511  36.980  1.00  0.00     0.162 HD
HETATM   26  O1  UNL     1      -5.771  16.032  39.720  1.00  0.00    -0.266 OA
BRANCH  24  27
HETATM   27  C2  UNL     1      -4.546  15.402  37.144  1.00  0.00     0.118 C 
HETATM   28  C1  UNL     1      -3.687  14.160  37.138  1.00  0.00     0.026 C 
ENDBRANCH  24  27
ENDBRANCH   1  23
TORSDOF 4
ENDMDL
MODEL 2
REMARK VINA RESULT: -8.159626178      1.061      1.203
REMARK  4 active torsions:
REMARK  status: ('A' for Active; 'I' for Inactive)
REMARK    1  A    between atoms: C2_2  and  N1_3 
REMARK       I    between atoms: N1_3  and  C3_5 
REMARK    2  A    between atoms: C3_5  and  C4_7 
REMARK    3  A    between atoms: C6_11  and  N3_12 
REMARK    4  A    between atoms: N3_12  and  C8_14 
ROOT
HETATM    1  C4  UNL     1      -7.762  14.866  39.217  1.00  0.00     0.122 A 
HETATM    2  N2  UNL     1      -7.948  13.659  39.827  1.00  0.00    -0.358 N 
ATOM      3  H2  UNL     1      -7.132  13.080  40.022  1.00  0.00     0.165 HD
HETATM    4  C5  UNL     1      -9.158  13.203  40.183  1.00  0.00     0.117 A 
HETATM    5  C6  UNL     1     -10.251  14.025  39.900  1.00  0.00     0.047 A 
HETATM    6  C20 UNL     1     -10.100  15.243  39.285  1.00  0.00     0.057 A 
HETATM    7  C21 UNL     1      -8.829  15.679  38.933  1.00  0.00     0.068 A 
HETATM    8 CL1  UNL     1      -8.606  17.227  38.145  1.00  0.00    -0.082 Cl
ENDROOT
BRANCH   5   9
HETATM    9  N3  UNL     1     -11.531  13.591  40.287  1.00  0.00    -0.374 N 
HETATM   10  C7  UNL     1     -12.088  14.283  41.467  1.00  0.00     0.150 C 
BRANCH   9  11
HETATM   11  C8  UNL     1     -12.325  12.582  39.661  1.00  0.00     0.034 C 
HETATM   12  C9  UNL     1     -12.990  11.679  40.664  1.00  0.00     0.035 C 
HETATM   13  C10 UNL     1     -13.805  10.631  39.913  1.00  0.00    -0.011 C 
HETATM   14  C11 UNL     1     -12.910   9.792  39.040  1.00  0.00     0.014 C 
HETATM   15  C17 UNL     1     -14.891  11.337  39.170  1.00  0.00     0.014 C 
HETATM   16  C12 UNL     1     -12.318  10.739  38.004  1.00  0.00    -0.041 C 
HETATM   17  C13 UNL     1     -11.432  10.000  37.016  1.00  0.00     0.015 C 
HETATM   18  C14 UNL     1     -13.432  11.376  37.238  1.00  0.00     0.018 C 
HETATM   19  C19 UNL     1     -11.454  11.709  38.765  1.00  0.00     0.040 C 
HETATM   20  C15 UNL     1     -14.262  12.266  38.157  1.00  0.00    -0.041 C 
HETATM   21  C16 UNL     1     -15.300  12.960  37.326  1.00  0.00     0.015 C 
HETATM   22  C18 UNL     1     -13.326  13.271  38.760  1.00  0.00     0.040 C 
ENDBRANCH   9  11
ENDBRANCH   5   9
BRANCH   1  23
HETATM   23  C3  UNL     1      -6.412  15.303  38.904  1.00  0.00     0.269 C 
HETATM   24  N1  UNL     1      -5.611  15.853  39.925  1.00  0.00    -0.356 N 
ATOM     25  H1  UNL     1      -6.027  15.912  40.854  1.00  0.00     0.162 HD
HETATM   26  O1  UNL     1      -5.994  15.185  37.733  1.00  0.00    -0.266 OA
BRANCH  24  27
HETATM   27  C2  UNL     1      -4.267  16.340  39.786  1.00  0.00     0.118 C 
HETATM   28  C1  UNL     1      -4.321  17.803  39.415  1.00  0.00     0.026 C 
ENDBRANCH  24  27
ENDBRANCH   1  23
TORSDOF 4
ENDMDL
MODEL 3
REMARK VINA RESULT: -8.025666572      3.653      5.832
REMARK  4 active torsions:
REMARK  status: ('A' for Active; 'I' for Inactive)
REMARK    1  A    between atoms: C2_2  and  N1_3 
REMARK       I    between atoms: N1_3  and  C3_5 
REMARK    2  A    between atoms: C3_5  and  C4_7 
REMARK    3  A    between atoms: C6_11  and  N3_12 
REMARK    4  A    between atoms: N3_12  and  C8_14 
ROOT
HETATM    1  C4  UNL     1     -13.364  16.333  43.169  1.00  0.00     0.122 A 
HETATM    2  N2  UNL     1     -12.927  15.096  43.544  1.00  0.00    -0.358 N 
ATOM      3  H2  UNL     1     -13.011  14.825  44.524  1.00  0.00     0.165 HD
HETATM    4  C5  UNL     1     -12.391  14.221  42.681  1.00  0.00     0.117 A 
HETATM    5  C6  UNL     1     -12.292  14.628  41.348  1.00  0.00     0.047 A 
HETATM    6  C20 UNL     1     -12.720  15.866  40.937  1.00  0.00     0.057 A 
HETATM    7  C21 UNL     1     -13.270  16.743  41.863  1.00  0.00     0.068 A 
HETATM    8 CL1  UNL     1     -13.822  18.330  41.368  1.00  0.00    -0.082 Cl
ENDROOT
BRANCH   5   9
HETATM    9  N3  UNL     1     -11.763  13.723  40.411  1.00  0.00    -0.374 N 
HETATM   10  C7  UNL     1     -10.340  13.941  40.078  1.00  0.00     0.150 C 
BRANCH   9  11
HETATM   11  C8  UNL     1     -12.446  12.641  39.776  1.00  0.00     0.034 C 
HETATM   12  C9  UNL     1     -13.115  11.731  40.771  1.00  0.00     0.035 C 
HETATM   13  C10 UNL     1     -13.807  10.604  40.013  1.00  0.00    -0.011 C 
HETATM   14  C11 UNL     1     -12.804   9.798  39.231  1.00  0.00     0.014 C 
HETATM   15  C17 UNL     1     -14.887  11.207  39.175  1.00  0.00     0.014 C 
HETATM   16  C12 UNL     1     -12.209  10.747  38.198  1.00  0.00    -0.041 C 
HETATM   17  C13 UNL     1     -11.214  10.035  37.297  1.00  0.00     0.015 C 
HETATM   18  C14 UNL     1     -13.311  11.278  37.339  1.00  0.00     0.018 C 
HETATM   19  C19 UNL     1     -11.463  11.799  38.973  1.00  0.00     0.040 C 
HETATM   20  C15 UNL     1     -14.256  12.142  38.168  1.00  0.00    -0.041 C 
HETATM   21  C16 UNL     1     -15.281  12.733  37.246  1.00  0.00     0.015 C 
HETATM   22  C18 UNL     1     -13.429  13.229  38.788  1.00  0.00     0.040 C 
ENDBRANCH   9  11
ENDBRANCH   5   9
BRANCH   1  23
HETATM   23  C3  UNL     1     -13.971  17.203  44.161  1.00  0.00     0.269 C 
HETATM   24  N1  UNL     1     -13.168  18.143  44.839  1.00  0.00    -0.356 N 
ATOM     25  H1  UNL     1     -12.180  18.169  44.588  1.00  0.00     0.162 HD
HETATM   26  O1  UNL     1     -15.193  17.095  44.394  1.00  0.00    -0.266 OA
BRANCH  24  27
HETATM   27  C2  UNL     1     -13.603  19.068  45.848  1.00  0.00     0.118 C 
HETATM   28  C1  UNL     1     -12.556  19.120  46.936  1.00  0.00     0.026 C 
ENDBRANCH  24  27
ENDBRANCH   1  23
TORSDOF 4
ENDMDL
MODEL 4
REMARK VINA RESULT: -7.962736308      3.892      6.396
REMARK  4 active torsions:
REMARK  status: ('A' for Active; 'I' for Inactive)
REMARK    1  A    between atoms: C2_2  and  N1_3 
REMARK       I    between atoms: N1_3  and  C3_5 
REMARK    2  A    between atoms: C3_5  and  C4_7 
REMARK    3  A    between atoms: C6_11  and  N3_12 
REMARK    4  A    between atoms: N3_12  and  C8_14 
ROOT
HETATM    1  C4  UNL     1     -13.345  16.547  43.523  1.00  0.00     0.122 A 
HETATM    2  N2  UNL     1     -12.816  15.379  43.990  1.00  0.00    -0.358 N 
ATOM      3  H2  UNL     1     -12.846  15.196  44.993  1.00  0.00     0.165 HD
HETATM    4  C5  UNL     1     -12.258  14.461  43.188  1.00  0.00     0.117 A 
HETATM    5  C6  UNL     1     -12.236  14.747  41.820  1.00  0.00     0.047 A 
HETATM    6  C20 UNL     1     -12.757  15.912  41.317  1.00  0.00     0.057 A 
HETATM    7  C21 UNL     1     -13.326  16.838  42.183  1.00  0.00     0.068 A 
HETATM    8 CL1  UNL     1     -13.996  18.335  41.569  1.00  0.00    -0.082 Cl
ENDROOT
BRANCH   5   9
HETATM    9  N3  UNL     1     -11.685  13.792  40.947  1.00  0.00    -0.374 N 
HETATM   10  C7  UNL     1     -10.211  13.704  40.979  1.00  0.00     0.150 C 
BRANCH   9  11
HETATM   11  C8  UNL     1     -12.395  12.919  40.066  1.00  0.00     0.034 C 
HETATM   12  C9  UNL     1     -12.815  13.611  38.799  1.00  0.00     0.035 C 
HETATM   13  C10 UNL     1     -13.570  12.615  37.926  1.00  0.00    -0.011 C 
HETATM   14  C11 UNL     1     -14.807  12.125  38.632  1.00  0.00     0.014 C 
HETATM   15  C17 UNL     1     -12.622  11.529  37.539  1.00  0.00     0.014 C 
HETATM   16  C12 UNL     1     -14.323  11.376  39.867  1.00  0.00    -0.041 C 
HETATM   17  C13 UNL     1     -15.483  10.777  40.643  1.00  0.00     0.015 C 
HETATM   18  C14 UNL     1     -13.430  10.259  39.435  1.00  0.00     0.018 C 
HETATM   19  C19 UNL     1     -13.657  12.401  40.746  1.00  0.00     0.040 C 
HETATM   20  C15 UNL     1     -12.164  10.815  38.790  1.00  0.00    -0.041 C 
HETATM   21  C16 UNL     1     -11.258   9.664  38.468  1.00  0.00     0.015 C 
HETATM   22  C18 UNL     1     -11.517  11.717  39.798  1.00  0.00     0.040 C 
ENDBRANCH   9  11
ENDBRANCH   5   9
BRANCH   1  23
HETATM   23  C3  UNL     1     -13.969  17.468  44.457  1.00  0.00     0.269 C 
HETATM   24  N1  UNL     1     -13.156  18.286  45.268  1.00  0.00    -0.356 N 
ATOM     25  H1  UNL     1     -12.147  18.191  45.149  1.00  0.00     0.162 HD
HETATM   26  O1  UNL     1     -15.215  17.510  44.524  1.00  0.00    -0.266 OA
BRANCH  24  27
HETATM   27  C2  UNL     1     -13.606  19.239  46.243  1.00  0.00     0.118 C 
HETATM   28  C1  UNL     1     -12.668  19.195  47.426  1.00  0.00     0.026 C 
ENDBRANCH  24  27
ENDBRANCH   1  23
TORSDOF 4
ENDMDL
MODEL 5
REMARK VINA RESULT: -7.900328530      3.470      5.489
REMARK  4 active torsions:
REMARK  status: ('A' for Active; 'I' for Inactive)
REMARK    1  A    between atoms: C2_2  and  N1_3 
REMARK       I    between atoms: N1_3  and  C3_5 
REMARK    2  A    between atoms: C3_5  and  C4_7 
REMARK    3  A    between atoms: C6_11  and  N3_12 
REMARK    4  A    between atoms: N3_12  and  C8_14 
ROOT
HETATM    1  C4  UNL     1     -12.369  16.765  42.253  1.00  0.00     0.122 A 
HETATM    2  N2  UNL     1     -11.437  16.802  41.257  1.00  0.00    -0.358 N 
ATOM      3  H2  UNL     1     -10.982  17.690  41.046  1.00  0.00     0.165 HD
HETATM    4  C5  UNL     1     -11.092  15.720  40.543  1.00  0.00     0.117 A 
HETATM    5  C6  UNL     1     -11.735  14.522  40.861  1.00  0.00     0.047 A 
HETATM    6  C20 UNL     1     -12.679  14.449  41.856  1.00  0.00     0.057 A 
HETATM    7  C21 UNL     1     -13.008  15.594  42.572  1.00  0.00     0.068 A 
HETATM    8 CL1  UNL     1     -14.210  15.532  43.844  1.00  0.00    -0.082 Cl
ENDROOT
BRANCH   5   9
HETATM    9  N3  UNL     1     -11.376  13.362  40.153  1.00  0.00    -0.374 N 
HETATM   10  C7  UNL     1      -9.921  13.118  40.065  1.00  0.00     0.150 C 
BRANCH   9  11
HETATM   11  C8  UNL     1     -12.256  12.420  39.537  1.00  0.00     0.034 C 
HETATM   12  C9  UNL     1     -12.933  11.533  40.546  1.00  0.00     0.035 C 
HETATM   13  C10 UNL     1     -13.841  10.556  39.807  1.00  0.00    -0.011 C 
HETATM   14  C11 UNL     1     -13.037   9.688  38.875  1.00  0.00     0.014 C 
HETATM   15  C17 UNL     1     -14.911  11.346  39.128  1.00  0.00     0.014 C 
HETATM   16  C12 UNL     1     -12.431  10.625  37.838  1.00  0.00    -0.041 C 
HETATM   17  C13 UNL     1     -11.634   9.860  36.796  1.00  0.00     0.015 C 
HETATM   18  C14 UNL     1     -13.534  11.348  37.137  1.00  0.00     0.018 C 
HETATM   19  C19 UNL     1     -11.478  11.520  38.585  1.00  0.00     0.040 C 
HETATM   20  C15 UNL     1     -14.269  12.262  38.112  1.00  0.00    -0.041 C 
HETATM   21  C16 UNL     1     -15.296  13.039  37.343  1.00  0.00     0.015 C 
HETATM   22  C18 UNL     1     -13.248  13.192  38.697  1.00  0.00     0.040 C 
ENDBRANCH   9  11
ENDBRANCH   5   9
BRANCH   1  23
HETATM   23  C3  UNL     1     -12.652  17.974  43.006  1.00  0.00     0.269 C 
HETATM   24  N1  UNL     1     -13.719  18.803  42.605  1.00  0.00    -0.356 N 
ATOM     25  H1  UNL     1     -14.255  18.501  41.790  1.00  0.00     0.162 HD
HETATM   26  O1  UNL     1     -11.938  18.255  43.992  1.00  0.00    -0.266 OA
BRANCH  24  27
HETATM   27  C2  UNL     1     -14.128  20.031  43.228  1.00  0.00     0.118 C 
HETATM   28  C1  UNL     1     -15.358  19.760  44.061  1.00  0.00     0.026 C 
ENDBRANCH  24  27
ENDBRANCH   1  23
TORSDOF 4
ENDMDL
