MODEL 1
REMARK VINA RESULT: -8.496486466      0.000      0.000
REMARK  9 active torsions:
REMARK  status: ('A' for Active; 'I' for Inactive)
REMARK    1  A    between atoms: C2_2  and  N1_3 
REMARK    2  A    between atoms: C2_2  and  C11_15 
REMARK       I    between atoms: N1_3  and  C3_5 
REMARK    3  A    between atoms: C3_5  and  O2_7 
REMARK    4  A    between atoms: O2_7  and  C4_8 
REMARK    5  A    between atoms: C4_8  and  C5_9 
REMARK       I    between atoms: C11_15  and  N2_17 
REMARK    6  A    between atoms: N2_17  and  C12_19 
REMARK    7  A    between atoms: C15_22  and  S1_23 
REMARK    8  A    between atoms: S1_23  and  C16_26 
REMARK    9  A    between atoms: C17_27  and  C18_28 
ROOT
HETATM    1  C11 UNL     1      24.264  15.829  29.083  1.00  0.00     0.244 C 
HETATM    2  O3  UNL     1      25.293  15.528  28.441  1.00  0.00    -0.271 OA
HETATM    3  N2  UNL     1      23.576  14.889  29.850  1.00  0.00    -0.325 N 
ATOM      4  H2  UNL     1      22.738  15.229  30.321  1.00  0.00     0.169 HD
ENDROOT
BRANCH   3   5
HETATM    5  C12 UNL     1      23.886  13.527  30.060  1.00  0.00     0.034 A 
HETATM    6  C13 UNL     1      24.752  13.072  31.005  1.00  0.00     0.031 A 
HETATM    7  C14 UNL     1      24.994  11.702  31.171  1.00  0.00     0.026 A 
HETATM    8  C15 UNL     1      24.361  10.773  30.384  1.00  0.00     0.063 A 
HETATM    9  C19 UNL     1      23.495  11.246  29.438  1.00  0.00     0.026 A 
HETATM   10  C20 UNL     1      23.236  12.579  29.248  1.00  0.00     0.031 A 
BRANCH   8  11
HETATM   11  S1  UNL     1      24.610   9.034  30.575  1.00  0.00     0.196 S 
HETATM   12  O4  UNL     1      24.455   8.360  29.224  1.00  0.00    -0.218 OA
HETATM   13  O5  UNL     1      25.946   8.749  31.169  1.00  0.00    -0.218 OA
BRANCH  11  14
HETATM   14  C16 UNL     1      23.363   8.426  31.659  1.00  0.00     0.114 C 
HETATM   15  C17 UNL     1      22.172   8.961  31.625  1.00  0.00     0.043 C 
BRANCH  15  16
HETATM   16  C18 UNL     1      21.090   8.461  32.542  1.00  0.00     0.207 C 
HETATM   17 CL1  UNL     1      19.589   8.255  31.574  1.00  0.00    -0.079 Cl
HETATM   18 CL2  UNL     1      20.781   9.719  33.760  1.00  0.00    -0.079 Cl
HETATM   19 CL3  UNL     1      21.572   6.933  33.264  1.00  0.00    -0.079 Cl
ENDBRANCH  15  16
ENDBRANCH  11  14
ENDBRANCH   8  11
ENDBRANCH   3   5
BRANCH   1  20
HETATM   20  C2  UNL     1      23.773  17.250  29.024  1.00  0.00     0.175 C 
HETATM   21  C1  UNL     1      24.063  17.695  27.567  1.00  0.00     0.042 C 
BRANCH  20  22
HETATM   22  N1  UNL     1      22.367  17.377  29.257  1.00  0.00    -0.324 N 
HETATM   23  C3  UNL     1      21.905  17.489  30.599  1.00  0.00     0.361 C 
HETATM   24  O1  UNL     1      22.677  17.476  31.564  1.00  0.00    -0.238 OA
ATOM     25  H1  UNL     1      21.709  17.388  28.478  1.00  0.00     0.165 HD
BRANCH  23  26
HETATM   26  O2  UNL     1      20.530  17.619  30.796  1.00  0.00    -0.299 OA
BRANCH  26  27
HETATM   27  C4  UNL     1      19.687  16.642  30.242  1.00  0.00     0.219 C 
BRANCH  27  28
HETATM   28  C5  UNL     1      19.553  15.499  31.174  1.00  0.00    -0.034 A 
HETATM   29  C6  UNL     1      18.380  15.324  31.898  1.00  0.00     0.009 A 
HETATM   30  C7  UNL     1      18.229  14.274  32.751  1.00  0.00     0.001 A 
HETATM   31  C8  UNL     1      19.241  13.343  32.928  1.00  0.00     0.000 A 
HETATM   32  C9  UNL     1      20.399  13.521  32.210  1.00  0.00     0.001 A 
HETATM   33  C10 UNL     1      20.558  14.562  31.360  1.00  0.00     0.009 A 
ENDBRANCH  27  28
ENDBRANCH  26  27
ENDBRANCH  23  26
ENDBRANCH  20  22
ENDBRANCH   1  20
TORSDOF 9
ENDMDL
MODEL 2
REMARK VINA RESULT: -8.143045792      1.213      1.704
REMARK  9 active torsions:
REMARK  status: ('A' for Active; 'I' for Inactive)
REMARK    1  A    between atoms: C2_2  and  N1_3 
REMARK    2  A    between atoms: C2_2  and  C11_15 
REMARK       I    between atoms: N1_3  and  C3_5 
REMARK    3  A    between atoms: C3_5  and  O2_7 
REMARK    4  A    between atoms: O2_7  and  C4_8 
REMARK    5  A    between atoms: C4_8  and  C5_9 
REMARK       I    between atoms: C11_15  and  N2_17 
REMARK    6  A    between atoms: N2_17  and  C12_19 
REMARK    7  A    between atoms: C15_22  and  S1_23 
REMARK    8  A    between atoms: S1_23  and  C16_26 
REMARK    9  A    between atoms: C17_27  and  C18_28 
ROOT
HETATM    1  C11 UNL     1      24.301  15.802  29.424  1.00  0.00     0.244 C 
HETATM    2  O3  UNL     1      25.321  15.751  30.144  1.00  0.00    -0.271 OA
HETATM    3  N2  UNL     1      23.684  14.647  28.944  1.00  0.00    -0.325 N 
ATOM      4  H2  UNL     1      22.868  14.795  28.350  1.00  0.00     0.169 HD
ENDROOT
BRANCH   3   5
HETATM    5  C12 UNL     1      24.039  13.299  29.172  1.00  0.00     0.034 A 
HETATM    6  C13 UNL     1      23.486  12.509  30.132  1.00  0.00     0.031 A 
HETATM    7  C14 UNL     1      23.872  11.171  30.285  1.00  0.00     0.026 A 
HETATM    8  C15 UNL     1      24.823  10.613  29.467  1.00  0.00     0.063 A 
HETATM    9  C19 UNL     1      25.370  11.420  28.509  1.00  0.00     0.026 A 
HETATM   10  C20 UNL     1      25.016  12.733  28.332  1.00  0.00     0.031 A 
BRANCH   8  11
HETATM   11  S1  UNL     1      25.322   8.923  29.601  1.00  0.00     0.196 S 
HETATM   12  O4  UNL     1      25.987   8.499  28.306  1.00  0.00    -0.218 OA
HETATM   13  O5  UNL     1      26.233   8.727  30.764  1.00  0.00    -0.218 OA
BRANCH  11  14
HETATM   14  C16 UNL     1      23.874   7.951  29.842  1.00  0.00     0.114 C 
HETATM   15  C17 UNL     1      23.471   7.696  31.058  1.00  0.00     0.043 C 
BRANCH  15  16
HETATM   16  C18 UNL     1      22.238   6.867  31.290  1.00  0.00     0.207 C 
HETATM   17 CL1  UNL     1      22.450   5.972  32.835  1.00  0.00    -0.079 Cl
HETATM   18 CL2  UNL     1      22.130   5.669  29.980  1.00  0.00    -0.079 Cl
HETATM   19 CL3  UNL     1      20.822   7.904  31.369  1.00  0.00    -0.079 Cl
ENDBRANCH  15  16
ENDBRANCH  11  14
ENDBRANCH   8  11
ENDBRANCH   3   5
BRANCH   1  20
HETATM   20  C2  UNL     1      23.731  17.152  29.084  1.00  0.00     0.175 C 
HETATM   21  C1  UNL     1      24.017  17.316  27.568  1.00  0.00     0.042 C 
BRANCH  20  22
HETATM   22  N1  UNL     1      22.317  17.239  29.281  1.00  0.00    -0.324 N 
HETATM   23  C3  UNL     1      21.827  17.541  30.583  1.00  0.00     0.361 C 
HETATM   24  O1  UNL     1      22.582  17.725  31.544  1.00  0.00    -0.238 OA
ATOM     25  H1  UNL     1      21.672  17.089  28.505  1.00  0.00     0.165 HD
BRANCH  23  26
HETATM   26  O2  UNL     1      20.444  17.628  30.746  1.00  0.00    -0.299 OA
BRANCH  26  27
HETATM   27  C4  UNL     1      19.649  16.603  30.205  1.00  0.00     0.219 C 
BRANCH  27  28
HETATM   28  C5  UNL     1      19.579  15.463  31.149  1.00  0.00    -0.034 A 
HETATM   29  C6  UNL     1      18.428  15.245  31.894  1.00  0.00     0.009 A 
HETATM   30  C7  UNL     1      18.336  14.197  32.759  1.00  0.00     0.001 A 
HETATM   31  C8  UNL     1      19.390  13.312  32.925  1.00  0.00     0.000 A 
HETATM   32  C9  UNL     1      20.527  13.532  32.186  1.00  0.00     0.001 A 
HETATM   33  C10 UNL     1      20.626  14.572  31.325  1.00  0.00     0.009 A 
ENDBRANCH  27  28
ENDBRANCH  26  27
ENDBRANCH  23  26
ENDBRANCH  20  22
ENDBRANCH   1  20
TORSDOF 9
ENDMDL
MODEL 3
REMARK VINA RESULT: -8.091333369      3.228      4.190
REMARK  9 active torsions:
REMARK  status: ('A' for Active; 'I' for Inactive)
REMARK    1  A    between atoms: C2_2  and  N1_3 
REMARK    2  A    between atoms: C2_2  and  C11_15 
REMARK       I    between atoms: N1_3  and  C3_5 
REMARK    3  A    between atoms: C3_5  and  O2_7 
REMARK    4  A    between atoms: O2_7  and  C4_8 
REMARK    5  A    between atoms: C4_8  and  C5_9 
REMARK       I    between atoms: C11_15  and  N2_17 
REMARK    6  A    between atoms: N2_17  and  C12_19 
REMARK    7  A    between atoms: C15_22  and  S1_23 
REMARK    8  A    between atoms: S1_23  and  C16_26 
REMARK    9  A    between atoms: C17_27  and  C18_28 
ROOT
HETATM    1  C11 UNL     1      25.153  12.674  30.585  1.00  0.00     0.244 C 
HETATM    2  O3  UNL     1      26.189  12.083  30.958  1.00  0.00    -0.271 OA
HETATM    3  N2  UNL     1      23.973  11.983  30.308  1.00  0.00    -0.325 N 
ATOM      4  H2  UNL     1      23.189  12.555  29.993  1.00  0.00     0.169 HD
ENDROOT
BRANCH   3   5
HETATM    5  C12 UNL     1      23.720  10.598  30.407  1.00  0.00     0.034 A 
HETATM    6  C13 UNL     1      23.991   9.694  29.427  1.00  0.00     0.031 A 
HETATM    7  C14 UNL     1      23.733   8.328  29.604  1.00  0.00     0.026 A 
HETATM    8  C15 UNL     1      23.197   7.858  30.777  1.00  0.00     0.063 A 
HETATM    9  C19 UNL     1      22.928   8.779  31.751  1.00  0.00     0.026 A 
HETATM   10  C20 UNL     1      23.167  10.122  31.610  1.00  0.00     0.031 A 
BRANCH   8  11
HETATM   11  S1  UNL     1      22.880   6.143  31.060  1.00  0.00     0.196 S 
HETATM   12  O4  UNL     1      22.009   5.997  32.293  1.00  0.00    -0.218 OA
HETATM   13  O5  UNL     1      22.239   5.516  29.870  1.00  0.00    -0.218 OA
BRANCH  11  14
HETATM   14  C16 UNL     1      24.425   5.351  31.358  1.00  0.00     0.114 C 
HETATM   15  C17 UNL     1      25.029   4.741  30.374  1.00  0.00     0.043 C 
BRANCH  15  16
HETATM   16  C18 UNL     1      26.348   4.056  30.602  1.00  0.00     0.207 C 
HETATM   17 CL1  UNL     1      26.870   3.316  29.050  1.00  0.00    -0.079 Cl
HETATM   18 CL2  UNL     1      26.086   2.740  31.770  1.00  0.00    -0.079 Cl
HETATM   19 CL3  UNL     1      27.540   5.220  31.161  1.00  0.00    -0.079 Cl
ENDBRANCH  15  16
ENDBRANCH  11  14
ENDBRANCH   8  11
ENDBRANCH   3   5
BRANCH   1  20
HETATM   20  C2  UNL     1      25.195  14.171  30.444  1.00  0.00     0.175 C 
HETATM   21  C1  UNL     1      25.864  14.407  29.064  1.00  0.00     0.042 C 
BRANCH  20  22
HETATM   22  N1  UNL     1      23.899  14.777  30.419  1.00  0.00    -0.324 N 
HETATM   23  C3  UNL     1      23.404  15.380  31.610  1.00  0.00     0.361 C 
HETATM   24  O1  UNL     1      24.055  15.391  32.661  1.00  0.00    -0.238 OA
ATOM     25  H1  UNL     1      23.341  14.778  29.565  1.00  0.00     0.165 HD
BRANCH  23  26
HETATM   26  O2  UNL     1      22.141  15.970  31.555  1.00  0.00    -0.299 OA
BRANCH  26  27
HETATM   27  C4  UNL     1      21.119  15.283  30.878  1.00  0.00     0.219 C 
BRANCH  27  28
HETATM   28  C5  UNL     1      20.465  14.318  31.790  1.00  0.00    -0.034 A 
HETATM   29  C6  UNL     1      19.133  14.489  32.147  1.00  0.00     0.009 A 
HETATM   30  C7  UNL     1      18.507  13.607  32.975  1.00  0.00     0.001 A 
HETATM   31  C8  UNL     1      19.177  12.509  33.490  1.00  0.00     0.000 A 
HETATM   32  C9  UNL     1      20.494  12.345  33.135  1.00  0.00     0.001 A 
HETATM   33  C10 UNL     1      21.124  13.216  32.313  1.00  0.00     0.009 A 
ENDBRANCH  27  28
ENDBRANCH  26  27
ENDBRANCH  23  26
ENDBRANCH  20  22
ENDBRANCH   1  20
TORSDOF 9
ENDMDL
MODEL 4
REMARK VINA RESULT: -7.975456728      3.151      4.189
REMARK  9 active torsions:
REMARK  status: ('A' for Active; 'I' for Inactive)
REMARK    1  A    between atoms: C2_2  and  N1_3 
REMARK    2  A    between atoms: C2_2  and  C11_15 
REMARK       I    between atoms: N1_3  and  C3_5 
REMARK    3  A    between atoms: C3_5  and  O2_7 
REMARK    4  A    between atoms: O2_7  and  C4_8 
REMARK    5  A    between atoms: C4_8  and  C5_9 
REMARK       I    between atoms: C11_15  and  N2_17 
REMARK    6  A    between atoms: N2_17  and  C12_19 
REMARK    7  A    between atoms: C15_22  and  S1_23 
REMARK    8  A    between atoms: S1_23  and  C16_26 
REMARK    9  A    between atoms: C17_27  and  C18_28 
ROOT
HETATM    1  C11 UNL     1      24.343  12.880  30.061  1.00  0.00     0.244 C 
HETATM    2  O3  UNL     1      25.367  12.506  30.670  1.00  0.00    -0.271 OA
HETATM    3  N2  UNL     1      23.342  11.983  29.689  1.00  0.00    -0.325 N 
ATOM      4  H2  UNL     1      22.554  12.385  29.179  1.00  0.00     0.169 HD
ENDROOT
BRANCH   3   5
HETATM    5  C12 UNL     1      23.273  10.593  29.924  1.00  0.00     0.034 A 
HETATM    6  C13 UNL     1      23.848   9.649  29.131  1.00  0.00     0.031 A 
HETATM    7  C14 UNL     1      23.757   8.285  29.439  1.00  0.00     0.026 A 
HETATM    8  C15 UNL     1      23.083   7.857  30.556  1.00  0.00     0.063 A 
HETATM    9  C19 UNL     1      22.509   8.818  31.341  1.00  0.00     0.026 A 
HETATM   10  C20 UNL     1      22.578  10.160  31.068  1.00  0.00     0.031 A 
BRANCH   8  11
HETATM   11  S1  UNL     1      22.966   6.152  31.003  1.00  0.00     0.196 S 
HETATM   12  O4  UNL     1      22.199   6.033  32.306  1.00  0.00    -0.218 OA
HETATM   13  O5  UNL     1      22.315   5.361  29.921  1.00  0.00    -0.218 OA
BRANCH  11  14
HETATM   14  C16 UNL     1      24.600   5.545  31.248  1.00  0.00     0.114 C 
HETATM   15  C17 UNL     1      25.070   4.634  30.438  1.00  0.00     0.043 C 
BRANCH  15  16
HETATM   16  C18 UNL     1      26.463   4.098  30.627  1.00  0.00     0.207 C 
HETATM   17 CL1  UNL     1      27.568   5.493  30.881  1.00  0.00    -0.079 Cl
HETATM   18 CL2  UNL     1      26.947   3.290  29.118  1.00  0.00    -0.079 Cl
HETATM   19 CL3  UNL     1      26.508   3.016  32.011  1.00  0.00    -0.079 Cl
ENDBRANCH  15  16
ENDBRANCH  11  14
ENDBRANCH   8  11
ENDBRANCH   3   5
BRANCH   1  20
HETATM   20  C2  UNL     1      24.197  14.342  29.736  1.00  0.00     0.175 C 
HETATM   21  C1  UNL     1      24.571  14.439  28.234  1.00  0.00     0.042 C 
BRANCH  20  22
HETATM   22  N1  UNL     1      22.861  14.830  29.894  1.00  0.00    -0.324 N 
HETATM   23  C3  UNL     1      22.522  15.513  31.096  1.00  0.00     0.361 C 
HETATM   24  O1  UNL     1      23.341  15.693  32.005  1.00  0.00    -0.238 OA
ATOM     25  H1  UNL     1      22.166  14.692  29.161  1.00  0.00     0.165 HD
BRANCH  23  26
HETATM   26  O2  UNL     1      21.215  15.985  31.221  1.00  0.00    -0.299 OA
BRANCH  26  27
HETATM   27  C4  UNL     1      20.163  15.111  30.899  1.00  0.00     0.219 C 
BRANCH  27  28
HETATM   28  C5  UNL     1      19.880  14.215  32.044  1.00  0.00    -0.034 A 
HETATM   29  C6  UNL     1      20.752  13.178  32.351  1.00  0.00     0.009 A 
HETATM   30  C7  UNL     1      20.520  12.350  33.406  1.00  0.00     0.001 A 
HETATM   31  C8  UNL     1      19.402  12.513  34.211  1.00  0.00     0.000 A 
HETATM   32  C9  UNL     1      18.542  13.539  33.903  1.00  0.00     0.001 A 
HETATM   33  C10 UNL     1      18.766  14.367  32.856  1.00  0.00     0.009 A 
ENDBRANCH  27  28
ENDBRANCH  26  27
ENDBRANCH  23  26
ENDBRANCH  20  22
ENDBRANCH   1  20
TORSDOF 9
ENDMDL
MODEL 5
REMARK VINA RESULT: -7.876394943      4.875      8.385
REMARK  9 active torsions:
REMARK  status: ('A' for Active; 'I' for Inactive)
REMARK    1  A    between atoms: C2_2  and  N1_3 
REMARK    2  A    between atoms: C2_2  and  C11_15 
REMARK       I    between atoms: N1_3  and  C3_5 
REMARK    3  A    between atoms: C3_5  and  O2_7 
REMARK    4  A    between atoms: O2_7  and  C4_8 
REMARK    5  A    between atoms: C4_8  and  C5_9 
REMARK       I    between atoms: C11_15  and  N2_17 
REMARK    6  A    between atoms: N2_17  and  C12_19 
REMARK    7  A    between atoms: C15_22  and  S1_23 
REMARK    8  A    between atoms: S1_23  and  C16_26 
REMARK    9  A    between atoms: C17_27  and  C18_28 
ROOT
HETATM    1  C11 UNL     1      24.907  10.280  28.958  1.00  0.00     0.244 C 
HETATM    2  O3  UNL     1      24.809  10.830  27.840  1.00  0.00    -0.271 OA
HETATM    3  N2  UNL     1      24.669  10.978  30.142  1.00  0.00    -0.325 N 
ATOM      4  H2  UNL     1      24.794  10.444  31.003  1.00  0.00     0.169 HD
ENDROOT
BRANCH   3   5
HETATM    5  C12 UNL     1      24.279  12.324  30.308  1.00  0.00     0.034 A 
HETATM    6  C13 UNL     1      25.114  13.390  30.174  1.00  0.00     0.031 A 
HETATM    7  C14 UNL     1      24.651  14.703  30.331  1.00  0.00     0.026 A 
HETATM    8  C15 UNL     1      23.334  14.956  30.625  1.00  0.00     0.063 A 
HETATM    9  C19 UNL     1      22.508  13.874  30.759  1.00  0.00     0.026 A 
HETATM   10  C20 UNL     1      22.929  12.578  30.613  1.00  0.00     0.031 A 
BRANCH   8  11
HETATM   11  S1  UNL     1      22.696  16.594  30.804  1.00  0.00     0.196 S 
HETATM   12  O4  UNL     1      21.183  16.528  30.894  1.00  0.00    -0.218 OA
HETATM   13  O5  UNL     1      23.278  17.265  32.000  1.00  0.00    -0.218 OA
BRANCH  11  14
HETATM   14  C16 UNL     1      23.141  17.506  29.366  1.00  0.00     0.114 C 
HETATM   15  C17 UNL     1      23.933  18.538  29.485  1.00  0.00     0.043 C 
BRANCH  15  16
HETATM   16  C18 UNL     1      24.328  19.335  28.272  1.00  0.00     0.207 C 
HETATM   17 CL1  UNL     1      26.013  19.913  28.507  1.00  0.00    -0.079 Cl
HETATM   18 CL2  UNL     1      23.271  20.763  28.189  1.00  0.00    -0.079 Cl
HETATM   19 CL3  UNL     1      24.215  18.333  26.832  1.00  0.00    -0.079 Cl
ENDBRANCH  15  16
ENDBRANCH  11  14
ENDBRANCH   8  11
ENDBRANCH   3   5
BRANCH   1  20
HETATM   20  C2  UNL     1      25.284   8.824  29.009  1.00  0.00     0.175 C 
HETATM   21  C1  UNL     1      26.829   8.825  28.871  1.00  0.00     0.042 C 
BRANCH  20  22
HETATM   22  N1  UNL     1      24.948   8.193  30.248  1.00  0.00    -0.324 N 
HETATM   23  C3  UNL     1      24.099   7.050  30.223  1.00  0.00     0.361 C 
HETATM   24  O1  UNL     1      23.643   6.592  29.170  1.00  0.00    -0.238 OA
ATOM     25  H1  UNL     1      25.310   8.553  31.131  1.00  0.00     0.165 HD
BRANCH  23  26
HETATM   26  O2  UNL     1      23.794   6.449  31.445  1.00  0.00    -0.299 OA
BRANCH  26  27
HETATM   27  C4  UNL     1      22.445   6.185  31.734  1.00  0.00     0.219 C 
BRANCH  27  28
HETATM   28  C5  UNL     1      21.729   7.450  32.015  1.00  0.00    -0.034 A 
HETATM   29  C6  UNL     1      20.385   7.578  31.686  1.00  0.00     0.009 A 
HETATM   30  C7  UNL     1      19.702   8.727  31.947  1.00  0.00     0.001 A 
HETATM   31  C8  UNL     1      20.325   9.809  32.548  1.00  0.00     0.000 A 
HETATM   32  C9  UNL     1      21.654   9.678  32.871  1.00  0.00     0.001 A 
HETATM   33  C10 UNL     1      22.340   8.540  32.615  1.00  0.00     0.009 A 
ENDBRANCH  27  28
ENDBRANCH  26  27
ENDBRANCH  23  26
ENDBRANCH  20  22
ENDBRANCH   1  20
TORSDOF 9
ENDMDL
