MODEL 1
REMARK VINA RESULT: -8.879546421      0.000      0.000
REMARK  9 active torsions:
REMARK  status: ('A' for Active; 'I' for Inactive)
REMARK    1  A    between atoms: C1_4  and  C2_5 
REMARK    2  A    between atoms: C1_4  and  N2_8 
REMARK    3  A    between atoms: N2_8  and  C3_9 
REMARK    4  A    between atoms: N2_8  and  S1_27 
REMARK    5  A    between atoms: C3_9  and  C4_10 
REMARK       I    between atoms: C4_10  and  N3_12 
REMARK    6  A    between atoms: N3_12  and  C5_14 
REMARK    7  A    between atoms: C10_19  and  O2_20 
REMARK    8  A    between atoms: O2_20  and  C11_21 
REMARK    9  A    between atoms: S1_27  and  C17_30 
ROOT
HETATM    1  C3  UNL     1      24.588  12.688  31.074  1.00  0.00     0.246 C 
ENDROOT
BRANCH   1   2
HETATM    2  N2  UNL     1      24.312  13.900  30.353  1.00  0.00    -0.250 N 
BRANCH   2   3
HETATM    3  C1  UNL     1      24.575  13.913  28.937  1.00  0.00     0.121 C 
HETATM    4  N1  UNL     1      23.683  14.387  28.118  1.00  0.00    -0.386 N 
ATOM      5  H12 UNL     1      23.869  14.396  27.115  1.00  0.00     0.157 HD
ATOM      6  H11 UNL     1      22.810  14.739  28.509  1.00  0.00     0.157 HD
BRANCH   3   7
HETATM    7  C2  UNL     1      25.840  13.402  28.370  1.00  0.00     0.245 C 
HETATM    8 CL1  UNL     1      25.559  11.821  27.622  1.00  0.00    -0.100 Cl
HETATM    9 CL2  UNL     1      26.350  14.498  27.039  1.00  0.00    -0.100 Cl
ENDBRANCH   3   7
ENDBRANCH   2   3
BRANCH   2  10
HETATM   10  S1  UNL     1      23.702  15.283  31.170  1.00  0.00     0.266 S 
HETATM   11  O3  UNL     1      24.368  16.493  30.533  1.00  0.00    -0.200 OA
HETATM   12  O4  UNL     1      24.188  15.264  32.601  1.00  0.00    -0.200 OA
BRANCH  10  13
HETATM   13  C17 UNL     1      21.971  15.430  31.092  1.00  0.00     0.080 A 
HETATM   14  C18 UNL     1      21.365  16.531  30.488  1.00  0.00     0.025 A 
HETATM   15  C19 UNL     1      19.991  16.636  30.433  1.00  0.00     0.002 A 
HETATM   16  C20 UNL     1      19.160  15.674  30.965  1.00  0.00     0.000 A 
HETATM   17  C21 UNL     1      19.754  14.583  31.564  1.00  0.00     0.002 A 
HETATM   18  C22 UNL     1      21.121  14.477  31.619  1.00  0.00     0.025 A 
ENDBRANCH  10  13
ENDBRANCH   2  10
ENDBRANCH   1   2
BRANCH   1  19
HETATM   19  C4  UNL     1      23.458  11.686  30.933  1.00  0.00     0.241 C 
HETATM   20  O1  UNL     1      22.800  11.736  29.899  1.00  0.00    -0.271 OA
HETATM   21  N3  UNL     1      23.264  10.796  31.988  1.00  0.00    -0.323 N 
ATOM     22  H3  UNL     1      23.891  10.858  32.790  1.00  0.00     0.169 HD
BRANCH  21  23
HETATM   23  C5  UNL     1      22.244   9.806  32.009  1.00  0.00     0.069 A 
HETATM   24  C6  UNL     1      22.362   8.576  31.400  1.00  0.00     0.032 A 
HETATM   25  C7  UNL     1      21.250   7.725  31.403  1.00  0.00     0.002 A 
HETATM   26  C8  UNL     1      20.054   8.072  31.988  1.00  0.00     0.003 A 
HETATM   27  C9  UNL     1      19.935   9.300  32.598  1.00  0.00     0.039 A 
HETATM   28  C10 UNL     1      21.033  10.168  32.611  1.00  0.00     0.102 A 
BRANCH  28  29
HETATM   29  O2  UNL     1      20.920  11.402  33.226  1.00  0.00    -0.309 OA
BRANCH  29  30
HETATM   30  C11 UNL     1      20.120  11.676  34.320  1.00  0.00     0.076 A 
HETATM   31  C12 UNL     1      19.085  12.582  34.226  1.00  0.00     0.037 A 
HETATM   32  C13 UNL     1      18.258  12.898  35.262  1.00  0.00     0.003 A 
HETATM   33  C14 UNL     1      18.434  12.299  36.488  1.00  0.00     0.000 A 
HETATM   34  C15 UNL     1      19.458  11.387  36.623  1.00  0.00     0.003 A 
HETATM   35  C16 UNL     1      20.283  11.078  35.571  1.00  0.00     0.037 A 
ENDBRANCH  29  30
ENDBRANCH  28  29
ENDBRANCH  21  23
ENDBRANCH   1  19
TORSDOF 9
ENDMDL
MODEL 2
REMARK VINA RESULT: -8.848260439      2.435      4.729
REMARK  9 active torsions:
REMARK  status: ('A' for Active; 'I' for Inactive)
REMARK    1  A    between atoms: C1_4  and  C2_5 
REMARK    2  A    between atoms: C1_4  and  N2_8 
REMARK    3  A    between atoms: N2_8  and  C3_9 
REMARK    4  A    between atoms: N2_8  and  S1_27 
REMARK    5  A    between atoms: C3_9  and  C4_10 
REMARK       I    between atoms: C4_10  and  N3_12 
REMARK    6  A    between atoms: N3_12  and  C5_14 
REMARK    7  A    between atoms: C10_19  and  O2_20 
REMARK    8  A    between atoms: O2_20  and  C11_21 
REMARK    9  A    between atoms: S1_27  and  C17_30 
ROOT
HETATM    1  C3  UNL     1      20.128  14.943  30.381  1.00  0.00     0.246 C 
ENDROOT
BRANCH   1   2
HETATM    2  N2  UNL     1      21.549  15.141  30.316  1.00  0.00    -0.250 N 
BRANCH   2   3
HETATM    3  C1  UNL     1      22.367  14.017  29.939  1.00  0.00     0.121 C 
HETATM    4  N1  UNL     1      22.556  13.747  28.682  1.00  0.00    -0.386 N 
ATOM      5  H12 UNL     1      23.135  12.951  28.415  1.00  0.00     0.157 HD
ATOM      6  H11 UNL     1      22.111  14.348  27.989  1.00  0.00     0.157 HD
BRANCH   3   7
HETATM    7  C2  UNL     1      23.012  13.145  30.943  1.00  0.00     0.245 C 
HETATM    8 CL1  UNL     1      23.113  11.492  30.315  1.00  0.00    -0.100 Cl
HETATM    9 CL2  UNL     1      24.708  13.696  31.169  1.00  0.00    -0.100 Cl
ENDBRANCH   3   7
ENDBRANCH   2   3
BRANCH   2  10
HETATM   10  S1  UNL     1      22.236  16.671  30.693  1.00  0.00     0.266 S 
HETATM   11  O3  UNL     1      22.917  16.521  32.044  1.00  0.00    -0.200 OA
HETATM   12  O4  UNL     1      21.124  17.670  30.912  1.00  0.00    -0.200 OA
BRANCH  10  13
HETATM   13  C17 UNL     1      23.369  17.237  29.500  1.00  0.00     0.080 A 
HETATM   14  C18 UNL     1      24.697  16.813  29.505  1.00  0.00     0.025 A 
HETATM   15  C19 UNL     1      25.585  17.270  28.554  1.00  0.00     0.002 A 
HETATM   16  C20 UNL     1      25.211  18.155  27.567  1.00  0.00     0.000 A 
HETATM   17  C21 UNL     1      23.898  18.578  27.557  1.00  0.00     0.002 A 
HETATM   18  C22 UNL     1      23.014  18.124  28.503  1.00  0.00     0.025 A 
ENDBRANCH  10  13
ENDBRANCH   2  10
ENDBRANCH   1   2
BRANCH   1  19
HETATM   19  C4  UNL     1      19.674  14.613  31.790  1.00  0.00     0.241 C 
HETATM   20  O1  UNL     1      19.199  15.533  32.447  1.00  0.00    -0.271 OA
HETATM   21  N3  UNL     1      19.836  13.296  32.217  1.00  0.00    -0.323 N 
ATOM     22  H3  UNL     1      20.241  12.626  31.564  1.00  0.00     0.169 HD
BRANCH  21  23
HETATM   23  C5  UNL     1      19.469  12.834  33.510  1.00  0.00     0.069 A 
HETATM   24  C6  UNL     1      18.499  13.430  34.286  1.00  0.00     0.032 A 
HETATM   25  C7  UNL     1      18.297  12.946  35.584  1.00  0.00     0.002 A 
HETATM   26  C8  UNL     1      19.029  11.904  36.108  1.00  0.00     0.003 A 
HETATM   27  C9  UNL     1      19.998  11.307  35.332  1.00  0.00     0.039 A 
HETATM   28  C10 UNL     1      20.217  11.771  34.031  1.00  0.00     0.102 A 
BRANCH  28  29
HETATM   29  O2  UNL     1      21.186  11.172  33.248  1.00  0.00    -0.309 OA
BRANCH  29  30
HETATM   30  C11 UNL     1      21.157   9.862  32.807  1.00  0.00     0.076 A 
HETATM   31  C12 UNL     1      20.003   9.320  32.284  1.00  0.00     0.037 A 
HETATM   32  C13 UNL     1      19.905   8.039  31.829  1.00  0.00     0.003 A 
HETATM   33  C14 UNL     1      20.999   7.208  31.879  1.00  0.00     0.000 A 
HETATM   34  C15 UNL     1      22.174   7.712  32.396  1.00  0.00     0.003 A 
HETATM   35  C16 UNL     1      22.258   9.004  32.849  1.00  0.00     0.037 A 
ENDBRANCH  29  30
ENDBRANCH  28  29
ENDBRANCH  21  23
ENDBRANCH   1  19
TORSDOF 9
ENDMDL
MODEL 3
REMARK VINA RESULT: -8.753721232      2.265      4.558
REMARK  9 active torsions:
REMARK  status: ('A' for Active; 'I' for Inactive)
REMARK    1  A    between atoms: C1_4  and  C2_5 
REMARK    2  A    between atoms: C1_4  and  N2_8 
REMARK    3  A    between atoms: N2_8  and  C3_9 
REMARK    4  A    between atoms: N2_8  and  S1_27 
REMARK    5  A    between atoms: C3_9  and  C4_10 
REMARK       I    between atoms: C4_10  and  N3_12 
REMARK    6  A    between atoms: N3_12  and  C5_14 
REMARK    7  A    between atoms: C10_19  and  O2_20 
REMARK    8  A    between atoms: O2_20  and  C11_21 
REMARK    9  A    between atoms: S1_27  and  C17_30 
ROOT
HETATM    1  C3  UNL     1      22.755  13.821  30.271  1.00  0.00     0.246 C 
ENDROOT
BRANCH   1   2
HETATM    2  N2  UNL     1      23.971  13.068  30.408  1.00  0.00    -0.250 N 
BRANCH   2   3
HETATM    3  C1  UNL     1      23.867  11.632  30.462  1.00  0.00     0.121 C 
HETATM    4  N1  UNL     1      24.170  11.003  31.559  1.00  0.00    -0.386 N 
ATOM      5  H12 UNL     1      24.097   9.986  31.597  1.00  0.00     0.157 HD
ATOM      6  H11 UNL     1      24.478  11.553  32.360  1.00  0.00     0.157 HD
BRANCH   3   7
HETATM    7  C2  UNL     1      23.420  10.834  29.301  1.00  0.00     0.245 C 
HETATM    8 CL1  UNL     1      24.729  10.735  28.112  1.00  0.00    -0.100 Cl
HETATM    9 CL2  UNL     1      23.120   9.149  29.852  1.00  0.00    -0.100 Cl
ENDBRANCH   3   7
ENDBRANCH   2   3
BRANCH   2  10
HETATM   10  S1  UNL     1      25.487  13.868  30.517  1.00  0.00     0.266 S 
HETATM   11  O3  UNL     1      26.282  13.462  29.286  1.00  0.00    -0.200 OA
HETATM   12  O4  UNL     1      26.256  13.310  31.693  1.00  0.00    -0.200 OA
BRANCH  10  13
HETATM   13  C17 UNL     1      25.355  15.599  30.613  1.00  0.00     0.080 A 
HETATM   14  C18 UNL     1      25.387  16.392  29.466  1.00  0.00     0.025 A 
HETATM   15  C19 UNL     1      25.281  17.764  29.556  1.00  0.00     0.002 A 
HETATM   16  C20 UNL     1      25.143  18.411  30.765  1.00  0.00     0.000 A 
HETATM   17  C21 UNL     1      25.111  17.632  31.902  1.00  0.00     0.002 A 
HETATM   18  C22 UNL     1      25.215  16.267  31.814  1.00  0.00     0.025 A 
ENDBRANCH  10  13
ENDBRANCH   2  10
ENDBRANCH   1   2
BRANCH   1  19
HETATM   19  C4  UNL     1      21.972  13.858  31.569  1.00  0.00     0.241 C 
HETATM   20  O1  UNL     1      22.341  14.667  32.415  1.00  0.00    -0.271 OA
HETATM   21  N3  UNL     1      20.903  12.972  31.690  1.00  0.00    -0.323 N 
ATOM     22  H3  UNL     1      20.698  12.355  30.904  1.00  0.00     0.169 HD
BRANCH  21  23
HETATM   23  C5  UNL     1      20.081  12.881  32.846  1.00  0.00     0.069 A 
HETATM   24  C6  UNL     1      19.093  13.790  33.154  1.00  0.00     0.032 A 
HETATM   25  C7  UNL     1      18.417  13.650  34.373  1.00  0.00     0.002 A 
HETATM   26  C8  UNL     1      18.705  12.643  35.266  1.00  0.00     0.003 A 
HETATM   27  C9  UNL     1      19.691  11.733  34.959  1.00  0.00     0.039 A 
HETATM   28  C10 UNL     1      20.378  11.850  33.746  1.00  0.00     0.102 A 
BRANCH  28  29
HETATM   29  O2  UNL     1      21.367  10.936  33.432  1.00  0.00    -0.309 OA
BRANCH  29  30
HETATM   30  C11 UNL     1      21.147   9.652  32.968  1.00  0.00     0.076 A 
HETATM   31  C12 UNL     1      22.033   8.637  33.258  1.00  0.00     0.037 A 
HETATM   32  C13 UNL     1      21.877   7.350  32.836  1.00  0.00     0.003 A 
HETATM   33  C14 UNL     1      20.784   7.006  32.075  1.00  0.00     0.000 A 
HETATM   34  C15 UNL     1      19.873   7.993  31.763  1.00  0.00     0.003 A 
HETATM   35  C16 UNL     1      20.044   9.284  32.195  1.00  0.00     0.037 A 
ENDBRANCH  29  30
ENDBRANCH  28  29
ENDBRANCH  21  23
ENDBRANCH   1  19
TORSDOF 9
ENDMDL
MODEL 4
REMARK VINA RESULT: -8.665931348      2.356      5.063
REMARK  9 active torsions:
REMARK  status: ('A' for Active; 'I' for Inactive)
REMARK    1  A    between atoms: C1_4  and  C2_5 
REMARK    2  A    between atoms: C1_4  and  N2_8 
REMARK    3  A    between atoms: N2_8  and  C3_9 
REMARK    4  A    between atoms: N2_8  and  S1_27 
REMARK    5  A    between atoms: C3_9  and  C4_10 
REMARK       I    between atoms: C4_10  and  N3_12 
REMARK    6  A    between atoms: N3_12  and  C5_14 
REMARK    7  A    between atoms: C10_19  and  O2_20 
REMARK    8  A    between atoms: O2_20  and  C11_21 
REMARK    9  A    between atoms: S1_27  and  C17_30 
ROOT
HETATM    1  C3  UNL     1      22.746  13.901  30.284  1.00  0.00     0.246 C 
ENDROOT
BRANCH   1   2
HETATM    2  N2  UNL     1      24.126  14.280  30.413  1.00  0.00    -0.250 N 
BRANCH   2   3
HETATM    3  C1  UNL     1      24.442  15.685  30.384  1.00  0.00     0.121 C 
HETATM    4  N1  UNL     1      25.595  16.097  30.822  1.00  0.00    -0.386 N 
ATOM      5  H12 UNL     1      25.819  17.092  30.801  1.00  0.00     0.157 HD
ATOM      6  H11 UNL     1      26.250  15.403  31.179  1.00  0.00     0.157 HD
BRANCH   3   7
HETATM    7  C2  UNL     1      23.492  16.691  29.866  1.00  0.00     0.245 C 
HETATM    8 CL1  UNL     1      22.960  17.740  31.190  1.00  0.00    -0.100 Cl
HETATM    9 CL2  UNL     1      24.366  17.754  28.709  1.00  0.00    -0.100 Cl
ENDBRANCH   3   7
ENDBRANCH   2   3
BRANCH   2  10
HETATM   10  S1  UNL     1      25.348  13.083  30.583  1.00  0.00     0.266 S 
HETATM   11  O3  UNL     1      25.990  13.306  31.943  1.00  0.00    -0.200 OA
HETATM   12  O4  UNL     1      26.441  13.349  29.574  1.00  0.00    -0.200 OA
BRANCH  10  13
HETATM   13  C17 UNL     1      24.750  11.455  30.452  1.00  0.00     0.080 A 
HETATM   14  C18 UNL     1      25.105  10.478  31.381  1.00  0.00     0.025 A 
HETATM   15  C19 UNL     1      24.625   9.190  31.266  1.00  0.00     0.002 A 
HETATM   16  C20 UNL     1      23.783   8.810  30.242  1.00  0.00     0.000 A 
HETATM   17  C21 UNL     1      23.429   9.773  29.321  1.00  0.00     0.002 A 
HETATM   18  C22 UNL     1      23.906  11.054  29.434  1.00  0.00     0.025 A 
ENDBRANCH  10  13
ENDBRANCH   2  10
ENDBRANCH   1   2
BRANCH   1  19
HETATM   19  C4  UNL     1      22.062  13.815  31.635  1.00  0.00     0.241 C 
HETATM   20  O1  UNL     1      22.604  14.400  32.567  1.00  0.00    -0.271 OA
HETATM   21  N3  UNL     1      20.879  13.081  31.701  1.00  0.00    -0.323 N 
ATOM     22  H3  UNL     1      20.533  12.649  30.844  1.00  0.00     0.169 HD
BRANCH  21  23
HETATM   23  C5  UNL     1      20.128  12.900  32.894  1.00  0.00     0.069 A 
HETATM   24  C6  UNL     1      19.156  13.777  33.324  1.00  0.00     0.032 A 
HETATM   25  C7  UNL     1      18.555  13.545  34.567  1.00  0.00     0.002 A 
HETATM   26  C8  UNL     1      18.900  12.480  35.368  1.00  0.00     0.003 A 
HETATM   27  C9  UNL     1      19.870  11.602  34.939  1.00  0.00     0.039 A 
HETATM   28  C10 UNL     1      20.483  11.811  33.699  1.00  0.00     0.102 A 
BRANCH  28  29
HETATM   29  O2  UNL     1      21.456  10.930  33.262  1.00  0.00    -0.309 OA
BRANCH  29  30
HETATM   30  C11 UNL     1      21.227   9.628  32.855  1.00  0.00     0.076 A 
HETATM   31  C12 UNL     1      21.984   8.591  33.354  1.00  0.00     0.037 A 
HETATM   32  C13 UNL     1      21.811   7.286  32.999  1.00  0.00     0.003 A 
HETATM   33  C14 UNL     1      20.835   6.946  32.092  1.00  0.00     0.000 A 
HETATM   34  C15 UNL     1      20.054   7.955  31.569  1.00  0.00     0.003 A 
HETATM   35  C16 UNL     1      20.240   9.264  31.937  1.00  0.00     0.037 A 
ENDBRANCH  29  30
ENDBRANCH  28  29
ENDBRANCH  21  23
ENDBRANCH   1  19
TORSDOF 9
ENDMDL
MODEL 5
REMARK VINA RESULT: -8.626075130      2.487      4.684
REMARK  9 active torsions:
REMARK  status: ('A' for Active; 'I' for Inactive)
REMARK    1  A    between atoms: C1_4  and  C2_5 
REMARK    2  A    between atoms: C1_4  and  N2_8 
REMARK    3  A    between atoms: N2_8  and  C3_9 
REMARK    4  A    between atoms: N2_8  and  S1_27 
REMARK    5  A    between atoms: C3_9  and  C4_10 
REMARK       I    between atoms: C4_10  and  N3_12 
REMARK    6  A    between atoms: N3_12  and  C5_14 
REMARK    7  A    between atoms: C10_19  and  O2_20 
REMARK    8  A    between atoms: O2_20  and  C11_21 
REMARK    9  A    between atoms: S1_27  and  C17_30 
ROOT
HETATM    1  C3  UNL     1      20.777  14.915  30.576  1.00  0.00     0.246 C 
ENDROOT
BRANCH   1   2
HETATM    2  N2  UNL     1      22.087  15.435  30.301  1.00  0.00    -0.250 N 
BRANCH   2   3
HETATM    3  C1  UNL     1      23.067  14.531  29.755  1.00  0.00     0.121 C 
HETATM    4  N1  UNL     1      22.925  14.078  28.545  1.00  0.00    -0.386 N 
ATOM      5  H12 UNL     1      23.618  13.438  28.158  1.00  0.00     0.157 HD
ATOM      6  H11 UNL     1      22.111  14.380  28.011  1.00  0.00     0.157 HD
BRANCH   3   7
HETATM    7  C2  UNL     1      24.247  14.093  30.529  1.00  0.00     0.245 C 
HETATM    8 CL1  UNL     1      24.048  12.398  31.003  1.00  0.00    -0.100 Cl
HETATM    9 CL2  UNL     1      25.684  14.143  29.451  1.00  0.00    -0.100 Cl
ENDBRANCH   3   7
ENDBRANCH   2   3
BRANCH   2  10
HETATM   10  S1  UNL     1      22.462  17.079  30.632  1.00  0.00     0.266 S 
HETATM   11  O3  UNL     1      23.144  17.105  31.991  1.00  0.00    -0.200 OA
HETATM   12  O4  UNL     1      21.176  17.852  30.813  1.00  0.00    -0.200 OA
BRANCH  10  13
HETATM   13  C17 UNL     1      23.478  17.817  29.428  1.00  0.00     0.080 A 
HETATM   14  C18 UNL     1      24.844  17.996  29.644  1.00  0.00     0.025 A 
HETATM   15  C19 UNL     1      25.638  18.583  28.682  1.00  0.00     0.002 A 
HETATM   16  C20 UNL     1      25.130  19.015  27.476  1.00  0.00     0.000 A 
HETATM   17  C21 UNL     1      23.780  18.840  27.256  1.00  0.00     0.002 A 
HETATM   18  C22 UNL     1      22.988  18.257  28.213  1.00  0.00     0.025 A 
ENDBRANCH  10  13
ENDBRANCH   2  10
ENDBRANCH   1   2
BRANCH   1  19
HETATM   19  C4  UNL     1      20.701  14.298  31.960  1.00  0.00     0.241 C 
HETATM   20  O1  UNL     1      21.655  14.492  32.705  1.00  0.00    -0.271 OA
HETATM   21  N3  UNL     1      19.555  13.564  32.265  1.00  0.00    -0.323 N 
ATOM     22  H3  UNL     1      18.830  13.487  31.552  1.00  0.00     0.169 HD
BRANCH  21  23
HETATM   23  C5  UNL     1      19.340  12.919  33.512  1.00  0.00     0.069 A 
HETATM   24  C6  UNL     1      18.540  13.432  34.509  1.00  0.00     0.032 A 
HETATM   25  C7  UNL     1      18.487  12.755  35.734  1.00  0.00     0.002 A 
HETATM   26  C8  UNL     1      19.201  11.603  35.973  1.00  0.00     0.003 A 
HETATM   27  C9  UNL     1      20.000  11.088  34.977  1.00  0.00     0.039 A 
HETATM   28  C10 UNL     1      20.068  11.745  33.745  1.00  0.00     0.102 A 
BRANCH  28  29
HETATM   29  O2  UNL     1      20.867  11.230  32.740  1.00  0.00    -0.309 OA
BRANCH  29  30
HETATM   30  C11 UNL     1      21.013   9.886  32.449  1.00  0.00     0.076 A 
HETATM   31  C12 UNL     1      22.257   9.293  32.468  1.00  0.00     0.037 A 
HETATM   32  C13 UNL     1      22.474   7.975  32.194  1.00  0.00     0.003 A 
HETATM   33  C14 UNL     1      21.414   7.157  31.877  1.00  0.00     0.000 A 
HETATM   34  C15 UNL     1      20.152   7.712  31.847  1.00  0.00     0.003 A 
HETATM   35  C16 UNL     1      19.950   9.041  32.126  1.00  0.00     0.037 A 
ENDBRANCH  29  30
ENDBRANCH  28  29
ENDBRANCH  21  23
ENDBRANCH   1  19
TORSDOF 9
ENDMDL
