MODEL 1
REMARK VINA RESULT: -8.782137656      0.000      0.000
REMARK  12 active torsions:
REMARK  status: ('A' for Active; 'I' for Inactive)
REMARK    1  A    between atoms: C2_2  and  C5_5 
REMARK    2  A    between atoms: C5_5  and  C6_6 
REMARK    3  A    between atoms: C8_12  and  N3_13 
REMARK    4  A    between atoms: N3_13  and  C9_15 
REMARK    5  A    between atoms: C9_15  and  C10_16 
REMARK    6  A    between atoms: C10_16  and  C11_17 
REMARK    7  A    between atoms: C10_16  and  N4_26 
REMARK    8  A    between atoms: C11_17  and  C12_18 
REMARK    9  A    between atoms: C12_18  and  C13_20 
REMARK       I    between atoms: N4_26  and  C19_28 
REMARK   10  A    between atoms: C19_28  and  O3_30 
REMARK   11  A    between atoms: O3_30  and  C20_31 
REMARK   12  A    between atoms: C24_35  and  C25_36 
ROOT
HETATM    1  C9  UNL     1      22.428  14.288  31.839  1.00  0.00     0.147 C 
ENDROOT
BRANCH   1   2
HETATM    2  N3  UNL     1      22.239  12.931  31.380  1.00  0.00    -0.374 N 
ATOM      3  H3  UNL     1      21.314  12.593  31.111  1.00  0.00     0.161 HD
BRANCH   2   4
HETATM    4  C8  UNL     1      23.289  12.147  31.317  1.00  0.00     0.116 A 
HETATM    5  N2  UNL     1      24.466  12.702  30.984  1.00  0.00    -0.338 N 
HETATM    6  C7  UNL     1      25.547  11.914  30.936  1.00  0.00     0.182 A 
ATOM      7  H2  UNL     1      24.535  13.698  30.773  1.00  0.00     0.168 HD
HETATM    8  N1  UNL     1      25.417  10.641  31.216  1.00  0.00    -0.355 N 
HETATM    9  C6  UNL     1      24.244  10.005  31.567  1.00  0.00     0.026 A 
ATOM     10  H1  UNL     1      26.260  10.068  31.170  1.00  0.00     0.166 HD
HETATM   11  C24 UNL     1      23.133  10.795  31.617  1.00  0.00     0.079 A 
BRANCH   9  12
HETATM   12  C5  UNL     1      24.422   8.618  31.926  1.00  0.00     0.066 C 
BRANCH  12  13
HETATM   13  C2  UNL     1      24.497   7.630  30.802  1.00  0.00    -0.046 C 
HETATM   14  C1  UNL     1      23.481   6.507  31.090  1.00  0.00     0.015 C 
HETATM   15  C3  UNL     1      24.232   8.086  29.429  1.00  0.00     0.015 C 
HETATM   16  C4  UNL     1      25.854   6.921  30.798  1.00  0.00     0.015 C 
ENDBRANCH  12  13
ENDBRANCH   9  12
BRANCH  11  17
HETATM   17  C25 UNL     1      21.820  10.246  31.889  1.00  0.00     0.272 C 
HETATM   18  C26 UNL     1      21.834   9.238  33.045  1.00  0.00     0.096 C 
HETATM   19  F1  UNL     1      20.733  11.048  31.887  1.00  0.00    -0.201 F 
HETATM   20  F2  UNL     1      21.551   9.382  30.781  1.00  0.00    -0.201 F 
ENDBRANCH  11  17
ENDBRANCH   2   4
ENDBRANCH   1   2
BRANCH   1  21
HETATM   21  C10 UNL     1      21.367  15.251  31.368  1.00  0.00     0.111 C 
BRANCH  21  22
HETATM   22  C11 UNL     1      20.064  14.574  31.229  1.00  0.00     0.110 C 
BRANCH  22  23
HETATM   23  C12 UNL     1      19.002  15.097  32.114  1.00  0.00     0.161 C 
HETATM   24  O1  UNL     1      18.334  16.129  31.855  1.00  0.00    -0.292 OA
BRANCH  23  25
HETATM   25  C13 UNL     1      18.712  14.389  33.342  1.00  0.00     0.010 A 
HETATM   26  C14 UNL     1      19.213  13.143  33.570  1.00  0.00     0.015 A 
HETATM   27  C15 UNL     1      18.944  12.457  34.738  1.00  0.00     0.001 A 
HETATM   28  C16 UNL     1      18.148  13.069  35.682  1.00  0.00     0.000 A 
HETATM   29  C17 UNL     1      17.625  14.323  35.488  1.00  0.00     0.001 A 
HETATM   30  C18 UNL     1      17.918  14.984  34.297  1.00  0.00     0.015 A 
ENDBRANCH  23  25
ENDBRANCH  22  23
ENDBRANCH  21  22
BRANCH  21  31
HETATM   31  N4  UNL     1      21.828  15.922  30.196  1.00  0.00    -0.330 N 
HETATM   32  C19 UNL     1      21.797  17.344  30.179  1.00  0.00     0.361 C 
HETATM   33  O2  UNL     1      21.382  18.004  31.183  1.00  0.00    -0.238 OA
ATOM     34  H4  UNL     1      22.171  15.397  29.391  1.00  0.00     0.165 HD
BRANCH  32  35
HETATM   35  O3  UNL     1      22.198  18.110  29.116  1.00  0.00    -0.294 OA
BRANCH  35  36
HETATM   36  C20 UNL     1      23.529  18.385  28.777  1.00  0.00     0.061 C 
HETATM   37  C21 UNL     1      23.561  19.836  28.286  1.00  0.00     0.046 C 
HETATM   38  C22 UNL     1      24.492  18.330  29.934  1.00  0.00     0.046 C 
HETATM   39  C23 UNL     1      24.078  17.530  27.686  1.00  0.00     0.046 C 
ENDBRANCH  35  36
ENDBRANCH  32  35
ENDBRANCH  21  31
ENDBRANCH   1  21
TORSDOF 12
ENDMDL
MODEL 2
REMARK VINA RESULT: -8.702742875      0.825      1.346
REMARK  12 active torsions:
REMARK  status: ('A' for Active; 'I' for Inactive)
REMARK    1  A    between atoms: C2_2  and  C5_5 
REMARK    2  A    between atoms: C5_5  and  C6_6 
REMARK    3  A    between atoms: C8_12  and  N3_13 
REMARK    4  A    between atoms: N3_13  and  C9_15 
REMARK    5  A    between atoms: C9_15  and  C10_16 
REMARK    6  A    between atoms: C10_16  and  C11_17 
REMARK    7  A    between atoms: C10_16  and  N4_26 
REMARK    8  A    between atoms: C11_17  and  C12_18 
REMARK    9  A    between atoms: C12_18  and  C13_20 
REMARK       I    between atoms: N4_26  and  C19_28 
REMARK   10  A    between atoms: C19_28  and  O3_30 
REMARK   11  A    between atoms: O3_30  and  C20_31 
REMARK   12  A    between atoms: C24_35  and  C25_36 
ROOT
HETATM    1  C9  UNL     1      22.629  14.202  31.831  1.00  0.00     0.147 C 
ENDROOT
BRANCH   1   2
HETATM    2  N3  UNL     1      22.281  12.807  31.689  1.00  0.00    -0.374 N 
ATOM      3  H3  UNL     1      21.536  12.393  32.251  1.00  0.00     0.161 HD
BRANCH   2   4
HETATM    4  C8  UNL     1      22.948  12.089  30.817  1.00  0.00     0.116 A 
HETATM    5  N2  UNL     1      23.785  12.732  29.985  1.00  0.00    -0.338 N 
HETATM    6  C7  UNL     1      24.484  12.006  29.105  1.00  0.00     0.182 A 
ATOM      7  H2  UNL     1      23.886  13.746  30.025  1.00  0.00     0.168 HD
HETATM    8  N1  UNL     1      24.329  10.705  29.088  1.00  0.00    -0.355 N 
HETATM    9  C6  UNL     1      23.492   9.980  29.911  1.00  0.00     0.026 A 
ATOM     10  H1  UNL     1      24.876  10.182  28.405  1.00  0.00     0.166 HD
HETATM   11  C24 UNL     1      22.769  10.707  30.812  1.00  0.00     0.079 A 
BRANCH   9  12
HETATM   12  C5  UNL     1      23.607   8.551  29.741  1.00  0.00     0.066 C 
BRANCH  12  13
HETATM   13  C2  UNL     1      24.793   7.886  30.369  1.00  0.00    -0.046 C 
HETATM   14  C1  UNL     1      25.727   7.414  29.237  1.00  0.00     0.015 C 
HETATM   15  C3  UNL     1      25.632   8.652  31.304  1.00  0.00     0.015 C 
HETATM   16  C4  UNL     1      24.376   6.595  31.078  1.00  0.00     0.015 C 
ENDBRANCH  12  13
ENDBRANCH   9  12
BRANCH  11  17
HETATM   17  C25 UNL     1      21.789  10.086  31.680  1.00  0.00     0.272 C 
HETATM   18  C26 UNL     1      22.435   9.320  32.841  1.00  0.00     0.096 C 
HETATM   19  F1  UNL     1      20.671  10.758  32.034  1.00  0.00    -0.201 F 
HETATM   20  F2  UNL     1      21.253   9.007  30.910  1.00  0.00    -0.201 F 
ENDBRANCH  11  17
ENDBRANCH   2   4
ENDBRANCH   1   2
BRANCH   1  21
HETATM   21  C10 UNL     1      21.545  15.155  31.395  1.00  0.00     0.111 C 
BRANCH  21  22
HETATM   22  C11 UNL     1      20.251  14.458  31.263  1.00  0.00     0.110 C 
BRANCH  22  23
HETATM   23  C12 UNL     1      19.156  15.036  32.070  1.00  0.00     0.161 C 
HETATM   24  O1  UNL     1      18.524  16.069  31.736  1.00  0.00    -0.292 OA
BRANCH  23  25
HETATM   25  C13 UNL     1      18.789  14.384  33.308  1.00  0.00     0.010 A 
HETATM   26  C14 UNL     1      17.953  14.986  34.199  1.00  0.00     0.015 A 
HETATM   27  C15 UNL     1      17.595  14.374  35.383  1.00  0.00     0.001 A 
HETATM   28  C16 UNL     1      18.108  13.123  35.649  1.00  0.00     0.000 A 
HETATM   29  C17 UNL     1      18.954  12.484  34.777  1.00  0.00     0.001 A 
HETATM   30  C18 UNL     1      19.293  13.134  33.592  1.00  0.00     0.015 A 
ENDBRANCH  23  25
ENDBRANCH  22  23
ENDBRANCH  21  22
BRANCH  21  31
HETATM   31  N4  UNL     1      21.977  15.856  30.228  1.00  0.00    -0.330 N 
HETATM   32  C19 UNL     1      21.836  17.270  30.204  1.00  0.00     0.361 C 
HETATM   33  O2  UNL     1      21.350  17.900  31.195  1.00  0.00    -0.238 OA
ATOM     34  H4  UNL     1      22.375  15.355  29.434  1.00  0.00     0.165 HD
BRANCH  32  35
HETATM   35  O3  UNL     1      22.198  18.062  29.145  1.00  0.00    -0.294 OA
BRANCH  35  36
HETATM   36  C20 UNL     1      23.516  18.361  28.776  1.00  0.00     0.061 C 
HETATM   37  C21 UNL     1      23.505  19.807  28.269  1.00  0.00     0.046 C 
HETATM   38  C22 UNL     1      24.502  18.341  29.914  1.00  0.00     0.046 C 
HETATM   39  C23 UNL     1      24.062  17.507  27.684  1.00  0.00     0.046 C 
ENDBRANCH  35  36
ENDBRANCH  32  35
ENDBRANCH  21  31
ENDBRANCH   1  21
TORSDOF 12
ENDMDL
MODEL 3
REMARK VINA RESULT: -8.631129629      1.829      2.565
REMARK  12 active torsions:
REMARK  status: ('A' for Active; 'I' for Inactive)
REMARK    1  A    between atoms: C2_2  and  C5_5 
REMARK    2  A    between atoms: C5_5  and  C6_6 
REMARK    3  A    between atoms: C8_12  and  N3_13 
REMARK    4  A    between atoms: N3_13  and  C9_15 
REMARK    5  A    between atoms: C9_15  and  C10_16 
REMARK    6  A    between atoms: C10_16  and  C11_17 
REMARK    7  A    between atoms: C10_16  and  N4_26 
REMARK    8  A    between atoms: C11_17  and  C12_18 
REMARK    9  A    between atoms: C12_18  and  C13_20 
REMARK       I    between atoms: N4_26  and  C19_28 
REMARK   10  A    between atoms: C19_28  and  O3_30 
REMARK   11  A    between atoms: O3_30  and  C20_31 
REMARK   12  A    between atoms: C24_35  and  C25_36 
ROOT
HETATM    1  C9  UNL     1      22.666  12.370  31.234  1.00  0.00     0.147 C 
ENDROOT
BRANCH   1   2
HETATM    2  N3  UNL     1      22.477  10.972  31.545  1.00  0.00    -0.374 N 
ATOM      3  H3  UNL     1      21.965  10.685  32.379  1.00  0.00     0.161 HD
BRANCH   2   4
HETATM    4  C8  UNL     1      22.982  10.082  30.723  1.00  0.00     0.116 A 
HETATM    5  N2  UNL     1      23.665  10.531  29.656  1.00  0.00    -0.338 N 
HETATM    6  C7  UNL     1      24.200   9.631  28.822  1.00  0.00     0.182 A 
ATOM      7  H2  UNL     1      23.773  11.531  29.487  1.00  0.00     0.168 HD
HETATM    8  N1  UNL     1      24.041   8.356  29.077  1.00  0.00    -0.355 N 
HETATM    9  C6  UNL     1      23.357   7.824  30.151  1.00  0.00     0.026 A 
ATOM     10  H1  UNL     1      24.461   7.696  28.422  1.00  0.00     0.166 HD
HETATM   11  C24 UNL     1      22.802   8.730  31.008  1.00  0.00     0.079 A 
BRANCH   9  12
HETATM   12  C5  UNL     1      23.438   6.386  30.235  1.00  0.00     0.066 C 
BRANCH  12  13
HETATM   13  C2  UNL     1      24.736   5.805  30.706  1.00  0.00    -0.046 C 
HETATM   14  C1  UNL     1      25.341   4.993  29.543  1.00  0.00     0.015 C 
HETATM   15  C3  UNL     1      25.798   6.710  31.174  1.00  0.00     0.015 C 
HETATM   16  C4  UNL     1      24.497   4.769  31.807  1.00  0.00     0.015 C 
ENDBRANCH  12  13
ENDBRANCH   9  12
BRANCH  11  17
HETATM   17  C25 UNL     1      21.985   8.314  32.130  1.00  0.00     0.272 C 
HETATM   18  C26 UNL     1      20.501   8.199  31.764  1.00  0.00     0.096 C 
HETATM   19  F1  UNL     1      22.413   7.334  32.957  1.00  0.00    -0.201 F 
HETATM   20  F2  UNL     1      21.961   9.446  33.003  1.00  0.00    -0.201 F 
ENDBRANCH  11  17
ENDBRANCH   2   4
ENDBRANCH   1   2
BRANCH   1  21
HETATM   21  C10 UNL     1      21.798  13.302  32.042  1.00  0.00     0.111 C 
BRANCH  21  22
HETATM   22  C11 UNL     1      20.471  12.707  32.288  1.00  0.00     0.110 C 
BRANCH  22  23
HETATM   23  C12 UNL     1      19.619  13.470  33.224  1.00  0.00     0.161 C 
HETATM   24  O1  UNL     1      19.202  14.632  32.988  1.00  0.00    -0.292 OA
BRANCH  23  25
HETATM   25  C13 UNL     1      19.242  12.854  34.478  1.00  0.00     0.010 A 
HETATM   26  C14 UNL     1      18.154  13.286  35.174  1.00  0.00     0.015 A 
HETATM   27  C15 UNL     1      17.783  12.707  36.371  1.00  0.00     0.001 A 
HETATM   28  C16 UNL     1      18.548  11.667  36.853  1.00  0.00     0.000 A 
HETATM   29  C17 UNL     1      19.652  11.204  36.181  1.00  0.00     0.001 A 
HETATM   30  C18 UNL     1      19.994  11.814  34.976  1.00  0.00     0.015 A 
ENDBRANCH  23  25
ENDBRANCH  22  23
ENDBRANCH  21  22
BRANCH  21  31
HETATM   31  N4  UNL     1      21.779  14.586  31.416  1.00  0.00    -0.330 N 
HETATM   32  C19 UNL     1      22.782  15.525  31.780  1.00  0.00     0.361 C 
HETATM   33  O2  UNL     1      23.680  15.232  32.630  1.00  0.00    -0.238 OA
ATOM     34  H4  UNL     1      21.064  14.823  30.727  1.00  0.00     0.165 HD
BRANCH  32  35
HETATM   35  O3  UNL     1      22.872  16.793  31.267  1.00  0.00    -0.294 OA
BRANCH  35  36
HETATM   36  C20 UNL     1      23.827  17.220  30.336  1.00  0.00     0.061 C 
HETATM   37  C21 UNL     1      23.134  18.260  29.449  1.00  0.00     0.046 C 
HETATM   38  C22 UNL     1      25.012  17.929  30.937  1.00  0.00     0.046 C 
HETATM   39  C23 UNL     1      24.345  16.143  29.444  1.00  0.00     0.046 C 
ENDBRANCH  35  36
ENDBRANCH  32  35
ENDBRANCH  21  31
ENDBRANCH   1  21
TORSDOF 12
ENDMDL
MODEL 4
REMARK VINA RESULT: -8.620589828      1.743      2.326
REMARK  12 active torsions:
REMARK  status: ('A' for Active; 'I' for Inactive)
REMARK    1  A    between atoms: C2_2  and  C5_5 
REMARK    2  A    between atoms: C5_5  and  C6_6 
REMARK    3  A    between atoms: C8_12  and  N3_13 
REMARK    4  A    between atoms: N3_13  and  C9_15 
REMARK    5  A    between atoms: C9_15  and  C10_16 
REMARK    6  A    between atoms: C10_16  and  C11_17 
REMARK    7  A    between atoms: C10_16  and  N4_26 
REMARK    8  A    between atoms: C11_17  and  C12_18 
REMARK    9  A    between atoms: C12_18  and  C13_20 
REMARK       I    between atoms: N4_26  and  C19_28 
REMARK   10  A    between atoms: C19_28  and  O3_30 
REMARK   11  A    between atoms: O3_30  and  C20_31 
REMARK   12  A    between atoms: C24_35  and  C25_36 
ROOT
HETATM    1  C9  UNL     1      22.716  12.483  31.050  1.00  0.00     0.147 C 
ENDROOT
BRANCH   1   2
HETATM    2  N3  UNL     1      22.522  11.062  31.225  1.00  0.00    -0.374 N 
ATOM      3  H3  UNL     1      21.885  10.704  31.936  1.00  0.00     0.161 HD
BRANCH   2   4
HETATM    4  C8  UNL     1      23.190  10.246  30.444  1.00  0.00     0.116 A 
HETATM    5  N2  UNL     1      24.088  10.782  29.600  1.00  0.00    -0.338 N 
HETATM    6  C7  UNL     1      24.788   9.956  28.812  1.00  0.00     0.182 A 
ATOM      7  H2  UNL     1      24.233  11.790  29.560  1.00  0.00     0.168 HD
HETATM    8  N1  UNL     1      24.574   8.666  28.896  1.00  0.00    -0.355 N 
HETATM    9  C6  UNL     1      23.673   8.048  29.738  1.00  0.00     0.026 A 
ATOM     10  H1  UNL     1      25.124   8.065  28.282  1.00  0.00     0.166 HD
HETATM   11  C24 UNL     1      22.950   8.877  30.545  1.00  0.00     0.079 A 
BRANCH   9  12
HETATM   12  C5  UNL     1      23.730   6.606  29.690  1.00  0.00     0.066 C 
BRANCH  12  13
HETATM   13  C2  UNL     1      24.821   5.943  30.475  1.00  0.00    -0.046 C 
HETATM   14  C1  UNL     1      25.588   5.006  29.521  1.00  0.00     0.015 C 
HETATM   15  C3  UNL     1      25.836   6.778  31.137  1.00  0.00     0.015 C 
HETATM   16  C4  UNL     1      24.233   5.007  31.533  1.00  0.00     0.015 C 
ENDBRANCH  12  13
ENDBRANCH   9  12
BRANCH  11  17
HETATM   17  C25 UNL     1      21.909   8.372  31.417  1.00  0.00     0.272 C 
HETATM   18  C26 UNL     1      22.412   8.115  32.843  1.00  0.00     0.096 C 
HETATM   19  F1  UNL     1      20.667   8.903  31.372  1.00  0.00    -0.201 F 
HETATM   20  F2  UNL     1      21.675   7.035  30.969  1.00  0.00    -0.201 F 
ENDBRANCH  11  17
ENDBRANCH   2   4
ENDBRANCH   1   2
BRANCH   1  21
HETATM   21  C10 UNL     1      21.886  13.336  31.977  1.00  0.00     0.111 C 
BRANCH  21  22
HETATM   22  C11 UNL     1      20.566  12.723  32.218  1.00  0.00     0.110 C 
BRANCH  22  23
HETATM   23  C12 UNL     1      19.698  13.478  33.146  1.00  0.00     0.161 C 
HETATM   24  O1  UNL     1      19.264  14.631  32.902  1.00  0.00    -0.292 OA
BRANCH  23  25
HETATM   25  C13 UNL     1      19.326  12.862  34.401  1.00  0.00     0.010 A 
HETATM   26  C14 UNL     1      20.042  11.823  34.914  1.00  0.00     0.015 A 
HETATM   27  C15 UNL     1      19.698  11.227  36.111  1.00  0.00     0.001 A 
HETATM   28  C16 UNL     1      18.599  11.713  36.786  1.00  0.00     0.000 A 
HETATM   29  C17 UNL     1      17.853  12.758  36.302  1.00  0.00     0.001 A 
HETATM   30  C18 UNL     1      18.231  13.334  35.091  1.00  0.00     0.015 A 
ENDBRANCH  23  25
ENDBRANCH  22  23
ENDBRANCH  21  22
BRANCH  21  31
HETATM   31  N4  UNL     1      21.851  14.673  31.479  1.00  0.00    -0.330 N 
HETATM   32  C19 UNL     1      22.867  15.574  31.902  1.00  0.00     0.361 C 
HETATM   33  O2  UNL     1      23.790  15.200  32.692  1.00  0.00    -0.238 OA
ATOM     34  H4  UNL     1      21.117  14.975  30.838  1.00  0.00     0.165 HD
BRANCH  32  35
HETATM   35  O3  UNL     1      22.945  16.885  31.511  1.00  0.00    -0.294 OA
BRANCH  35  36
HETATM   36  C20 UNL     1      23.832  17.389  30.551  1.00  0.00     0.061 C 
HETATM   37  C21 UNL     1      23.043  18.413  29.727  1.00  0.00     0.046 C 
HETATM   38  C22 UNL     1      25.003  18.147  31.121  1.00  0.00     0.046 C 
HETATM   39  C23 UNL     1      24.366  16.368  29.606  1.00  0.00     0.046 C 
ENDBRANCH  35  36
ENDBRANCH  32  35
ENDBRANCH  21  31
ENDBRANCH   1  21
TORSDOF 12
ENDMDL
MODEL 5
REMARK VINA RESULT: -8.603237953      1.590      2.148
REMARK  12 active torsions:
REMARK  status: ('A' for Active; 'I' for Inactive)
REMARK    1  A    between atoms: C2_2  and  C5_5 
REMARK    2  A    between atoms: C5_5  and  C6_6 
REMARK    3  A    between atoms: C8_12  and  N3_13 
REMARK    4  A    between atoms: N3_13  and  C9_15 
REMARK    5  A    between atoms: C9_15  and  C10_16 
REMARK    6  A    between atoms: C10_16  and  C11_17 
REMARK    7  A    between atoms: C10_16  and  N4_26 
REMARK    8  A    between atoms: C11_17  and  C12_18 
REMARK    9  A    between atoms: C12_18  and  C13_20 
REMARK       I    between atoms: N4_26  and  C19_28 
REMARK   10  A    between atoms: C19_28  and  O3_30 
REMARK   11  A    between atoms: O3_30  and  C20_31 
REMARK   12  A    between atoms: C24_35  and  C25_36 
ROOT
HETATM    1  C9  UNL     1      22.318  14.518  31.521  1.00  0.00     0.147 C 
ENDROOT
BRANCH   1   2
HETATM    2  N3  UNL     1      21.743  13.293  32.024  1.00  0.00    -0.374 N 
ATOM      3  H3  UNL     1      20.945  13.311  32.660  1.00  0.00     0.161 HD
BRANCH   2   4
HETATM    4  C8  UNL     1      22.275  12.156  31.641  1.00  0.00     0.116 A 
HETATM    5  N2  UNL     1      23.082  12.174  30.566  1.00  0.00    -0.338 N 
HETATM    6  C7  UNL     1      23.645  11.023  30.178  1.00  0.00     0.182 A 
ATOM      7  H2  UNL     1      23.260  13.041  30.059  1.00  0.00     0.168 HD
HETATM    8  N1  UNL     1      23.392   9.932  30.858  1.00  0.00    -0.355 N 
HETATM    9  C6  UNL     1      22.579   9.840  31.969  1.00  0.00     0.026 A 
ATOM     10  H1  UNL     1      23.837   9.072  30.536  1.00  0.00     0.166 HD
HETATM   11  C24 UNL     1      21.995  11.005  32.374  1.00  0.00     0.079 A 
BRANCH   9  12
HETATM   12  C5  UNL     1      22.573   8.531  32.576  1.00  0.00     0.066 C 
BRANCH  12  13
HETATM   13  C2  UNL     1      21.615   7.526  32.013  1.00  0.00    -0.046 C 
HETATM   14  C1  UNL     1      21.273   6.520  33.131  1.00  0.00     0.015 C 
HETATM   15  C3  UNL     1      20.330   7.989  31.467  1.00  0.00     0.015 C 
HETATM   16  C4  UNL     1      22.294   6.678  30.935  1.00  0.00     0.015 C 
ENDBRANCH  12  13
ENDBRANCH   9  12
BRANCH  11  17
HETATM   17  C25 UNL     1      21.052  11.041  33.473  1.00  0.00     0.272 C 
HETATM   18  C26 UNL     1      19.596  11.110  32.996  1.00  0.00     0.096 C 
HETATM   19  F1  UNL     1      21.228  10.240  34.548  1.00  0.00    -0.201 F 
HETATM   20  F2  UNL     1      21.209  12.342  34.046  1.00  0.00    -0.201 F 
ENDBRANCH  11  17
ENDBRANCH   2   4
ENDBRANCH   1   2
BRANCH   1  21
HETATM   21  C10 UNL     1      21.301  15.537  31.070  1.00  0.00     0.111 C 
BRANCH  21  22
HETATM   22  C11 UNL     1      19.989  14.903  30.833  1.00  0.00     0.110 C 
BRANCH  22  23
HETATM   23  C12 UNL     1      18.829  15.720  31.244  1.00  0.00     0.161 C 
HETATM   24  O1  UNL     1      18.321  16.612  30.518  1.00  0.00    -0.292 OA
BRANCH  23  25
HETATM   25  C13 UNL     1      18.242  15.487  32.545  1.00  0.00     0.010 A 
HETATM   26  C14 UNL     1      17.288  16.320  33.047  1.00  0.00     0.015 A 
HETATM   27  C15 UNL     1      16.721  16.108  34.287  1.00  0.00     0.001 A 
HETATM   28  C16 UNL     1      17.145  15.019  35.017  1.00  0.00     0.000 A 
HETATM   29  C17 UNL     1      18.104  14.157  34.547  1.00  0.00     0.001 A 
HETATM   30  C18 UNL     1      18.653  14.404  33.290  1.00  0.00     0.015 A 
ENDBRANCH  23  25
ENDBRANCH  22  23
ENDBRANCH  21  22
BRANCH  21  31
HETATM   31  N4  UNL     1      21.827  16.270  29.964  1.00  0.00    -0.330 N 
HETATM   32  C19 UNL     1      22.019  17.670  30.116  1.00  0.00     0.361 C 
HETATM   33  O2  UNL     1      21.741  18.257  31.209  1.00  0.00    -0.238 OA
ATOM     34  H4  UNL     1      22.060  15.801  29.088  1.00  0.00     0.165 HD
BRANCH  32  35
HETATM   35  O3  UNL     1      22.504  18.492  29.133  1.00  0.00    -0.294 OA
BRANCH  35  36
HETATM   36  C20 UNL     1      23.840  18.548  28.715  1.00  0.00     0.061 C 
HETATM   37  C21 UNL     1      24.086  19.985  28.243  1.00  0.00     0.046 C 
HETATM   38  C22 UNL     1      24.846  18.305  29.809  1.00  0.00     0.046 C 
HETATM   39  C23 UNL     1      24.171  17.640  27.580  1.00  0.00     0.046 C 
ENDBRANCH  35  36
ENDBRANCH  32  35
ENDBRANCH  21  31
ENDBRANCH   1  21
TORSDOF 12
ENDMDL
