MODEL 1
REMARK VINA RESULT: -8.041607506      0.000      0.000
REMARK  10 active torsions:
REMARK  status: ('A' for Active; 'I' for Inactive)
REMARK    1  A    between atoms: C2_2  and  N1_3 
REMARK    2  A    between atoms: C2_2  and  C21_32 
REMARK       I    between atoms: N1_3  and  C3_5 
REMARK    3  A    between atoms: C3_5  and  C4_7 
REMARK    4  A    between atoms: C4_7  and  O2_8 
REMARK    5  A    between atoms: C4_7  and  N2_10 
REMARK    6  A    between atoms: N2_10  and  C5_11 
REMARK    7  A    between atoms: N2_10  and  C11_18 
REMARK    8  A    between atoms: C11_18  and  C12_19 
REMARK    9  A    between atoms: C11_18  and  C17_27 
REMARK       I    between atoms: C12_19  and  N3_21 
REMARK   10  A    between atoms: N3_21  and  C13_23 
ROOT
HETATM    1  N2  UNL     1      23.855  13.546  30.616  1.00  0.00    -0.303 N 
ENDROOT
BRANCH   1   2
HETATM    2  C4  UNL     1      22.564  14.024  30.268  1.00  0.00     0.213 C 
BRANCH   2   3
HETATM    3  C3  UNL     1      21.569  14.629  31.094  1.00  0.00     0.293 C 
HETATM    4  N1  UNL     1      20.563  13.815  31.737  1.00  0.00    -0.344 N 
ATOM      5  H1  UNL     1      20.570  12.805  31.591  1.00  0.00     0.163 HD
HETATM    6  O1  UNL     1      21.492  15.847  31.317  1.00  0.00    -0.264 OA
BRANCH   4   7
HETATM    7  C2  UNL     1      19.545  14.399  32.582  1.00  0.00     0.138 C 
HETATM    8  C1  UNL     1      18.261  14.635  31.821  1.00  0.00     0.039 C 
BRANCH   7   9
HETATM    9  C21 UNL     1      19.338  13.463  33.725  1.00  0.00     0.077 A 
HETATM   10  C22 UNL     1      20.127  12.377  34.007  1.00  0.00     0.038 A 
HETATM   11  C23 UNL     1      19.595  11.790  35.131  1.00  0.00     0.052 A 
HETATM   12  C24 UNL     1      18.510  12.544  35.480  1.00  0.00     0.145 A 
HETATM   13 CL1  UNL     1      17.451  12.246  36.848  1.00  0.00    -0.057 Cl
HETATM   14  O5  UNL     1      18.405  13.506  34.626  1.00  0.00    -0.301 OA
ENDBRANCH   7   9
ENDBRANCH   4   7
ENDBRANCH   2   3
BRANCH   2  15
HETATM   15  O2  UNL     1      22.189  13.908  29.015  1.00  0.00    -0.342 OA
ATOM     16  H2  UNL     1      22.741  13.319  28.516  1.00  0.00     0.219 HD
ENDBRANCH   2  15
ENDBRANCH   1   2
BRANCH   1  17
HETATM   17  C5  UNL     1      23.892  12.165  30.990  1.00  0.00     0.038 A 
HETATM   18  C6  UNL     1      22.801  11.370  31.022  1.00  0.00     0.033 A 
HETATM   19  C7  UNL     1      22.868  10.019  31.393  1.00  0.00     0.044 A 
HETATM   20  C8  UNL     1      24.095   9.508  31.731  1.00  0.00     0.116 A 
HETATM   21  F1  UNL     1      24.210   8.192  32.101  1.00  0.00    -0.206 F 
HETATM   22  C9  UNL     1      25.218  10.317  31.700  1.00  0.00     0.044 A 
HETATM   23  C10 UNL     1      25.126  11.653  31.329  1.00  0.00     0.033 A 
ENDBRANCH   1  17
BRANCH   1  24
HETATM   24  C11 UNL     1      25.024  14.334  30.455  1.00  0.00     0.241 C 
BRANCH  24  25
HETATM   25  C12 UNL     1      25.595  14.343  29.063  1.00  0.00     0.248 C 
HETATM   26  O3  UNL     1      25.035  13.698  28.147  1.00  0.00    -0.271 OA
HETATM   27  N3  UNL     1      26.761  15.056  28.712  1.00  0.00    -0.351 N 
ATOM     28  H3  UNL     1      27.221  15.585  29.453  1.00  0.00     0.163 HD
BRANCH  27  29
HETATM   29  C13 UNL     1      27.351  15.102  27.422  1.00  0.00     0.022 C 
HETATM   30  C14 UNL     1      26.543  15.882  26.395  1.00  0.00     0.037 C 
HETATM   31  C15 UNL     1      27.642  13.752  26.822  1.00  0.00     0.037 C 
HETATM   32  C16 UNL     1      28.691  15.836  27.542  1.00  0.00     0.037 C 
ENDBRANCH  27  29
ENDBRANCH  24  25
BRANCH  24  33
HETATM   33  C17 UNL     1      24.919  15.712  30.969  1.00  0.00     0.085 A 
HETATM   34  C18 UNL     1      24.836  16.108  32.286  1.00  0.00     0.037 A 
HETATM   35  C19 UNL     1      24.756  17.470  32.299  1.00  0.00     0.027 A 
HETATM   36  C20 UNL     1      24.792  17.863  30.985  1.00  0.00     0.142 A 
HETATM   37  O4  UNL     1      24.889  16.819  30.223  1.00  0.00    -0.324 OA
ENDBRANCH  24  33
ENDBRANCH   1  24
TORSDOF 10
ENDMDL
MODEL 2
REMARK VINA RESULT: -8.019662395      1.176      1.446
REMARK  10 active torsions:
REMARK  status: ('A' for Active; 'I' for Inactive)
REMARK    1  A    between atoms: C2_2  and  N1_3 
REMARK    2  A    between atoms: C2_2  and  C21_32 
REMARK       I    between atoms: N1_3  and  C3_5 
REMARK    3  A    between atoms: C3_5  and  C4_7 
REMARK    4  A    between atoms: C4_7  and  O2_8 
REMARK    5  A    between atoms: C4_7  and  N2_10 
REMARK    6  A    between atoms: N2_10  and  C5_11 
REMARK    7  A    between atoms: N2_10  and  C11_18 
REMARK    8  A    between atoms: C11_18  and  C12_19 
REMARK    9  A    between atoms: C11_18  and  C17_27 
REMARK       I    between atoms: C12_19  and  N3_21 
REMARK   10  A    between atoms: N3_21  and  C13_23 
ROOT
HETATM    1  N2  UNL     1      23.555  13.003  30.838  1.00  0.00    -0.303 N 
ENDROOT
BRANCH   1   2
HETATM    2  C4  UNL     1      22.457  13.818  30.457  1.00  0.00     0.213 C 
BRANCH   2   3
HETATM    3  C3  UNL     1      21.483  14.467  31.275  1.00  0.00     0.293 C 
HETATM    4  N1  UNL     1      20.413  13.705  31.876  1.00  0.00    -0.344 N 
ATOM      5  H1  UNL     1      20.359  12.700  31.706  1.00  0.00     0.163 HD
HETATM    6  O1  UNL     1      21.479  15.682  31.526  1.00  0.00    -0.264 OA
BRANCH   4   7
HETATM    7  C2  UNL     1      19.415  14.334  32.713  1.00  0.00     0.138 C 
HETATM    8  C1  UNL     1      18.135  14.590  31.952  1.00  0.00     0.039 C 
BRANCH   7   9
HETATM    9  C21 UNL     1      19.187  13.427  33.875  1.00  0.00     0.077 A 
HETATM   10  C22 UNL     1      20.003  12.385  34.234  1.00  0.00     0.038 A 
HETATM   11  C23 UNL     1      19.437  11.812  35.349  1.00  0.00     0.052 A 
HETATM   12  C24 UNL     1      18.306  12.531  35.617  1.00  0.00     0.145 A 
HETATM   13 CL1  UNL     1      17.191  12.235  36.940  1.00  0.00    -0.057 Cl
HETATM   14  O5  UNL     1      18.208  13.461  34.726  1.00  0.00    -0.301 OA
ENDBRANCH   7   9
ENDBRANCH   4   7
ENDBRANCH   2   3
BRANCH   2  15
HETATM   15  O2  UNL     1      22.270  14.029  29.174  1.00  0.00    -0.342 OA
ATOM     16  H2  UNL     1      22.274  13.229  28.662  1.00  0.00     0.219 HD
ENDBRANCH   2  15
ENDBRANCH   1   2
BRANCH   1  17
HETATM   17  C5  UNL     1      23.281  11.598  30.817  1.00  0.00     0.038 A 
HETATM   18  C6  UNL     1      23.493  10.810  29.742  1.00  0.00     0.033 A 
HETATM   19  C7  UNL     1      23.214   9.436  29.752  1.00  0.00     0.044 A 
HETATM   20  C8  UNL     1      22.709   8.894  30.905  1.00  0.00     0.116 A 
HETATM   21  F1  UNL     1      22.420   7.553  30.963  1.00  0.00    -0.206 F 
HETATM   22  C9  UNL     1      22.489   9.695  32.013  1.00  0.00     0.044 A 
HETATM   23  C10 UNL     1      22.773  11.054  31.978  1.00  0.00     0.033 A 
ENDBRANCH   1  17
BRANCH   1  24
HETATM   24  C11 UNL     1      24.851  13.534  31.066  1.00  0.00     0.241 C 
BRANCH  24  25
HETATM   25  C12 UNL     1      25.870  13.190  30.014  1.00  0.00     0.248 C 
HETATM   26  O3  UNL     1      26.732  12.308  30.235  1.00  0.00    -0.271 OA
HETATM   27  N3  UNL     1      25.920  13.818  28.753  1.00  0.00    -0.351 N 
ATOM     28  H3  UNL     1      25.220  14.536  28.565  1.00  0.00     0.163 HD
BRANCH  27  29
HETATM   29  C13 UNL     1      26.855  13.542  27.721  1.00  0.00     0.022 C 
HETATM   30  C14 UNL     1      26.544  12.290  26.916  1.00  0.00     0.037 C 
HETATM   31  C15 UNL     1      28.281  13.423  28.191  1.00  0.00     0.037 C 
HETATM   32  C16 UNL     1      26.811  14.703  26.720  1.00  0.00     0.037 C 
ENDBRANCH  27  29
ENDBRANCH  24  25
BRANCH  24  33
HETATM   33  C17 UNL     1      24.887  14.979  31.353  1.00  0.00     0.085 A 
HETATM   34  C18 UNL     1      24.772  15.590  32.583  1.00  0.00     0.037 A 
HETATM   35  C19 UNL     1      24.862  16.936  32.382  1.00  0.00     0.027 A 
HETATM   36  C20 UNL     1      25.029  17.105  31.031  1.00  0.00     0.142 A 
HETATM   37  O4  UNL     1      25.042  15.948  30.448  1.00  0.00    -0.324 OA
ENDBRANCH  24  33
ENDBRANCH   1  24
TORSDOF 10
ENDMDL
MODEL 3
REMARK VINA RESULT: -8.014205483      1.232      1.548
REMARK  10 active torsions:
REMARK  status: ('A' for Active; 'I' for Inactive)
REMARK    1  A    between atoms: C2_2  and  N1_3 
REMARK    2  A    between atoms: C2_2  and  C21_32 
REMARK       I    between atoms: N1_3  and  C3_5 
REMARK    3  A    between atoms: C3_5  and  C4_7 
REMARK    4  A    between atoms: C4_7  and  O2_8 
REMARK    5  A    between atoms: C4_7  and  N2_10 
REMARK    6  A    between atoms: N2_10  and  C5_11 
REMARK    7  A    between atoms: N2_10  and  C11_18 
REMARK    8  A    between atoms: C11_18  and  C12_19 
REMARK    9  A    between atoms: C11_18  and  C17_27 
REMARK       I    between atoms: C12_19  and  N3_21 
REMARK   10  A    between atoms: N3_21  and  C13_23 
ROOT
HETATM    1  N2  UNL     1      23.642  12.980  30.636  1.00  0.00    -0.303 N 
ENDROOT
BRANCH   1   2
HETATM    2  C4  UNL     1      22.525  13.782  30.279  1.00  0.00     0.213 C 
BRANCH   2   3
HETATM    3  C3  UNL     1      21.583  14.448  31.119  1.00  0.00     0.293 C 
HETATM    4  N1  UNL     1      20.535  13.699  31.774  1.00  0.00    -0.344 N 
ATOM      5  H1  UNL     1      20.476  12.691  31.627  1.00  0.00     0.163 HD
HETATM    6  O1  UNL     1      21.587  15.668  31.345  1.00  0.00    -0.264 OA
BRANCH   4   7
HETATM    7  C2  UNL     1      19.569  14.345  32.634  1.00  0.00     0.138 C 
HETATM    8  C1  UNL     1      18.288  14.654  31.894  1.00  0.00     0.039 C 
BRANCH   7   9
HETATM    9  C21 UNL     1      19.326  13.427  33.784  1.00  0.00     0.077 A 
HETATM   10  C22 UNL     1      20.110  12.351  34.113  1.00  0.00     0.038 A 
HETATM   11  C23 UNL     1      19.541  11.779  35.227  1.00  0.00     0.052 A 
HETATM   12  C24 UNL     1      18.440  12.533  35.525  1.00  0.00     0.145 A 
HETATM   13 CL1  UNL     1      17.335  12.253  36.859  1.00  0.00    -0.057 Cl
HETATM   14  O5  UNL     1      18.362  13.481  34.651  1.00  0.00    -0.301 OA
ENDBRANCH   7   9
ENDBRANCH   4   7
ENDBRANCH   2   3
BRANCH   2  15
HETATM   15  O2  UNL     1      22.288  13.960  29.000  1.00  0.00    -0.342 OA
ATOM     16  H2  UNL     1      22.951  13.572  28.442  1.00  0.00     0.219 HD
ENDBRANCH   2  15
ENDBRANCH   1   2
BRANCH   1  17
HETATM   17  C5  UNL     1      23.364  11.576  30.695  1.00  0.00     0.038 A 
HETATM   18  C6  UNL     1      23.502  10.742  29.643  1.00  0.00     0.033 A 
HETATM   19  C7  UNL     1      23.222   9.371  29.730  1.00  0.00     0.044 A 
HETATM   20  C8  UNL     1      22.794   8.881  30.937  1.00  0.00     0.116 A 
HETATM   21  F1  UNL     1      22.507   7.546  31.072  1.00  0.00    -0.206 F 
HETATM   22  C9  UNL     1      22.650   9.731  32.022  1.00  0.00     0.044 A 
HETATM   23  C10 UNL     1      22.933  11.086  31.909  1.00  0.00     0.033 A 
ENDBRANCH   1  17
BRANCH   1  24
HETATM   24  C11 UNL     1      24.949  13.515  30.769  1.00  0.00     0.241 C 
BRANCH  24  25
HETATM   25  C12 UNL     1      25.865  13.245  29.606  1.00  0.00     0.248 C 
HETATM   26  O3  UNL     1      25.448  13.373  28.432  1.00  0.00    -0.271 OA
HETATM   27  N3  UNL     1      27.208  12.843  29.759  1.00  0.00    -0.351 N 
ATOM     28  H3  UNL     1      27.554  12.739  30.713  1.00  0.00     0.163 HD
BRANCH  27  29
HETATM   29  C13 UNL     1      28.120  12.570  28.706  1.00  0.00     0.022 C 
HETATM   30  C14 UNL     1      28.458  13.778  27.846  1.00  0.00     0.037 C 
HETATM   31  C15 UNL     1      27.683  11.472  27.774  1.00  0.00     0.037 C 
HETATM   32  C16 UNL     1      29.446  12.122  29.334  1.00  0.00     0.037 C 
ENDBRANCH  27  29
ENDBRANCH  24  25
BRANCH  24  33
HETATM   33  C17 UNL     1      25.001  14.941  31.135  1.00  0.00     0.085 A 
HETATM   34  C18 UNL     1      24.939  15.483  32.401  1.00  0.00     0.037 A 
HETATM   35  C19 UNL     1      25.024  16.838  32.271  1.00  0.00     0.027 A 
HETATM   36  C20 UNL     1      25.135  17.082  30.925  1.00  0.00     0.142 A 
HETATM   37  O4  UNL     1      25.121  15.959  30.278  1.00  0.00    -0.324 OA
ENDBRANCH  24  33
ENDBRANCH   1  24
TORSDOF 10
ENDMDL
MODEL 4
REMARK VINA RESULT: -7.854730863      3.092      5.130
REMARK  10 active torsions:
REMARK  status: ('A' for Active; 'I' for Inactive)
REMARK    1  A    between atoms: C2_2  and  N1_3 
REMARK    2  A    between atoms: C2_2  and  C21_32 
REMARK       I    between atoms: N1_3  and  C3_5 
REMARK    3  A    between atoms: C3_5  and  C4_7 
REMARK    4  A    between atoms: C4_7  and  O2_8 
REMARK    5  A    between atoms: C4_7  and  N2_10 
REMARK    6  A    between atoms: N2_10  and  C5_11 
REMARK    7  A    between atoms: N2_10  and  C11_18 
REMARK    8  A    between atoms: C11_18  and  C12_19 
REMARK    9  A    between atoms: C11_18  and  C17_27 
REMARK       I    between atoms: C12_19  and  N3_21 
REMARK   10  A    between atoms: N3_21  and  C13_23 
ROOT
HETATM    1  N2  UNL     1      23.545  12.352  30.826  1.00  0.00    -0.303 N 
ENDROOT
BRANCH   1   2
HETATM    2  C4  UNL     1      23.257  11.933  29.501  1.00  0.00     0.213 C 
BRANCH   2   3
HETATM    3  C3  UNL     1      23.326  10.627  28.929  1.00  0.00     0.293 C 
HETATM    4  N1  UNL     1      24.261   9.654  29.445  1.00  0.00    -0.344 N 
ATOM      5  H1  UNL     1      24.873   9.912  30.219  1.00  0.00     0.163 HD
HETATM    6  O1  UNL     1      22.619  10.238  27.986  1.00  0.00    -0.264 OA
BRANCH   4   7
HETATM    7  C2  UNL     1      24.349   8.322  28.889  1.00  0.00     0.138 C 
HETATM    8  C1  UNL     1      25.787   7.896  28.695  1.00  0.00     0.039 C 
BRANCH   7   9
HETATM    9  C21 UNL     1      23.633   7.410  29.827  1.00  0.00     0.077 A 
HETATM   10  C22 UNL     1      23.664   6.039  29.772  1.00  0.00     0.038 A 
HETATM   11  C23 UNL     1      22.878   5.589  30.806  1.00  0.00     0.052 A 
HETATM   12  C24 UNL     1      22.406   6.703  31.442  1.00  0.00     0.145 A 
HETATM   13 CL1  UNL     1      21.346   6.715  32.841  1.00  0.00    -0.057 Cl
HETATM   14  O5  UNL     1      22.876   7.738  30.829  1.00  0.00    -0.301 OA
ENDBRANCH   7   9
ENDBRANCH   4   7
ENDBRANCH   2   3
BRANCH   2  15
HETATM   15  O2  UNL     1      22.874  12.848  28.642  1.00  0.00    -0.342 OA
ATOM     16  H2  UNL     1      22.106  13.329  28.929  1.00  0.00     0.219 HD
ENDBRANCH   2  15
ENDBRANCH   1   2
BRANCH   1  17
HETATM   17  C5  UNL     1      22.519  12.047  31.777  1.00  0.00     0.038 A 
HETATM   18  C6  UNL     1      22.315  10.813  32.287  1.00  0.00     0.033 A 
HETATM   19  C7  UNL     1      21.301  10.544  33.216  1.00  0.00     0.044 A 
HETATM   20  C8  UNL     1      20.499  11.585  33.609  1.00  0.00     0.116 A 
HETATM   21  F1  UNL     1      19.493  11.371  34.517  1.00  0.00    -0.206 F 
HETATM   22  C9  UNL     1      20.703  12.854  33.091  1.00  0.00     0.044 A 
HETATM   23  C10 UNL     1      21.714  13.095  32.170  1.00  0.00     0.033 A 
ENDBRANCH   1  17
BRANCH   1  24
HETATM   24  C11 UNL     1      24.806  12.887  31.196  1.00  0.00     0.241 C 
BRANCH  24  25
HETATM   25  C12 UNL     1      25.973  12.362  30.404  1.00  0.00     0.248 C 
HETATM   26  O3  UNL     1      26.399  11.201  30.601  1.00  0.00    -0.271 OA
HETATM   27  N3  UNL     1      26.641  13.121  29.420  1.00  0.00    -0.351 N 
ATOM     28  H3  UNL     1      26.299  14.067  29.253  1.00  0.00     0.163 HD
BRANCH  27  29
HETATM   29  C13 UNL     1      27.746  12.686  28.643  1.00  0.00     0.022 C 
HETATM   30  C14 UNL     1      27.420  11.569  27.664  1.00  0.00     0.037 C 
HETATM   31  C15 UNL     1      28.934  12.233  29.450  1.00  0.00     0.037 C 
HETATM   32  C16 UNL     1      28.214  13.868  27.785  1.00  0.00     0.037 C 
ENDBRANCH  27  29
ENDBRANCH  24  25
BRANCH  24  33
HETATM   33  C17 UNL     1      24.860  14.358  31.264  1.00  0.00     0.085 A 
HETATM   34  C18 UNL     1      25.259  15.132  32.333  1.00  0.00     0.037 A 
HETATM   35  C19 UNL     1      25.152  16.438  31.955  1.00  0.00     0.027 A 
HETATM   36  C20 UNL     1      24.689  16.421  30.664  1.00  0.00     0.142 A 
HETATM   37  O4  UNL     1      24.526  15.194  30.278  1.00  0.00    -0.324 OA
ENDBRANCH  24  33
ENDBRANCH   1  24
TORSDOF 10
ENDMDL
MODEL 5
REMARK VINA RESULT: -7.802226768      2.760      4.734
REMARK  10 active torsions:
REMARK  status: ('A' for Active; 'I' for Inactive)
REMARK    1  A    between atoms: C2_2  and  N1_3 
REMARK    2  A    between atoms: C2_2  and  C21_32 
REMARK       I    between atoms: N1_3  and  C3_5 
REMARK    3  A    between atoms: C3_5  and  C4_7 
REMARK    4  A    between atoms: C4_7  and  O2_8 
REMARK    5  A    between atoms: C4_7  and  N2_10 
REMARK    6  A    between atoms: N2_10  and  C5_11 
REMARK    7  A    between atoms: N2_10  and  C11_18 
REMARK    8  A    between atoms: C11_18  and  C12_19 
REMARK    9  A    between atoms: C11_18  and  C17_27 
REMARK       I    between atoms: C12_19  and  N3_21 
REMARK   10  A    between atoms: N3_21  and  C13_23 
ROOT
HETATM    1  N2  UNL     1      23.027  13.207  30.933  1.00  0.00    -0.303 N 
ENDROOT
BRANCH   1   2
HETATM    2  C4  UNL     1      22.953  12.388  29.776  1.00  0.00     0.213 C 
BRANCH   2   3
HETATM    3  C3  UNL     1      23.239  10.997  29.632  1.00  0.00     0.293 C 
HETATM    4  N1  UNL     1      23.802  10.251  30.734  1.00  0.00    -0.344 N 
ATOM      5  H1  UNL     1      23.995  10.730  31.613  1.00  0.00     0.163 HD
HETATM    6  O1  UNL     1      23.036  10.345  28.595  1.00  0.00    -0.264 OA
BRANCH   4   7
HETATM    7  C2  UNL     1      24.098   8.840  30.618  1.00  0.00     0.138 C 
HETATM    8  C1  UNL     1      25.399   8.489  31.301  1.00  0.00     0.039 C 
BRANCH   7   9
HETATM    9  C21 UNL     1      22.949   8.103  31.220  1.00  0.00     0.077 A 
HETATM   10  C22 UNL     1      22.972   6.786  31.603  1.00  0.00     0.038 A 
HETATM   11  C23 UNL     1      21.722   6.504  32.104  1.00  0.00     0.052 A 
HETATM   12  C24 UNL     1      20.999   7.659  32.004  1.00  0.00     0.145 A 
HETATM   13 CL1  UNL     1      19.329   7.870  32.499  1.00  0.00    -0.057 Cl
HETATM   14  O5  UNL     1      21.763   8.560  31.481  1.00  0.00    -0.301 OA
ENDBRANCH   7   9
ENDBRANCH   4   7
ENDBRANCH   2   3
BRANCH   2  15
HETATM   15  O2  UNL     1      22.575  12.953  28.653  1.00  0.00    -0.342 OA
ATOM     16  H2  UNL     1      21.635  12.915  28.517  1.00  0.00     0.219 HD
ENDBRANCH   2  15
ENDBRANCH   1   2
BRANCH   1  17
HETATM   17  C5  UNL     1      21.805  13.293  31.674  1.00  0.00     0.038 A 
HETATM   18  C6  UNL     1      20.903  14.286  31.517  1.00  0.00     0.033 A 
HETATM   19  C7  UNL     1      19.715  14.344  32.258  1.00  0.00     0.044 A 
HETATM   20  C8  UNL     1      19.480  13.347  33.170  1.00  0.00     0.116 A 
HETATM   21  F1  UNL     1      18.330  13.361  33.919  1.00  0.00    -0.206 F 
HETATM   22  C9  UNL     1      20.400  12.326  33.337  1.00  0.00     0.044 A 
HETATM   23  C10 UNL     1      21.571  12.290  32.591  1.00  0.00     0.033 A 
ENDBRANCH   1  17
BRANCH   1  24
HETATM   24  C11 UNL     1      24.250  13.763  31.392  1.00  0.00     0.241 C 
BRANCH  24  25
HETATM   25  C12 UNL     1      25.474  13.293  30.655  1.00  0.00     0.248 C 
HETATM   26  O3  UNL     1      26.292  12.525  31.214  1.00  0.00    -0.271 OA
HETATM   27  N3  UNL     1      25.772  13.676  29.331  1.00  0.00    -0.351 N 
ATOM     28  H3  UNL     1      25.110  14.300  28.869  1.00  0.00     0.163 HD
BRANCH  27  29
HETATM   29  C13 UNL     1      26.909  13.271  28.583  1.00  0.00     0.022 C 
HETATM   30  C14 UNL     1      27.942  12.497  29.387  1.00  0.00     0.037 C 
HETATM   31  C15 UNL     1      27.636  14.399  27.899  1.00  0.00     0.037 C 
HETATM   32  C16 UNL     1      26.434  12.313  27.483  1.00  0.00     0.037 C 
ENDBRANCH  27  29
ENDBRANCH  24  25
BRANCH  24  33
HETATM   33  C17 UNL     1      24.259  15.232  31.506  1.00  0.00     0.085 A 
HETATM   34  C18 UNL     1      24.435  15.981  32.649  1.00  0.00     0.037 A 
HETATM   35  C19 UNL     1      24.372  17.296  32.291  1.00  0.00     0.027 A 
HETATM   36  C20 UNL     1      24.158  17.308  30.936  1.00  0.00     0.142 A 
HETATM   37  O4  UNL     1      24.096  16.091  30.496  1.00  0.00    -0.324 OA
ENDBRANCH  24  33
ENDBRANCH   1  24
TORSDOF 10
ENDMDL
