MODEL 1
REMARK VINA RESULT: -5.307518808      0.000      0.000
REMARK  6 active torsions:
REMARK  status: ('A' for Active; 'I' for Inactive)
REMARK    1  A    between atoms: C2_2  and  C3_3 
REMARK    2  A    between atoms: C3_3  and  C5_6 
REMARK    3  A    between atoms: C5_6  and  N2_7 
REMARK    4  A    between atoms: N2_7  and  C6_10 
REMARK    5  A    between atoms: C6_10  and  C7_11 
REMARK    6  A    between atoms: C7_11  and  N3_12 
ROOT
HETATM    1  N2  UNL     1      65.358  42.463   8.463  1.00  0.00    -0.070 N 
ATOM      2  H21 UNL     1      64.490  42.180   8.918  1.00  0.00     0.277 HD
ATOM      3  H22 UNL     1      64.945  42.973   7.682  1.00  0.00     0.277 HD
ENDROOT
BRANCH   1   4
HETATM    4  C5  UNL     1      66.142  41.352   8.039  1.00  0.00     0.271 C 
BRANCH   4   5
HETATM    5  C3  UNL     1      66.288  41.171   6.589  1.00  0.00    -0.020 C 
HETATM    6  C4  UNL     1      66.410  42.188   5.783  1.00  0.00     0.108 C 
HETATM    7  N1  UNL     1      66.550  42.016   4.382  1.00  0.00    -0.115 NA
BRANCH   5   8
HETATM    8  C2  UNL     1      66.293  39.823   6.042  1.00  0.00    -0.001 C 
HETATM    9  C1  UNL     1      65.416  39.419   5.132  1.00  0.00     0.012 C 
ENDBRANCH   5   8
ENDBRANCH   4   5
ENDBRANCH   1   4
BRANCH   1  10
HETATM   10  C6  UNL     1      66.180  43.307   9.307  1.00  0.00     0.260 C 
BRANCH  10  11
HETATM   11  C7  UNL     1      65.228  44.200  10.115  1.00  0.00     0.257 C 
BRANCH  11  12
HETATM   12  N3  UNL     1      66.075  45.052  10.936  1.00  0.00    -0.078 N 
ATOM     13  H33 UNL     1      66.857  45.461  10.425  1.00  0.00     0.274 HD
ATOM     14  H32 UNL     1      65.630  45.929  11.205  1.00  0.00     0.274 HD
ATOM     15  H31 UNL     1      66.363  44.481  11.731  1.00  0.00     0.274 HD
ENDBRANCH  11  12
ENDBRANCH  10  11
ENDBRANCH   1  10
TORSDOF 6
ENDMDL
MODEL 2
REMARK VINA RESULT: -5.243728712      1.732      5.437
REMARK  6 active torsions:
REMARK  status: ('A' for Active; 'I' for Inactive)
REMARK    1  A    between atoms: C2_2  and  C3_3 
REMARK    2  A    between atoms: C3_3  and  C5_6 
REMARK    3  A    between atoms: C5_6  and  N2_7 
REMARK    4  A    between atoms: N2_7  and  C6_10 
REMARK    5  A    between atoms: C6_10  and  C7_11 
REMARK    6  A    between atoms: C7_11  and  N3_12 
ROOT
HETATM    1  N2  UNL     1      65.137  42.254   8.523  1.00  0.00    -0.070 N 
ATOM      2  H21 UNL     1      64.339  42.879   8.412  1.00  0.00     0.277 HD
ATOM      3  H22 UNL     1      64.720  41.614   9.199  1.00  0.00     0.277 HD
ENDROOT
BRANCH   1   4
HETATM    4  C5  UNL     1      66.287  42.920   9.035  1.00  0.00     0.271 C 
BRANCH   4   5
HETATM    5  C3  UNL     1      66.041  44.125   9.837  1.00  0.00    -0.020 C 
HETATM    6  C4  UNL     1      65.003  44.224  10.619  1.00  0.00     0.108 C 
HETATM    7  N1  UNL     1      64.762  45.388  11.395  1.00  0.00    -0.115 NA
BRANCH   5   8
HETATM    8  C2  UNL     1      66.979  45.233   9.754  1.00  0.00    -0.001 C 
HETATM    9  C1  UNL     1      67.051  46.029   8.695  1.00  0.00     0.012 C 
ENDBRANCH   5   8
ENDBRANCH   4   5
ENDBRANCH   1   4
BRANCH   1  10
HETATM   10  C6  UNL     1      65.504  41.594   7.285  1.00  0.00     0.260 C 
BRANCH  10  11
HETATM   11  C7  UNL     1      66.663  40.641   7.609  1.00  0.00     0.257 C 
BRANCH  11  12
HETATM   12  N3  UNL     1      66.833  39.800   6.434  1.00  0.00    -0.078 N 
ATOM     13  H33 UNL     1      66.741  40.309   5.554  1.00  0.00     0.274 HD
ATOM     14  H32 UNL     1      67.793  39.485   6.295  1.00  0.00     0.274 HD
ATOM     15  H31 UNL     1      66.165  39.037   6.534  1.00  0.00     0.274 HD
ENDBRANCH  11  12
ENDBRANCH  10  11
ENDBRANCH   1  10
TORSDOF 6
ENDMDL
MODEL 3
REMARK VINA RESULT: -5.091117338      1.284      1.959
REMARK  6 active torsions:
REMARK  status: ('A' for Active; 'I' for Inactive)
REMARK    1  A    between atoms: C2_2  and  C3_3 
REMARK    2  A    between atoms: C3_3  and  C5_6 
REMARK    3  A    between atoms: C5_6  and  N2_7 
REMARK    4  A    between atoms: N2_7  and  C6_10 
REMARK    5  A    between atoms: C6_10  and  C7_11 
REMARK    6  A    between atoms: C7_11  and  N3_12 
ROOT
HETATM    1  N2  UNL     1      65.224  41.900   8.286  1.00  0.00    -0.070 N 
ATOM      2  H21 UNL     1      65.335  41.058   8.851  1.00  0.00     0.277 HD
ATOM      3  H22 UNL     1      64.340  41.653   7.841  1.00  0.00     0.277 HD
ENDROOT
BRANCH   1   4
HETATM    4  C5  UNL     1      66.282  42.073   7.347  1.00  0.00     0.271 C 
BRANCH   4   5
HETATM    5  C3  UNL     1      66.199  41.277   6.116  1.00  0.00    -0.020 C 
HETATM    6  C4  UNL     1      65.593  40.124   6.089  1.00  0.00     0.108 C 
HETATM    7  N1  UNL     1      65.512  39.352   4.901  1.00  0.00    -0.115 NA
BRANCH   5   8
HETATM    8  C2  UNL     1      66.812  41.789   4.901  1.00  0.00    -0.001 C 
HETATM    9  C1  UNL     1      66.347  42.856   4.264  1.00  0.00     0.012 C 
ENDBRANCH   5   8
ENDBRANCH   4   5
ENDBRANCH   1   4
BRANCH   1  10
HETATM   10  C6  UNL     1      65.126  43.102   9.091  1.00  0.00     0.260 C 
BRANCH  10  11
HETATM   11  C7  UNL     1      66.550  43.473   9.523  1.00  0.00     0.257 C 
BRANCH  11  12
HETATM   12  N3  UNL     1      66.414  44.598  10.435  1.00  0.00    -0.078 N 
ATOM     13  H33 UNL     1      65.445  44.836  10.644  1.00  0.00     0.274 HD
ATOM     14  H32 UNL     1      66.697  44.383  11.391  1.00  0.00     0.274 HD
ATOM     15  H31 UNL     1      66.941  45.365  10.018  1.00  0.00     0.274 HD
ENDBRANCH  11  12
ENDBRANCH  10  11
ENDBRANCH   1  10
TORSDOF 6
ENDMDL
MODEL 4
REMARK VINA RESULT: -5.061259527      1.718      2.096
REMARK  6 active torsions:
REMARK  status: ('A' for Active; 'I' for Inactive)
REMARK    1  A    between atoms: C2_2  and  C3_3 
REMARK    2  A    between atoms: C3_3  and  C5_6 
REMARK    3  A    between atoms: C5_6  and  N2_7 
REMARK    4  A    between atoms: N2_7  and  C6_10 
REMARK    5  A    between atoms: C6_10  and  C7_11 
REMARK    6  A    between atoms: C7_11  and  N3_12 
ROOT
HETATM    1  N2  UNL     1      65.010  43.149   9.169  1.00  0.00    -0.070 N 
ATOM      2  H21 UNL     1      64.508  42.344   9.545  1.00  0.00     0.277 HD
ATOM      3  H22 UNL     1      64.327  43.421   8.461  1.00  0.00     0.277 HD
ENDROOT
BRANCH   1   4
HETATM    4  C5  UNL     1      66.270  42.795   8.607  1.00  0.00     0.271 C 
BRANCH   4   5
HETATM    5  C3  UNL     1      66.262  41.715   7.612  1.00  0.00    -0.020 C 
HETATM    6  C4  UNL     1      66.551  40.487   7.935  1.00  0.00     0.108 C 
HETATM    7  N1  UNL     1      66.545  39.442   6.975  1.00  0.00    -0.115 NA
BRANCH   5   8
HETATM    8  C2  UNL     1      65.923  42.029   6.232  1.00  0.00    -0.001 C 
HETATM    9  C1  UNL     1      66.659  41.620   5.207  1.00  0.00     0.012 C 
ENDBRANCH   5   8
ENDBRANCH   4   5
ENDBRANCH   1   4
BRANCH   1  10
HETATM   10  C6  UNL     1      65.226  44.183  10.161  1.00  0.00     0.260 C 
BRANCH  10  11
HETATM   11  C7  UNL     1      66.460  44.982   9.718  1.00  0.00     0.257 C 
BRANCH  11  12
HETATM   12  N3  UNL     1      66.307  46.310  10.292  1.00  0.00    -0.078 N 
ATOM     13  H33 UNL     1      67.161  46.669  10.718  1.00  0.00     0.274 HD
ATOM     14  H32 UNL     1      66.200  47.045   9.592  1.00  0.00     0.274 HD
ATOM     15  H31 UNL     1      65.523  46.249  10.941  1.00  0.00     0.274 HD
ENDBRANCH  11  12
ENDBRANCH  10  11
ENDBRANCH   1  10
TORSDOF 6
ENDMDL
MODEL 5
REMARK VINA RESULT: -4.896217628      1.066      1.348
REMARK  6 active torsions:
REMARK  status: ('A' for Active; 'I' for Inactive)
REMARK    1  A    between atoms: C2_2  and  C3_3 
REMARK    2  A    between atoms: C3_3  and  C5_6 
REMARK    3  A    between atoms: C5_6  and  N2_7 
REMARK    4  A    between atoms: N2_7  and  C6_10 
REMARK    5  A    between atoms: C6_10  and  C7_11 
REMARK    6  A    between atoms: C7_11  and  N3_12 
ROOT
HETATM    1  N2  UNL     1      65.473  42.606   8.408  1.00  0.00    -0.070 N 
ATOM      2  H21 UNL     1      65.221  41.647   8.648  1.00  0.00     0.277 HD
ATOM      3  H22 UNL     1      64.529  42.964   8.255  1.00  0.00     0.277 HD
ENDROOT
BRANCH   1   4
HETATM    4  C5  UNL     1      66.284  42.684   7.240  1.00  0.00     0.271 C 
BRANCH   4   5
HETATM    5  C3  UNL     1      66.277  41.509   6.360  1.00  0.00    -0.020 C 
HETATM    6  C4  UNL     1      66.289  41.628   5.062  1.00  0.00     0.108 C 
HETATM    7  N1  UNL     1      66.281  40.494   4.209  1.00  0.00    -0.115 NA
BRANCH   5   8
HETATM    8  C2  UNL     1      66.254  40.181   6.954  1.00  0.00    -0.001 C 
HETATM    9  C1  UNL     1      66.671  39.947   8.192  1.00  0.00     0.012 C 
ENDBRANCH   5   8
ENDBRANCH   4   5
ENDBRANCH   1   4
BRANCH   1  10
HETATM   10  C6  UNL     1      66.158  43.289   9.488  1.00  0.00     0.260 C 
BRANCH  10  11
HETATM   11  C7  UNL     1      65.141  44.234  10.141  1.00  0.00     0.257 C 
BRANCH  11  12
HETATM   12  N3  UNL     1      65.916  45.160  10.954  1.00  0.00    -0.078 N 
ATOM     13  H33 UNL     1      65.530  45.303  11.887  1.00  0.00     0.274 HD
ATOM     14  H32 UNL     1      66.817  44.785  11.249  1.00  0.00     0.274 HD
ATOM     15  H31 UNL     1      65.991  46.018  10.409  1.00  0.00     0.274 HD
ENDBRANCH  11  12
ENDBRANCH  10  11
ENDBRANCH   1  10
TORSDOF 6
ENDMDL
