MODEL 1
REMARK VINA RESULT: -5.898571245      0.000      0.000
REMARK  2 active torsions:
REMARK  status: ('A' for Active; 'I' for Inactive)
REMARK    1  A    between atoms: C3_4  and  C4_5 
REMARK    2  A    between atoms: C4_5  and  C5_6 
ROOT
HETATM    1  C4  UNL     1      66.145  42.058   7.826  1.00  0.00    -0.021 C 
HETATM    2  C7  UNL     1      66.488  40.762   8.209  1.00  0.00     0.111 C 
HETATM    3  N3  UNL     1      66.917  39.806   7.289  1.00  0.00    -0.114 NA
ENDROOT
BRANCH   1   4
HETATM    4  C3  UNL     1      65.739  42.878   8.880  1.00  0.00     0.034 C 
HETATM    5  C2  UNL     1      65.964  44.031   9.402  1.00  0.00     0.021 C 
HETATM    6  C1  UNL     1      65.130  44.392  10.656  1.00  0.00     0.065 C 
HETATM    7  N1  UNL     1      66.847  45.034   9.032  1.00  0.00    -0.107 NA
ENDBRANCH   1   4
BRANCH   1   8
HETATM    8  C5  UNL     1      66.282  42.266   6.429  1.00  0.00     0.027 C 
HETATM    9  C6  UNL     1      66.291  41.536   5.378  1.00  0.00     0.101 C 
HETATM   10  N2  UNL     1      66.465  42.179   4.073  1.00  0.00    -0.115 NA
ENDBRANCH   1   8
TORSDOF 2
ENDMDL
MODEL 2
REMARK VINA RESULT: -5.661372695      1.372      4.510
REMARK  2 active torsions:
REMARK  status: ('A' for Active; 'I' for Inactive)
REMARK    1  A    between atoms: C3_4  and  C4_5 
REMARK    2  A    between atoms: C4_5  and  C5_6 
ROOT
HETATM    1  C4  UNL     1      66.170  41.801   7.158  1.00  0.00    -0.021 C 
HETATM    2  C7  UNL     1      66.529  40.466   7.335  1.00  0.00     0.111 C 
HETATM    3  N3  UNL     1      66.450  39.835   8.576  1.00  0.00    -0.114 NA
ENDROOT
BRANCH   1   4
HETATM    4  C3  UNL     1      66.313  42.264   5.848  1.00  0.00     0.034 C 
HETATM    5  C2  UNL     1      66.393  41.845   4.636  1.00  0.00     0.021 C 
HETATM    6  C1  UNL     1      66.556  42.930   3.543  1.00  0.00     0.065 C 
HETATM    7  N1  UNL     1      66.359  40.559   4.120  1.00  0.00    -0.107 NA
ENDBRANCH   1   4
BRANCH   1   8
HETATM    8  C5  UNL     1      65.732  42.411   8.362  1.00  0.00     0.027 C 
HETATM    9  C6  UNL     1      66.034  43.456   9.036  1.00  0.00     0.101 C 
HETATM   10  N2  UNL     1      65.306  43.730  10.277  1.00  0.00    -0.115 NA
ENDBRANCH   1   8
TORSDOF 2
ENDMDL
MODEL 3
REMARK VINA RESULT: -5.011418249      1.220      1.276
REMARK  2 active torsions:
REMARK  status: ('A' for Active; 'I' for Inactive)
REMARK    1  A    between atoms: C3_4  and  C4_5 
REMARK    2  A    between atoms: C4_5  and  C5_6 
ROOT
HETATM    1  C4  UNL     1      66.318  41.954   7.667  1.00  0.00    -0.021 C 
HETATM    2  C7  UNL     1      66.462  40.857   8.515  1.00  0.00     0.111 C 
HETATM    3  N3  UNL     1      66.357  39.545   8.055  1.00  0.00    -0.114 NA
ENDROOT
BRANCH   1   4
HETATM    4  C3  UNL     1      66.455  43.191   8.301  1.00  0.00     0.034 C 
HETATM    5  C2  UNL     1      65.976  43.882   9.273  1.00  0.00     0.021 C 
HETATM    6  C1  UNL     1      66.590  45.288   9.485  1.00  0.00     0.065 C 
HETATM    7  N1  UNL     1      64.979  43.583  10.189  1.00  0.00    -0.107 NA
ENDBRANCH   1   4
BRANCH   1   8
HETATM    8  C5  UNL     1      66.059  41.573   6.326  1.00  0.00     0.027 C 
HETATM    9  C6  UNL     1      66.730  41.083   5.352  1.00  0.00     0.101 C 
HETATM   10  N2  UNL     1      66.049  40.829   4.081  1.00  0.00    -0.115 NA
ENDBRANCH   1   8
TORSDOF 2
ENDMDL
MODEL 4
REMARK VINA RESULT: -4.660103714      1.703      5.210
REMARK  2 active torsions:
REMARK  status: ('A' for Active; 'I' for Inactive)
REMARK    1  A    between atoms: C3_4  and  C4_5 
REMARK    2  A    between atoms: C4_5  and  C5_6 
ROOT
HETATM    1  C4  UNL     1      66.091  43.858   9.475  1.00  0.00    -0.021 C 
HETATM    2  C7  UNL     1      66.834  44.820   8.793  1.00  0.00     0.111 C 
HETATM    3  N3  UNL     1      66.808  46.168   9.149  1.00  0.00    -0.114 NA
ENDROOT
BRANCH   1   4
HETATM    4  C3  UNL     1      66.241  42.561   8.980  1.00  0.00     0.034 C 
HETATM    5  C2  UNL     1      66.270  41.902   7.878  1.00  0.00     0.021 C 
HETATM    6  C1  UNL     1      66.484  40.373   7.996  1.00  0.00     0.065 C 
HETATM    7  N1  UNL     1      66.139  42.330   6.565  1.00  0.00    -0.107 NA
ENDBRANCH   1   4
BRANCH   1   8
HETATM    8  C5  UNL     1      65.331  44.411  10.538  1.00  0.00     0.027 C 
HETATM    9  C6  UNL     1      65.467  45.368  11.377  1.00  0.00     0.101 C 
HETATM   10  N2  UNL     1      64.399  45.613  12.349  1.00  0.00    -0.115 NA
ENDBRANCH   1   8
TORSDOF 2
ENDMDL
MODEL 5
REMARK VINA RESULT: -4.342167332     11.535     12.292
REMARK  2 active torsions:
REMARK  status: ('A' for Active; 'I' for Inactive)
REMARK    1  A    between atoms: C3_4  and  C4_5 
REMARK    2  A    between atoms: C4_5  and  C5_6 
ROOT
HETATM    1  C4  UNL     1      69.301  52.118   1.531  1.00  0.00    -0.021 C 
HETATM    2  C7  UNL     1      68.572  50.968   1.232  1.00  0.00     0.111 C 
HETATM    3  N3  UNL     1      68.672  50.327  -0.002  1.00  0.00    -0.114 NA
ENDROOT
BRANCH   1   4
HETATM    4  C3  UNL     1      69.075  52.623   2.813  1.00  0.00     0.034 C 
HETATM    5  C2  UNL     1      68.180  53.220   3.516  1.00  0.00     0.021 C 
HETATM    6  C1  UNL     1      68.556  53.534   4.985  1.00  0.00     0.065 C 
HETATM    7  N1  UNL     1      66.903  53.646   3.182  1.00  0.00    -0.107 NA
ENDBRANCH   1   4
BRANCH   1   8
HETATM    8  C5  UNL     1      70.124  52.535   0.454  1.00  0.00     0.027 C 
HETATM    9  C6  UNL     1      70.435  53.646  -0.102  1.00  0.00     0.101 C 
HETATM   10  N2  UNL     1      71.361  53.633  -1.236  1.00  0.00    -0.115 NA
ENDBRANCH   1   8
TORSDOF 2
ENDMDL
