MODEL 1
REMARK VINA RESULT: -3.804913428      0.000      0.000
REMARK  5 active torsions:
REMARK  status: ('A' for Active; 'I' for Inactive)
REMARK    1  A    between atoms: C2_2  and  C3_3 
REMARK    2  A    between atoms: C3_3  and  N1_4 
REMARK    3  A    between atoms: C4_8  and  C5_9 
REMARK    4  A    between atoms: C4_8  and  C7_12 
REMARK    5  A    between atoms: C7_12  and  N3_13 
ROOT
HETATM    1  C1  UNL     1      70.479  52.959  -0.104  1.00  0.00     0.046 C 
HETATM    2  C2  UNL     1      69.757  51.674   0.190  1.00  0.00    -0.051 C 
HETATM    3  C4  UNL     1      69.190  51.552   1.376  1.00  0.00    -0.028 C 
ENDROOT
BRANCH   3   4
HETATM    4  C5  UNL     1      69.271  52.620   2.337  1.00  0.00     0.023 C 
HETATM    5  C6  UNL     1      68.416  53.337   2.970  1.00  0.00     0.100 C 
HETATM    6  N2  UNL     1      67.020  53.376   2.987  1.00  0.00    -0.115 NA
ENDBRANCH   3   4
BRANCH   3   7
HETATM    7  C7  UNL     1      68.494  50.288   1.663  1.00  0.00     0.268 C 
BRANCH   7   8
HETATM    8  N3  UNL     1      68.854  49.703   2.948  1.00  0.00    -0.075 N 
ATOM      9  H33 UNL     1      69.698  50.139   3.319  1.00  0.00     0.274 HD
ATOM     10  H32 UNL     1      68.189  49.979   3.670  1.00  0.00     0.274 HD
ATOM     11  H31 UNL     1      68.955  48.688   2.920  1.00  0.00     0.274 HD
ENDBRANCH   7   8
ENDBRANCH   3   7
BRANCH   2  12
HETATM   12  C3  UNL     1      69.779  50.700  -0.905  1.00  0.00     0.264 C 
BRANCH  12  13
HETATM   13  N1  UNL     1      71.040  49.930  -0.804  1.00  0.00    -0.076 N 
ATOM     14  H13 UNL     1      70.981  49.015  -1.251  1.00  0.00     0.274 HD
ATOM     15  H12 UNL     1      71.786  50.317  -1.382  1.00  0.00     0.274 HD
ATOM     16  H11 UNL     1      71.294  49.873   0.183  1.00  0.00     0.274 HD
ENDBRANCH  12  13
ENDBRANCH   2  12
TORSDOF 5
ENDMDL
MODEL 2
REMARK VINA RESULT: -3.777331250     10.568     12.736
REMARK  5 active torsions:
REMARK  status: ('A' for Active; 'I' for Inactive)
REMARK    1  A    between atoms: C2_2  and  C3_3 
REMARK    2  A    between atoms: C3_3  and  N1_4 
REMARK    3  A    between atoms: C4_8  and  C5_9 
REMARK    4  A    between atoms: C4_8  and  C7_12 
REMARK    5  A    between atoms: C7_12  and  N3_13 
ROOT
HETATM    1  C1  UNL     1      66.402  40.568   8.643  1.00  0.00     0.046 C 
HETATM    2  C2  UNL     1      66.320  41.716   7.676  1.00  0.00    -0.051 C 
HETATM    3  C4  UNL     1      66.388  41.434   6.388  1.00  0.00    -0.028 C 
ENDROOT
BRANCH   3   4
HETATM    4  C5  UNL     1      66.535  40.073   5.946  1.00  0.00     0.023 C 
HETATM    5  C6  UNL     1      65.864  39.290   5.185  1.00  0.00     0.100 C 
HETATM    6  N2  UNL     1      64.685  39.441   4.451  1.00  0.00    -0.115 NA
ENDBRANCH   3   4
BRANCH   3   7
HETATM    7  C7  UNL     1      66.319  42.563   5.447  1.00  0.00     0.268 C 
BRANCH   7   8
HETATM    8  N3  UNL     1      66.749  42.223   4.097  1.00  0.00    -0.075 N 
ATOM      9  H33 UNL     1      66.540  41.247   3.887  1.00  0.00     0.274 HD
ATOM     10  H32 UNL     1      66.154  42.677   3.404  1.00  0.00     0.274 HD
ATOM     11  H31 UNL     1      67.732  42.428   3.918  1.00  0.00     0.274 HD
ENDBRANCH   7   8
ENDBRANCH   3   7
BRANCH   2  12
HETATM   12  C3  UNL     1      66.173  43.032   8.306  1.00  0.00     0.264 C 
BRANCH  12  13
HETATM   13  N1  UNL     1      65.149  42.915   9.369  1.00  0.00    -0.076 N 
ATOM     14  H13 UNL     1      64.900  43.816   9.779  1.00  0.00     0.274 HD
ATOM     15  H12 UNL     1      64.227  42.672   9.005  1.00  0.00     0.274 HD
ATOM     16  H11 UNL     1      65.489  42.247  10.061  1.00  0.00     0.274 HD
ENDBRANCH  12  13
ENDBRANCH   2  12
TORSDOF 5
ENDMDL
MODEL 3
REMARK VINA RESULT: -3.563075081      2.307      4.285
REMARK  5 active torsions:
REMARK  status: ('A' for Active; 'I' for Inactive)
REMARK    1  A    between atoms: C2_2  and  C3_3 
REMARK    2  A    between atoms: C3_3  and  N1_4 
REMARK    3  A    between atoms: C4_8  and  C5_9 
REMARK    4  A    between atoms: C4_8  and  C7_12 
REMARK    5  A    between atoms: C7_12  and  N3_13 
ROOT
HETATM    1  C1  UNL     1      68.896  50.006   2.300  1.00  0.00     0.046 C 
HETATM    2  C2  UNL     1      68.859  51.377   1.686  1.00  0.00    -0.051 C 
HETATM    3  C4  UNL     1      68.473  51.471   0.427  1.00  0.00    -0.028 C 
ENDROOT
BRANCH   3   4
HETATM    4  C5  UNL     1      68.106  50.293  -0.313  1.00  0.00     0.023 C 
HETATM    5  C6  UNL     1      67.335  50.052  -1.310  1.00  0.00     0.100 C 
HETATM    6  N2  UNL     1      66.518  50.855  -2.108  1.00  0.00    -0.115 NA
ENDBRANCH   3   4
BRANCH   3   7
HETATM    7  C7  UNL     1      68.449  52.815  -0.172  1.00  0.00     0.268 C 
BRANCH   7   8
HETATM    8  N3  UNL     1      67.119  53.410  -0.213  1.00  0.00    -0.075 N 
ATOM      9  H33 UNL     1      66.412  52.701  -0.404  1.00  0.00     0.274 HD
ATOM     10  H32 UNL     1      66.823  53.697   0.720  1.00  0.00     0.274 HD
ATOM     11  H31 UNL     1      67.039  54.185  -0.871  1.00  0.00     0.274 HD
ENDBRANCH   7   8
ENDBRANCH   3   7
BRANCH   2  12
HETATM   12  C3  UNL     1      69.268  52.458   2.588  1.00  0.00     0.264 C 
BRANCH  12  13
HETATM   13  N1  UNL     1      68.589  52.247   3.887  1.00  0.00    -0.076 N 
ATOM     14  H13 UNL     1      68.117  51.345   3.945  1.00  0.00     0.274 HD
ATOM     15  H12 UNL     1      69.244  52.108   4.657  1.00  0.00     0.274 HD
ATOM     16  H11 UNL     1      67.959  53.035   4.043  1.00  0.00     0.274 HD
ENDBRANCH  12  13
ENDBRANCH   2  12
TORSDOF 5
ENDMDL
MODEL 4
REMARK VINA RESULT: -3.451482512      1.465      3.616
REMARK  5 active torsions:
REMARK  status: ('A' for Active; 'I' for Inactive)
REMARK    1  A    between atoms: C2_2  and  C3_3 
REMARK    2  A    between atoms: C3_3  and  N1_4 
REMARK    3  A    between atoms: C4_8  and  C5_9 
REMARK    4  A    between atoms: C4_8  and  C7_12 
REMARK    5  A    between atoms: C7_12  and  N3_13 
ROOT
HETATM    1  C1  UNL     1      69.976  53.575   0.794  1.00  0.00     0.046 C 
HETATM    2  C2  UNL     1      69.227  52.503   1.534  1.00  0.00    -0.051 C 
HETATM    3  C4  UNL     1      69.156  51.310   0.972  1.00  0.00    -0.028 C 
ENDROOT
BRANCH   3   4
HETATM    4  C5  UNL     1      69.777  51.066  -0.302  1.00  0.00     0.023 C 
HETATM    5  C6  UNL     1      69.402  50.533  -1.407  1.00  0.00     0.100 C 
HETATM    6  N2  UNL     1      68.205  49.959  -1.838  1.00  0.00    -0.115 NA
ENDBRANCH   3   4
BRANCH   3   7
HETATM    7  C7  UNL     1      68.413  50.267   1.697  1.00  0.00     0.268 C 
BRANCH   7   8
HETATM    8  N3  UNL     1      69.256  49.435   2.545  1.00  0.00    -0.075 N 
ATOM      9  H33 UNL     1      68.926  48.470   2.546  1.00  0.00     0.274 HD
ATOM     10  H32 UNL     1      70.173  49.300   2.121  1.00  0.00     0.274 HD
ATOM     11  H31 UNL     1      69.347  49.785   3.499  1.00  0.00     0.274 HD
ENDBRANCH   7   8
ENDBRANCH   3   7
BRANCH   2  12
HETATM   12  C3  UNL     1      68.660  52.932   2.816  1.00  0.00     0.264 C 
BRANCH  12  13
HETATM   13  N1  UNL     1      69.735  52.875   3.832  1.00  0.00    -0.076 N 
ATOM     14  H13 UNL     1      69.960  51.921   4.116  1.00  0.00     0.274 HD
ATOM     15  H12 UNL     1      70.649  53.124   3.454  1.00  0.00     0.274 HD
ATOM     16  H11 UNL     1      69.457  53.465   4.616  1.00  0.00     0.274 HD
ENDBRANCH  12  13
ENDBRANCH   2  12
TORSDOF 5
ENDMDL
MODEL 5
REMARK VINA RESULT: -3.242005904     17.038     17.423
REMARK  5 active torsions:
REMARK  status: ('A' for Active; 'I' for Inactive)
REMARK    1  A    between atoms: C2_2  and  C3_3 
REMARK    2  A    between atoms: C3_3  and  N1_4 
REMARK    3  A    between atoms: C4_8  and  C5_9 
REMARK    4  A    between atoms: C4_8  and  C7_12 
REMARK    5  A    between atoms: C7_12  and  N3_13 
ROOT
HETATM    1  C1  UNL     1      68.623  33.772   2.249  1.00  0.00     0.046 C 
HETATM    2  C2  UNL     1      69.426  34.128   1.029  1.00  0.00    -0.051 C 
HETATM    3  C4  UNL     1      68.785  34.191  -0.124  1.00  0.00    -0.028 C 
ENDROOT
BRANCH   3   4
HETATM    4  C5  UNL     1      67.373  33.925  -0.190  1.00  0.00     0.023 C 
HETATM    5  C6  UNL     1      66.357  34.539  -0.676  1.00  0.00     0.100 C 
HETATM    6  N2  UNL     1      66.201  35.746  -1.361  1.00  0.00    -0.115 NA
ENDBRANCH   3   4
BRANCH   3   7
HETATM    7  C7  UNL     1      69.578  34.530  -1.317  1.00  0.00     0.268 C 
BRANCH   7   8
HETATM    8  N3  UNL     1      69.448  35.923  -1.726  1.00  0.00    -0.075 N 
ATOM      9  H33 UNL     1      70.355  36.306  -1.991  1.00  0.00     0.274 HD
ATOM     10  H32 UNL     1      68.965  35.992  -2.621  1.00  0.00     0.274 HD
ATOM     11  H31 UNL     1      68.998  36.513  -1.026  1.00  0.00     0.274 HD
ENDBRANCH   7   8
ENDBRANCH   3   7
BRANCH   2  12
HETATM   12  C3  UNL     1      70.849  34.363   1.285  1.00  0.00     0.264 C 
BRANCH  12  13
HETATM   13  N1  UNL     1      70.995  34.776   2.699  1.00  0.00    -0.076 N 
ATOM     14  H13 UNL     1      70.453  35.611   2.925  1.00  0.00     0.274 HD
ATOM     15  H12 UNL     1      70.536  34.136   3.348  1.00  0.00     0.274 HD
ATOM     16  H11 UNL     1      71.991  34.888   2.893  1.00  0.00     0.274 HD
ENDBRANCH  12  13
ENDBRANCH   2  12
TORSDOF 5
ENDMDL
