MODEL 1
REMARK VINA RESULT: -5.344769272      0.000      0.000
REMARK  5 active torsions:
REMARK  status: ('A' for Active; 'I' for Inactive)
REMARK    1  A    between atoms: C2_2  and  C5_9 
REMARK    2  A    between atoms: C3_3  and  C4_4 
REMARK    3  A    between atoms: C4_4  and  N1_5 
REMARK    4  A    between atoms: C5_9  and  C7_12 
REMARK    5  A    between atoms: C7_12  and  N3_13 
ROOT
HETATM    1  C1  UNL     1      66.597  40.155   7.712  1.00  0.00     0.048 C 
HETATM    2  C2  UNL     1      66.299  41.394   6.997  1.00  0.00    -0.055 C 
HETATM    3  C3  UNL     1      66.055  42.485   7.705  1.00  0.00     0.007 C 
ENDROOT
BRANCH   2   4
HETATM    4  C5  UNL     1      66.271  41.453   5.568  1.00  0.00    -0.014 C 
HETATM    5  C6  UNL     1      65.945  40.538   4.747  1.00  0.00     0.109 C 
HETATM    6  N2  UNL     1      65.526  39.221   4.956  1.00  0.00    -0.115 NA
BRANCH   4   7
HETATM    7  C7  UNL     1      66.690  42.804   5.000  1.00  0.00     0.269 C 
BRANCH   7   8
HETATM    8  N3  UNL     1      66.408  42.920   3.605  1.00  0.00    -0.075 N 
ATOM      9  H33 UNL     1      67.175  42.550   3.044  1.00  0.00     0.274 HD
ATOM     10  H32 UNL     1      65.672  42.274   3.323  1.00  0.00     0.274 HD
ATOM     11  H31 UNL     1      66.181  43.877   3.331  1.00  0.00     0.274 HD
ENDBRANCH   7   8
ENDBRANCH   4   7
ENDBRANCH   2   4
BRANCH   3  12
HETATM   12  C4  UNL     1      66.038  42.652   9.161  1.00  0.00     0.257 C 
BRANCH  12  13
HETATM   13  N1  UNL     1      64.923  43.584   9.461  1.00  0.00    -0.076 N 
ATOM     14  H13 UNL     1      65.141  44.558   9.250  1.00  0.00     0.274 HD
ATOM     15  H12 UNL     1      64.134  43.491   8.822  1.00  0.00     0.274 HD
ATOM     16  H11 UNL     1      64.672  43.427  10.437  1.00  0.00     0.274 HD
ENDBRANCH  12  13
ENDBRANCH   3  12
TORSDOF 5
ENDMDL
MODEL 2
REMARK VINA RESULT: -4.377004082      0.794      2.173
REMARK  5 active torsions:
REMARK  status: ('A' for Active; 'I' for Inactive)
REMARK    1  A    between atoms: C2_2  and  C5_9 
REMARK    2  A    between atoms: C3_3  and  C4_4 
REMARK    3  A    between atoms: C4_4  and  N1_5 
REMARK    4  A    between atoms: C5_9  and  C7_12 
REMARK    5  A    between atoms: C7_12  and  N3_13 
ROOT
HETATM    1  C1  UNL     1      67.057  40.515   8.327  1.00  0.00     0.048 C 
HETATM    2  C2  UNL     1      66.441  41.417   7.357  1.00  0.00    -0.055 C 
HETATM    3  C3  UNL     1      66.072  42.621   7.764  1.00  0.00     0.007 C 
ENDROOT
BRANCH   2   4
HETATM    4  C5  UNL     1      66.237  41.034   5.994  1.00  0.00    -0.014 C 
HETATM    5  C6  UNL     1      66.311  41.760   4.952  1.00  0.00     0.109 C 
HETATM    6  N2  UNL     1      66.602  43.119   4.795  1.00  0.00    -0.115 NA
BRANCH   4   7
HETATM    7  C7  UNL     1      65.892  39.561   5.813  1.00  0.00     0.269 C 
BRANCH   7   8
HETATM    8  N3  UNL     1      65.098  39.325   4.649  1.00  0.00    -0.075 N 
ATOM      9  H33 UNL     1      64.446  38.556   4.801  1.00  0.00     0.274 HD
ATOM     10  H32 UNL     1      64.429  40.080   4.502  1.00  0.00     0.274 HD
ATOM     11  H31 UNL     1      65.665  39.169   3.816  1.00  0.00     0.274 HD
ENDBRANCH   7   8
ENDBRANCH   4   7
ENDBRANCH   2   4
BRANCH   3  12
HETATM   12  C4  UNL     1      66.192  43.219   9.096  1.00  0.00     0.257 C 
BRANCH  12  13
HETATM   13  N1  UNL     1      64.809  43.513   9.548  1.00  0.00    -0.076 N 
ATOM     14  H13 UNL     1      64.750  43.762  10.536  1.00  0.00     0.274 HD
ATOM     15  H12 UNL     1      64.439  44.387   9.176  1.00  0.00     0.274 HD
ATOM     16  H11 UNL     1      64.247  42.698   9.302  1.00  0.00     0.274 HD
ENDBRANCH  12  13
ENDBRANCH   3  12
TORSDOF 5
ENDMDL
MODEL 3
REMARK VINA RESULT: -4.191601996     10.138     11.299
REMARK  5 active torsions:
REMARK  status: ('A' for Active; 'I' for Inactive)
REMARK    1  A    between atoms: C2_2  and  C5_9 
REMARK    2  A    between atoms: C3_3  and  C4_4 
REMARK    3  A    between atoms: C4_4  and  N1_5 
REMARK    4  A    between atoms: C5_9  and  C7_12 
REMARK    5  A    between atoms: C7_12  and  N3_13 
ROOT
HETATM    1  C1  UNL     1      68.940  49.887   2.324  1.00  0.00     0.048 C 
HETATM    2  C2  UNL     1      68.881  50.945   1.318  1.00  0.00    -0.055 C 
HETATM    3  C3  UNL     1      68.793  52.199   1.730  1.00  0.00     0.007 C 
ENDROOT
BRANCH   2   4
HETATM    4  C5  UNL     1      68.923  50.659  -0.083  1.00  0.00    -0.014 C 
HETATM    5  C6  UNL     1      67.999  50.183  -0.818  1.00  0.00     0.109 C 
HETATM    6  N2  UNL     1      66.691  49.794  -0.516  1.00  0.00    -0.115 NA
BRANCH   4   7
HETATM    7  C7  UNL     1      70.259  50.983  -0.738  1.00  0.00     0.269 C 
BRANCH   7   8
HETATM    8  N3  UNL     1      71.170  49.883  -0.695  1.00  0.00    -0.075 N 
ATOM      9  H33 UNL     1      71.682  49.865   0.186  1.00  0.00     0.274 HD
ATOM     10  H32 UNL     1      70.672  48.997  -0.613  1.00  0.00     0.274 HD
ATOM     11  H31 UNL     1      71.807  49.873  -1.492  1.00  0.00     0.274 HD
ENDBRANCH   7   8
ENDBRANCH   4   7
ENDBRANCH   2   4
BRANCH   3  12
HETATM   12  C4  UNL     1      68.744  52.716   3.101  1.00  0.00     0.257 C 
BRANCH  12  13
HETATM   13  N1  UNL     1      67.370  53.240   3.301  1.00  0.00    -0.076 N 
ATOM     14  H13 UNL     1      66.972  53.663   2.462  1.00  0.00     0.274 HD
ATOM     15  H12 UNL     1      66.670  52.508   3.417  1.00  0.00     0.274 HD
ATOM     16  H11 UNL     1      67.420  53.881   4.093  1.00  0.00     0.274 HD
ENDBRANCH  12  13
ENDBRANCH   3  12
TORSDOF 5
ENDMDL
MODEL 4
REMARK VINA RESULT: -3.988814689     10.515     11.997
REMARK  5 active torsions:
REMARK  status: ('A' for Active; 'I' for Inactive)
REMARK    1  A    between atoms: C2_2  and  C5_9 
REMARK    2  A    between atoms: C3_3  and  C4_4 
REMARK    3  A    between atoms: C4_4  and  N1_5 
REMARK    4  A    between atoms: C5_9  and  C7_12 
REMARK    5  A    between atoms: C7_12  and  N3_13 
ROOT
HETATM    1  C1  UNL     1      67.462  53.646   1.861  1.00  0.00     0.048 C 
HETATM    2  C2  UNL     1      68.545  52.735   2.225  1.00  0.00    -0.055 C 
HETATM    3  C3  UNL     1      68.949  52.711   3.485  1.00  0.00     0.007 C 
ENDROOT
BRANCH   2   4
HETATM    4  C5  UNL     1      69.164  51.876   1.264  1.00  0.00    -0.014 C 
HETATM    5  C6  UNL     1      70.120  52.142   0.468  1.00  0.00     0.109 C 
HETATM    6  N2  UNL     1      70.854  53.316   0.272  1.00  0.00    -0.115 NA
BRANCH   4   7
HETATM    7  C7  UNL     1      68.574  50.471   1.223  1.00  0.00     0.269 C 
BRANCH   7   8
HETATM    8  N3  UNL     1      69.347  49.532   1.972  1.00  0.00    -0.075 N 
ATOM      9  H33 UNL     1      70.167  49.230   1.445  1.00  0.00     0.274 HD
ATOM     10  H32 UNL     1      69.815  49.984   2.757  1.00  0.00     0.274 HD
ATOM     11  H31 UNL     1      68.796  48.733   2.284  1.00  0.00     0.274 HD
ENDBRANCH   7   8
ENDBRANCH   4   7
ENDBRANCH   2   4
BRANCH   3  12
HETATM   12  C4  UNL     1      68.457  53.491   4.624  1.00  0.00     0.257 C 
BRANCH  12  13
HETATM   13  N1  UNL     1      68.202  52.519   5.716  1.00  0.00    -0.076 N 
ATOM     14  H13 UNL     1      68.609  52.798   6.610  1.00  0.00     0.274 HD
ATOM     15  H12 UNL     1      67.230  52.498   6.022  1.00  0.00     0.274 HD
ATOM     16  H11 UNL     1      68.540  51.616   5.382  1.00  0.00     0.274 HD
ENDBRANCH  12  13
ENDBRANCH   3  12
TORSDOF 5
ENDMDL
MODEL 5
REMARK VINA RESULT: -3.878851232     10.588     12.521
REMARK  5 active torsions:
REMARK  status: ('A' for Active; 'I' for Inactive)
REMARK    1  A    between atoms: C2_2  and  C5_9 
REMARK    2  A    between atoms: C3_3  and  C4_4 
REMARK    3  A    between atoms: C4_4  and  N1_5 
REMARK    4  A    between atoms: C5_9  and  C7_12 
REMARK    5  A    between atoms: C7_12  and  N3_13 
ROOT
HETATM    1  C1  UNL     1      68.945  50.226   2.269  1.00  0.00     0.048 C 
HETATM    2  C2  UNL     1      68.902  51.475   1.513  1.00  0.00    -0.055 C 
HETATM    3  C3  UNL     1      68.460  51.440   0.266  1.00  0.00     0.007 C 
ENDROOT
BRANCH   2   4
HETATM    4  C5  UNL     1      69.317  52.719   2.084  1.00  0.00    -0.014 C 
HETATM    5  C6  UNL     1      70.244  53.497   1.691  1.00  0.00     0.109 C 
HETATM    6  N2  UNL     1      71.133  53.400   0.617  1.00  0.00    -0.115 NA
BRANCH   4   7
HETATM    7  C7  UNL     1      68.519  53.127   3.317  1.00  0.00     0.269 C 
BRANCH   7   8
HETATM    8  N3  UNL     1      67.143  53.369   3.021  1.00  0.00    -0.075 N 
ATOM      9  H33 UNL     1      66.948  54.368   2.974  1.00  0.00     0.274 HD
ATOM     10  H32 UNL     1      66.924  53.113   2.058  1.00  0.00     0.274 HD
ATOM     11  H31 UNL     1      66.516  52.902   3.676  1.00  0.00     0.274 HD
ENDBRANCH   7   8
ENDBRANCH   4   7
ENDBRANCH   2   4
BRANCH   3  12
HETATM   12  C4  UNL     1      67.982  50.292  -0.508  1.00  0.00     0.257 C 
BRANCH  12  13
HETATM   13  N1  UNL     1      69.053  49.972  -1.485  1.00  0.00    -0.076 N 
ATOM     14  H13 UNL     1      68.715  49.468  -2.306  1.00  0.00     0.274 HD
ATOM     15  H12 UNL     1      69.409  50.791  -1.978  1.00  0.00     0.274 HD
ATOM     16  H11 UNL     1      69.772  49.467  -0.968  1.00  0.00     0.274 HD
ENDBRANCH  12  13
ENDBRANCH   3  12
TORSDOF 5
ENDMDL
