MODEL 1
REMARK VINA RESULT: -4.465503212      0.000      0.000
REMARK  3 active torsions:
REMARK  status: ('A' for Active; 'I' for Inactive)
REMARK    1  A    between atoms: C2_2  and  C3_3 
REMARK    2  A    between atoms: C3_3  and  C6_9 
REMARK    3  A    between atoms: C4_4  and  C5_5 
ROOT
HETATM    1  C3  UNL     1      66.328  41.467   6.485  1.00  0.00    -0.011 C 
HETATM    2  C4  UNL     1      66.080  42.475   7.356  1.00  0.00     0.030 C 
ENDROOT
BRANCH   1   3
HETATM    3  C2  UNL     1      66.537  40.185   7.013  1.00  0.00     0.003 C 
HETATM    4  C1  UNL     1      66.237  38.990   6.629  1.00  0.00     0.012 C 
ENDBRANCH   1   3
BRANCH   1   5
HETATM    5  C6  UNL     1      66.342  41.863   5.101  1.00  0.00     0.069 C 
HETATM    6  N2  UNL     1      66.331  40.772   4.100  1.00  0.00    -0.101 NA
HETATM    7  C7  UNL     1      66.364  43.045   4.571  1.00  0.00     0.127 C 
HETATM    8  N3  UNL     1      66.374  43.113   3.113  1.00  0.00    -0.113 NA
ENDBRANCH   1   5
BRANCH   2   9
HETATM    9  C5  UNL     1      66.004  42.391   8.777  1.00  0.00     0.081 C 
HETATM   10  N1  UNL     1      65.246  43.259   9.403  1.00  0.00    -0.408 N 
ATOM     11  H12 UNL     1      64.734  43.965   8.875  1.00  0.00     0.155 HD
ATOM     12  H11 UNL     1      65.191  43.199  10.420  1.00  0.00     0.155 HD
ENDBRANCH   2   9
TORSDOF 3
ENDMDL
MODEL 2
REMARK VINA RESULT: -4.232492412      1.294      3.916
REMARK  3 active torsions:
REMARK  status: ('A' for Active; 'I' for Inactive)
REMARK    1  A    between atoms: C2_2  and  C3_3 
REMARK    2  A    between atoms: C3_3  and  C6_9 
REMARK    3  A    between atoms: C4_4  and  C5_5 
ROOT
HETATM    1  C3  UNL     1      66.295  41.408   6.181  1.00  0.00    -0.011 C 
HETATM    2  C4  UNL     1      66.456  42.452   5.332  1.00  0.00     0.030 C 
ENDROOT
BRANCH   1   3
HETATM    3  C2  UNL     1      66.302  40.116   5.636  1.00  0.00     0.003 C 
HETATM    4  C1  UNL     1      65.419  39.380   5.049  1.00  0.00     0.012 C 
ENDBRANCH   1   3
BRANCH   1   5
HETATM    5  C6  UNL     1      66.136  41.781   7.562  1.00  0.00     0.069 C 
HETATM    6  N2  UNL     1      66.080  40.674   8.545  1.00  0.00    -0.101 NA
HETATM    7  C7  UNL     1      66.031  42.953   8.104  1.00  0.00     0.127 C 
HETATM    8  N3  UNL     1      65.878  42.997   9.555  1.00  0.00    -0.113 NA
ENDBRANCH   1   5
BRANCH   2   9
HETATM    9  C5  UNL     1      66.635  42.398   3.919  1.00  0.00     0.081 C 
HETATM   10  N1  UNL     1      66.373  43.479   3.225  1.00  0.00    -0.408 N 
ATOM     11  H12 UNL     1      66.051  44.324   3.697  1.00  0.00     0.155 HD
ATOM     12  H11 UNL     1      66.501  43.440   2.214  1.00  0.00     0.155 HD
ENDBRANCH   2   9
TORSDOF 3
ENDMDL
MODEL 3
REMARK VINA RESULT: -3.946051405     10.791     11.668
REMARK  3 active torsions:
REMARK  status: ('A' for Active; 'I' for Inactive)
REMARK    1  A    between atoms: C2_2  and  C3_3 
REMARK    2  A    between atoms: C3_3  and  C6_9 
REMARK    3  A    between atoms: C4_4  and  C5_5 
ROOT
HETATM    1  C3  UNL     1      69.030  52.485   2.454  1.00  0.00    -0.011 C 
HETATM    2  C4  UNL     1      68.567  52.493   3.727  1.00  0.00     0.030 C 
ENDROOT
BRANCH   1   3
HETATM    3  C2  UNL     1      69.874  53.532   2.059  1.00  0.00     0.003 C 
HETATM    4  C1  UNL     1      70.830  53.646   1.200  1.00  0.00     0.012 C 
ENDBRANCH   1   3
BRANCH   1   5
HETATM    5  C6  UNL     1      68.578  51.371   1.661  1.00  0.00     0.069 C 
HETATM    6  N2  UNL     1      68.562  50.048   2.327  1.00  0.00    -0.101 NA
HETATM    7  C7  UNL     1      68.172  51.331   0.431  1.00  0.00     0.127 C 
HETATM    8  N3  UNL     1      67.775  50.026  -0.089  1.00  0.00    -0.113 NA
ENDBRANCH   1   5
BRANCH   2   9
HETATM    9  C5  UNL     1      68.839  53.459   4.740  1.00  0.00     0.081 C 
HETATM   10  N1  UNL     1      68.580  53.134   5.983  1.00  0.00    -0.408 N 
ATOM     11  H12 UNL     1      68.196  52.215   6.202  1.00  0.00     0.155 HD
ATOM     12  H11 UNL     1      68.775  53.825   6.708  1.00  0.00     0.155 HD
ENDBRANCH   2   9
TORSDOF 3
ENDMDL
MODEL 4
REMARK VINA RESULT: -3.918990372      9.295     10.272
REMARK  3 active torsions:
REMARK  status: ('A' for Active; 'I' for Inactive)
REMARK    1  A    between atoms: C2_2  and  C3_3 
REMARK    2  A    between atoms: C3_3  and  C6_9 
REMARK    3  A    between atoms: C4_4  and  C5_5 
ROOT
HETATM    1  C3  UNL     1      68.601  35.598  -0.588  1.00  0.00    -0.011 C 
HETATM    2  C4  UNL     1      67.616  34.668  -0.589  1.00  0.00     0.030 C 
ENDROOT
BRANCH   1   3
HETATM    3  C2  UNL     1      68.301  36.868  -1.099  1.00  0.00     0.003 C 
HETATM    4  C1  UNL     1      68.692  38.067  -0.826  1.00  0.00     0.012 C 
ENDBRANCH   1   3
BRANCH   1   5
HETATM    5  C6  UNL     1      69.854  35.140  -0.047  1.00  0.00     0.069 C 
HETATM    6  N2  UNL     1      70.983  35.022  -0.999  1.00  0.00    -0.101 NA
HETATM    7  C7  UNL     1      70.168  34.803   1.165  1.00  0.00     0.127 C 
HETATM    8  N3  UNL     1      71.544  34.375   1.394  1.00  0.00    -0.113 NA
ENDBRANCH   1   5
BRANCH   2   9
HETATM    9  C5  UNL     1      66.279  34.826  -1.057  1.00  0.00     0.081 C 
HETATM   10  N1  UNL     1      65.322  34.218  -0.398  1.00  0.00    -0.408 N 
ATOM     11  H12 UNL     1      65.545  33.654   0.422  1.00  0.00     0.155 HD
ATOM     12  H11 UNL     1      64.365  34.331  -0.733  1.00  0.00     0.155 HD
ENDBRANCH   2   9
TORSDOF 3
ENDMDL
MODEL 5
REMARK VINA RESULT: -3.912732305      1.015      4.134
REMARK  3 active torsions:
REMARK  status: ('A' for Active; 'I' for Inactive)
REMARK    1  A    between atoms: C2_2  and  C3_3 
REMARK    2  A    between atoms: C3_3  and  C6_9 
REMARK    3  A    between atoms: C4_4  and  C5_5 
ROOT
HETATM    1  C3  UNL     1      66.254  41.751   7.445  1.00  0.00    -0.011 C 
HETATM    2  C4  UNL     1      66.297  42.405   6.259  1.00  0.00     0.030 C 
ENDROOT
BRANCH   1   3
HETATM    3  C2  UNL     1      66.392  40.356   7.427  1.00  0.00     0.003 C 
HETATM    4  C1  UNL     1      66.318  39.454   6.508  1.00  0.00     0.012 C 
ENDBRANCH   1   3
BRANCH   1   5
HETATM    5  C6  UNL     1      66.069  42.604   8.590  1.00  0.00     0.069 C 
HETATM    6  N2  UNL     1      67.265  42.857   9.427  1.00  0.00    -0.101 NA
HETATM    7  C7  UNL     1      65.004  43.203   9.021  1.00  0.00     0.127 C 
HETATM    8  N3  UNL     1      65.147  44.010  10.230  1.00  0.00    -0.113 NA
ENDBRANCH   1   5
BRANCH   2   9
HETATM    9  C5  UNL     1      66.468  41.835   4.963  1.00  0.00     0.081 C 
HETATM   10  N1  UNL     1      66.671  42.650   3.956  1.00  0.00    -0.408 N 
ATOM     11  H12 UNL     1      66.703  43.657   4.112  1.00  0.00     0.155 HD
ATOM     12  H11 UNL     1      66.794  42.242   3.029  1.00  0.00     0.155 HD
ENDBRANCH   2   9
TORSDOF 3
ENDMDL
