MODEL 1
REMARK VINA RESULT: -4.124865001      0.000      0.000
REMARK  6 active torsions:
REMARK  status: ('A' for Active; 'I' for Inactive)
REMARK    1  A    between atoms: C2_2  and  C3_3 
REMARK    2  A    between atoms: C3_3  and  N1_4 
REMARK    3  A    between atoms: C4_8  and  C5_9 
REMARK    4  A    between atoms: C4_8  and  C7_15 
REMARK    5  A    between atoms: C5_9  and  C6_10 
REMARK    6  A    between atoms: C6_10  and  N2_11 
ROOT
HETATM    1  C1  UNL     1      66.664  40.245   8.169  1.00  0.00     0.046 C 
HETATM    2  C2  UNL     1      66.254  41.921   7.498  1.00  0.00    -0.040 C 
HETATM    3  C4  UNL     1      66.254  41.462   6.179  1.00  0.00     0.023 C 
ENDROOT
BRANCH   3   4
HETATM    4  C5  UNL     1      66.444  42.453   5.330  1.00  0.00    -0.116 C 
BRANCH   4   5
HETATM    5  C6  UNL     1      66.648  43.518   4.418  1.00  0.00     0.315 C 
BRANCH   5   6
HETATM    6  N2  UNL     1      66.107  43.164   3.089  1.00  0.00    -0.070 N 
ATOM      7  H23 UNL     1      66.216  43.923   2.418  1.00  0.00     0.275 HD
ATOM      8  H22 UNL     1      66.681  42.464   2.618  1.00  0.00     0.275 HD
ATOM      9  H21 UNL     1      65.134  42.866   3.172  1.00  0.00     0.275 HD
ENDBRANCH   5   6
ENDBRANCH   4   5
ENDBRANCH   3   4
BRANCH   3  10
HETATM   10  C7  UNL     1      65.853  40.156   5.657  1.00  0.00     0.119 C 
HETATM   11  N3  UNL     1      65.768  39.877   4.283  1.00  0.00    -0.114 NA
ENDBRANCH   3  10
BRANCH   2  12
HETATM   12  C3  UNL     1      66.253  42.339   8.696  1.00  0.00     0.265 C 
BRANCH  12  13
HETATM   13  N1  UNL     1      65.044  43.203   8.953  1.00  0.00    -0.076 N 
ATOM     14  H13 UNL     1      64.545  43.424   8.091  1.00  0.00     0.274 HD
ATOM     15  H12 UNL     1      64.303  42.688   9.430  1.00  0.00     0.274 HD
ATOM     16  H11 UNL     1      65.309  44.045   9.464  1.00  0.00     0.274 HD
ENDBRANCH  12  13
ENDBRANCH   2  12
TORSDOF 6
ENDMDL
MODEL 2
REMARK VINA RESULT: -3.455444603      1.498      3.925
REMARK  6 active torsions:
REMARK  status: ('A' for Active; 'I' for Inactive)
REMARK    1  A    between atoms: C2_2  and  C3_3 
REMARK    2  A    between atoms: C3_3  and  N1_4 
REMARK    3  A    between atoms: C4_8  and  C5_9 
REMARK    4  A    between atoms: C4_8  and  C7_15 
REMARK    5  A    between atoms: C5_9  and  C6_10 
REMARK    6  A    between atoms: C6_10  and  N2_11 
ROOT
HETATM    1  C1  UNL     1      65.781  39.807   5.385  1.00  0.00     0.046 C 
HETATM    2  C2  UNL     1      66.248  41.560   5.752  1.00  0.00    -0.040 C 
HETATM    3  C4  UNL     1      66.249  41.338   7.130  1.00  0.00     0.023 C 
ENDROOT
BRANCH   3   4
HETATM    4  C5  UNL     1      66.099  42.467   7.794  1.00  0.00    -0.116 C 
BRANCH   4   5
HETATM    5  C6  UNL     1      65.937  43.681   8.508  1.00  0.00     0.315 C 
BRANCH   5   6
HETATM    6  N2  UNL     1      65.010  43.486   9.644  1.00  0.00    -0.070 N 
ATOM      7  H23 UNL     1      64.508  44.342   9.877  1.00  0.00     0.275 HD
ATOM      8  H22 UNL     1      64.211  42.907   9.389  1.00  0.00     0.275 HD
ATOM      9  H21 UNL     1      65.513  43.109  10.448  1.00  0.00     0.275 HD
ENDBRANCH   5   6
ENDBRANCH   4   5
ENDBRANCH   3   4
BRANCH   3  10
HETATM   10  C7  UNL     1      66.618  40.131   7.869  1.00  0.00     0.119 C 
HETATM   11  N3  UNL     1      67.564  40.132   8.908  1.00  0.00    -0.114 NA
ENDBRANCH   3  10
BRANCH   2  12
HETATM   12  C3  UNL     1      66.248  41.763   4.498  1.00  0.00     0.265 C 
BRANCH  12  13
HETATM   13  N1  UNL     1      66.690  43.172   4.192  1.00  0.00    -0.076 N 
ATOM     14  H13 UNL     1      65.920  43.744   3.844  1.00  0.00     0.274 HD
ATOM     15  H12 UNL     1      66.897  43.699   5.041  1.00  0.00     0.274 HD
ATOM     16  H11 UNL     1      67.480  43.166   3.547  1.00  0.00     0.274 HD
ENDBRANCH  12  13
ENDBRANCH   2  12
TORSDOF 6
ENDMDL
MODEL 3
REMARK VINA RESULT: -3.181275206      9.961     12.212
REMARK  6 active torsions:
REMARK  status: ('A' for Active; 'I' for Inactive)
REMARK    1  A    between atoms: C2_2  and  C3_3 
REMARK    2  A    between atoms: C3_3  and  N1_4 
REMARK    3  A    between atoms: C4_8  and  C5_9 
REMARK    4  A    between atoms: C4_8  and  C7_15 
REMARK    5  A    between atoms: C5_9  and  C6_10 
REMARK    6  A    between atoms: C6_10  and  N2_11 
ROOT
HETATM    1  C1  UNL     1      68.730  50.424  -1.148  1.00  0.00     0.046 C 
HETATM    2  C2  UNL     1      69.882  51.522  -0.201  1.00  0.00    -0.040 C 
HETATM    3  C4  UNL     1      69.133  51.403   0.971  1.00  0.00     0.023 C 
ENDROOT
BRANCH   3   4
HETATM    4  C5  UNL     1      69.371  52.406   1.792  1.00  0.00    -0.116 C 
BRANCH   4   5
HETATM    5  C6  UNL     1      69.627  53.485   2.675  1.00  0.00     0.315 C 
BRANCH   5   6
HETATM    6  N2  UNL     1      69.703  52.998   4.069  1.00  0.00    -0.070 N 
ATOM      7  H23 UNL     1      69.937  52.007   4.113  1.00  0.00     0.275 HD
ATOM      8  H22 UNL     1      70.519  53.367   4.558  1.00  0.00     0.275 HD
ATOM      9  H21 UNL     1      68.835  53.207   4.563  1.00  0.00     0.275 HD
ENDBRANCH   5   6
ENDBRANCH   4   5
ENDBRANCH   3   4
BRANCH   3  10
HETATM   10  C7  UNL     1      68.366  50.258   1.464  1.00  0.00     0.119 C 
HETATM   11  N3  UNL     1      68.657  49.611   2.676  1.00  0.00    -0.114 NA
ENDBRANCH   3  10
BRANCH   2  12
HETATM   12  C3  UNL     1      70.564  51.630  -1.267  1.00  0.00     0.265 C 
BRANCH  12  13
HETATM   13  N1  UNL     1      72.032  51.758  -0.944  1.00  0.00    -0.076 N 
ATOM     14  H13 UNL     1      72.319  51.100  -0.219  1.00  0.00     0.274 HD
ATOM     15  H12 UNL     1      72.619  51.413  -1.704  1.00  0.00     0.274 HD
ATOM     16  H11 UNL     1      72.260  52.721  -0.695  1.00  0.00     0.274 HD
ENDBRANCH  12  13
ENDBRANCH   2  12
TORSDOF 6
ENDMDL
MODEL 4
REMARK VINA RESULT: -3.155100075     10.451     12.190
REMARK  6 active torsions:
REMARK  status: ('A' for Active; 'I' for Inactive)
REMARK    1  A    between atoms: C2_2  and  C3_3 
REMARK    2  A    between atoms: C3_3  and  N1_4 
REMARK    3  A    between atoms: C4_8  and  C5_9 
REMARK    4  A    between atoms: C4_8  and  C7_15 
REMARK    5  A    between atoms: C5_9  and  C6_10 
REMARK    6  A    between atoms: C6_10  and  N2_11 
ROOT
HETATM    1  C1  UNL     1      69.061  50.199  -2.126  1.00  0.00     0.046 C 
HETATM    2  C2  UNL     1      70.118  50.897  -0.776  1.00  0.00    -0.040 C 
HETATM    3  C4  UNL     1      69.030  51.043   0.087  1.00  0.00     0.023 C 
ENDROOT
BRANCH   3   4
HETATM    4  C5  UNL     1      69.281  51.937   1.023  1.00  0.00    -0.116 C 
BRANCH   4   5
HETATM    5  C6  UNL     1      69.550  52.898   2.029  1.00  0.00     0.315 C 
BRANCH   5   6
HETATM    6  N2  UNL     1      69.396  52.292   3.369  1.00  0.00    -0.070 N 
ATOM      7  H23 UNL     1      70.288  51.977   3.749  1.00  0.00     0.275 HD
ATOM      8  H22 UNL     1      69.168  52.988   4.078  1.00  0.00     0.275 HD
ATOM      9  H21 UNL     1      68.708  51.539   3.338  1.00  0.00     0.275 HD
ENDBRANCH   5   6
ENDBRANCH   4   5
ENDBRANCH   3   4
BRANCH   3  10
HETATM   10  C7  UNL     1      67.836  50.207   0.215  1.00  0.00     0.119 C 
HETATM   11  N3  UNL     1      67.239  49.914   1.452  1.00  0.00    -0.114 NA
ENDBRANCH   3  10
BRANCH   2  12
HETATM   12  C3  UNL     1      71.108  50.765  -1.559  1.00  0.00     0.265 C 
BRANCH  12  13
HETATM   13  N1  UNL     1      72.366  51.289  -0.914  1.00  0.00    -0.076 N 
ATOM     14  H13 UNL     1      72.384  52.309  -0.890  1.00  0.00     0.274 HD
ATOM     15  H12 UNL     1      72.379  51.114   0.091  1.00  0.00     0.274 HD
ATOM     16  H11 UNL     1      73.191  50.906  -1.377  1.00  0.00     0.274 HD
ENDBRANCH  12  13
ENDBRANCH   2  12
TORSDOF 6
ENDMDL
MODEL 5
REMARK VINA RESULT: -2.846735002     10.811     12.148
REMARK  6 active torsions:
REMARK  status: ('A' for Active; 'I' for Inactive)
REMARK    1  A    between atoms: C2_2  and  C3_3 
REMARK    2  A    between atoms: C3_3  and  N1_4 
REMARK    3  A    between atoms: C4_8  and  C5_9 
REMARK    4  A    between atoms: C4_8  and  C7_15 
REMARK    5  A    between atoms: C5_9  and  C6_10 
REMARK    6  A    between atoms: C6_10  and  N2_11 
ROOT
HETATM    1  C1  UNL     1      69.901  53.646   1.940  1.00  0.00     0.046 C 
HETATM    2  C2  UNL     1      69.302  51.952   1.496  1.00  0.00    -0.040 C 
HETATM    3  C4  UNL     1      69.659  52.109   0.155  1.00  0.00     0.023 C 
ENDROOT
BRANCH   3   4
HETATM    4  C5  UNL     1      68.986  51.279  -0.617  1.00  0.00    -0.116 C 
BRANCH   4   5
HETATM    5  C6  UNL     1      68.262  50.386  -1.447  1.00  0.00     0.315 C 
BRANCH   5   6
HETATM    6  N2  UNL     1      67.002  49.984  -0.786  1.00  0.00    -0.070 N 
ATOM      7  H23 UNL     1      66.979  50.264   0.194  1.00  0.00     0.275 HD
ATOM      8  H22 UNL     1      66.206  50.530  -1.116  1.00  0.00     0.275 HD
ATOM      9  H21 UNL     1      66.849  48.981  -0.899  1.00  0.00     0.275 HD
ENDBRANCH   5   6
ENDBRANCH   4   5
ENDBRANCH   3   4
BRANCH   3  10
HETATM   10  C7  UNL     1      70.782  52.850  -0.419  1.00  0.00     0.119 C 
HETATM   11  N3  UNL     1      71.899  52.219  -0.991  1.00  0.00    -0.114 NA
ENDBRANCH   3  10
BRANCH   2  12
HETATM   12  C3  UNL     1      68.977  51.808   2.715  1.00  0.00     0.265 C 
BRANCH  12  13
HETATM   13  N1  UNL     1      68.890  50.345   3.069  1.00  0.00    -0.076 N 
ATOM     14  H13 UNL     1      69.733  49.838   2.798  1.00  0.00     0.274 HD
ATOM     15  H12 UNL     1      68.941  50.195   4.077  1.00  0.00     0.274 HD
ATOM     16  H11 UNL     1      68.050  49.929   2.666  1.00  0.00     0.274 HD
ENDBRANCH  12  13
ENDBRANCH   2  12
TORSDOF 6
ENDMDL
