MODEL 1
REMARK VINA RESULT: -6.980623477      0.000      0.000
REMARK  13 active torsions:
REMARK  status: ('A' for Active; 'I' for Inactive)
REMARK    1  A    between atoms: C2_2  and  O1_4 
REMARK    2  A    between atoms: C2_2  and  C4_6 
REMARK    3  A    between atoms: C5_7  and  C6_8 
REMARK    4  A    between atoms: C7_9  and  C8_10 
REMARK    5  A    between atoms: C9_11  and  C10_12 
REMARK    6  A    between atoms: C10_12  and  N1_13 
REMARK    7  A    between atoms: N1_13  and  C11_14 
REMARK       I    between atoms: N1_13  and  C16_20 
REMARK    8  A    between atoms: C11_14  and  C12_15 
REMARK    9  A    between atoms: C12_15  and  N2_16 
REMARK   10  A    between atoms: C16_20  and  C17_22 
REMARK       I    between atoms: C17_22  and  N3_24 
REMARK   11  A    between atoms: N3_24  and  C18_26 
REMARK   12  A    between atoms: C25_33  and  C26_34 
REMARK   13  A    between atoms: C26_34  and  O4_35 
ROOT
HETATM    1  N1  UNL     1      -0.986   3.487  24.188  1.00  0.00    -0.339 N 
HETATM    2  C16 UNL     1      -0.061   2.707  23.511  1.00  0.00     0.312 C 
HETATM    3  O2  UNL     1       0.703   1.920  24.177  1.00  0.00    -0.262 OA
ENDROOT
BRANCH   2   4
HETATM    4  C17 UNL     1       0.107   2.719  22.056  1.00  0.00     0.313 C 
HETATM    5  O3  UNL     1       0.164   3.764  21.399  1.00  0.00    -0.262 OA
HETATM    6  N3  UNL     1       0.210   1.496  21.363  1.00  0.00    -0.329 N 
ATOM      7  H3  UNL     1       0.186   0.676  21.969  1.00  0.00     0.168 HD
BRANCH   6   8
HETATM    8  C18 UNL     1       0.337   1.199  20.029  1.00  0.00     0.097 C 
HETATM    9  C19 UNL     1       0.226  -0.024  19.303  1.00  0.00    -0.028 C 
HETATM   10  C20 UNL     1       1.144  -1.194  19.583  1.00  0.00    -0.014 C 
HETATM   11  C28 UNL     1      -0.866  -0.940  19.001  1.00  0.00     0.059 C 
HETATM   12  C21 UNL     1       2.545  -0.957  19.059  1.00  0.00     0.020 C 
HETATM   13  C22 UNL     1       1.204  -1.765  20.935  1.00  0.00     0.020 C 
HETATM   14  C23 UNL     1       0.221  -1.975  18.674  1.00  0.00     0.031 C 
HETATM   15  C24 UNL     1       0.545  -2.206  17.281  1.00  0.00     0.024 C 
HETATM   16  C25 UNL     1       0.097  -1.289  16.215  1.00  0.00     0.102 C 
HETATM   17  C27 UNL     1      -1.235  -0.767  16.487  1.00  0.00     0.224 C 
HETATM   18  O5  UNL     1      -2.014  -0.435  15.527  1.00  0.00    -0.273 OA
HETATM   19  N4  UNL     1      -1.669  -0.628  17.815  1.00  0.00    -0.347 N 
ATOM     20  H4  UNL     1      -2.617  -0.284  17.965  1.00  0.00     0.163 HD
HETATM   21  C29 UNL     1      -1.823  -1.462  20.032  1.00  0.00     0.044 C 
BRANCH  16  22
HETATM   22  C26 UNL     1      -0.011  -2.096  14.910  1.00  0.00     0.178 C 
BRANCH  22  23
HETATM   23  O4  UNL     1       0.309  -1.314  13.815  1.00  0.00    -0.400 OA
ATOM     24  H4  UNL     1       1.234  -1.378  13.609  1.00  0.00     0.209 HD
ENDBRANCH  22  23
ENDBRANCH  16  22
ENDBRANCH   6   8
ENDBRANCH   2   4
BRANCH   1  25
HETATM   25  C10 UNL     1      -0.979   3.307  25.676  1.00  0.00     0.154 C 
BRANCH  25  26
HETATM   26  C9  UNL     1      -2.114   4.104  26.166  1.00  0.00     0.002 C 
HETATM   27  C8  UNL     1      -1.976   4.857  27.238  1.00  0.00     0.063 C 
BRANCH  27  28
HETATM   28  C7  UNL     1      -3.110   5.616  27.677  1.00  0.00    -0.065 C 
HETATM   29  C6  UNL     1      -4.077   6.245  28.061  1.00  0.00    -0.010 C 
BRANCH  29  30
HETATM   30  C5  UNL     1      -5.215   6.958  28.519  1.00  0.00    -0.012 C 
HETATM   31  C4  UNL     1      -6.191   7.547  28.912  1.00  0.00    -0.055 C 
BRANCH  31  32
HETATM   32  C2  UNL     1      -7.372   8.261  29.417  1.00  0.00     0.114 C 
HETATM   33  C1  UNL     1      -7.535   8.101  30.915  1.00  0.00     0.060 C 
HETATM   34  C3  UNL     1      -7.237   9.747  29.114  1.00  0.00     0.060 C 
BRANCH  32  35
HETATM   35  O1  UNL     1      -8.501   7.758  28.778  1.00  0.00    -0.378 OA
ATOM     36  H1  UNL     1      -8.231   7.144  28.105  1.00  0.00     0.211 HD
ENDBRANCH  32  35
ENDBRANCH  31  32
ENDBRANCH  29  30
ENDBRANCH  27  28
ENDBRANCH  25  26
ENDBRANCH   1  25
BRANCH   1  37
HETATM   37  C11 UNL     1      -1.916   4.419  23.622  1.00  0.00     0.154 C 
BRANCH  37  38
HETATM   38  C12 UNL     1      -3.016   3.650  22.935  1.00  0.00     0.255 C 
BRANCH  38  39
HETATM   39  N2  UNL     1      -3.526   4.353  21.767  1.00  0.00    -0.077 N 
HETATM   40  C13 UNL     1      -2.844   5.625  21.707  1.00  0.00     0.271 C 
HETATM   41  C14 UNL     1      -3.268   3.589  20.564  1.00  0.00     0.271 C 
HETATM   42  C15 UNL     1      -4.958   4.564  21.849  1.00  0.00     0.271 C 
ENDBRANCH  38  39
ENDBRANCH  37  38
ENDBRANCH   1  37
TORSDOF 13
ENDMDL
MODEL 2
REMARK VINA RESULT: -6.856168952      0.949      1.099
REMARK  13 active torsions:
REMARK  status: ('A' for Active; 'I' for Inactive)
REMARK    1  A    between atoms: C2_2  and  O1_4 
REMARK    2  A    between atoms: C2_2  and  C4_6 
REMARK    3  A    between atoms: C5_7  and  C6_8 
REMARK    4  A    between atoms: C7_9  and  C8_10 
REMARK    5  A    between atoms: C9_11  and  C10_12 
REMARK    6  A    between atoms: C10_12  and  N1_13 
REMARK    7  A    between atoms: N1_13  and  C11_14 
REMARK       I    between atoms: N1_13  and  C16_20 
REMARK    8  A    between atoms: C11_14  and  C12_15 
REMARK    9  A    between atoms: C12_15  and  N2_16 
REMARK   10  A    between atoms: C16_20  and  C17_22 
REMARK       I    between atoms: C17_22  and  N3_24 
REMARK   11  A    between atoms: N3_24  and  C18_26 
REMARK   12  A    between atoms: C25_33  and  C26_34 
REMARK   13  A    between atoms: C26_34  and  O4_35 
ROOT
HETATM    1  N1  UNL     1      -1.151   3.297  23.448  1.00  0.00    -0.339 N 
HETATM    2  C16 UNL     1      -0.383   2.308  22.850  1.00  0.00     0.312 C 
HETATM    3  O2  UNL     1       0.557   1.751  23.522  1.00  0.00    -0.262 OA
ENDROOT
BRANCH   2   4
HETATM    4  C17 UNL     1      -0.579   1.844  21.475  1.00  0.00     0.313 C 
HETATM    5  O3  UNL     1      -1.698   1.714  20.967  1.00  0.00    -0.262 OA
HETATM    6  N3  UNL     1       0.545   1.529  20.687  1.00  0.00    -0.329 N 
ATOM      7  H3  UNL     1       1.436   1.686  21.157  1.00  0.00     0.168 HD
BRANCH   6   8
HETATM    8  C18 UNL     1       0.670   1.050  19.406  1.00  0.00     0.097 C 
HETATM    9  C19 UNL     1       0.431  -0.234  18.832  1.00  0.00    -0.028 C 
HETATM   10  C20 UNL     1       1.195  -1.458  19.293  1.00  0.00    -0.014 C 
HETATM   11  C28 UNL     1      -0.754  -1.048  18.603  1.00  0.00     0.059 C 
HETATM   12  C21 UNL     1       2.626  -1.454  18.802  1.00  0.00     0.020 C 
HETATM   13  C22 UNL     1       1.150  -1.854  20.707  1.00  0.00     0.020 C 
HETATM   14  C23 UNL     1       0.208  -2.236  18.451  1.00  0.00     0.031 C 
HETATM   15  C24 UNL     1       0.538  -2.679  17.112  1.00  0.00     0.024 C 
HETATM   16  C25 UNL     1       0.231  -1.860  15.923  1.00  0.00     0.102 C 
HETATM   17  C27 UNL     1      -1.035  -1.157  16.073  1.00  0.00     0.224 C 
HETATM   18  O5  UNL     1      -1.743  -0.862  15.049  1.00  0.00    -0.273 OA
HETATM   19  N4  UNL     1      -1.483  -0.799  17.354  1.00  0.00    -0.347 N 
ATOM     20  H4  UNL     1      -2.386  -0.331  17.422  1.00  0.00     0.163 HD
HETATM   21  C29 UNL     1      -1.794  -1.319  19.650  1.00  0.00     0.044 C 
BRANCH  16  22
HETATM   22  C26 UNL     1       0.061  -2.809  14.724  1.00  0.00     0.178 C 
BRANCH  22  23
HETATM   23  O4  UNL     1       0.191  -2.126  13.529  1.00  0.00    -0.400 OA
ATOM     24  H4  UNL     1       0.350  -2.726  12.809  1.00  0.00     0.209 HD
ENDBRANCH  22  23
ENDBRANCH  16  22
ENDBRANCH   6   8
ENDBRANCH   2   4
BRANCH   1  25
HETATM   25  C10 UNL     1      -0.768   3.606  24.865  1.00  0.00     0.154 C 
BRANCH  25  26
HETATM   26  C9  UNL     1      -1.930   4.310  25.431  1.00  0.00     0.002 C 
HETATM   27  C8  UNL     1      -1.846   4.865  26.622  1.00  0.00     0.063 C 
BRANCH  27  28
HETATM   28  C7  UNL     1      -3.004   5.540  27.132  1.00  0.00    -0.065 C 
HETATM   29  C6  UNL     1      -3.975   6.115  27.582  1.00  0.00    -0.010 C 
BRANCH  29  30
HETATM   30  C5  UNL     1      -5.102   6.783  28.129  1.00  0.00    -0.012 C 
HETATM   31  C4  UNL     1      -6.057   7.339  28.611  1.00  0.00    -0.055 C 
BRANCH  31  32
HETATM   32  C2  UNL     1      -7.205   8.032  29.213  1.00  0.00     0.114 C 
HETATM   33  C1  UNL     1      -7.307   7.772  30.702  1.00  0.00     0.060 C 
HETATM   34  C3  UNL     1      -7.060   9.533  29.005  1.00  0.00     0.060 C 
BRANCH  32  35
HETATM   35  O1  UNL     1      -8.367   7.587  28.590  1.00  0.00    -0.378 OA
ATOM     36  H1  UNL     1      -8.134   7.017  27.867  1.00  0.00     0.211 HD
ENDBRANCH  32  35
ENDBRANCH  31  32
ENDBRANCH  29  30
ENDBRANCH  27  28
ENDBRANCH  25  26
ENDBRANCH   1  25
BRANCH   1  37
HETATM   37  C11 UNL     1      -2.234   4.028  22.862  1.00  0.00     0.154 C 
BRANCH  37  38
HETATM   38  C12 UNL     1      -1.667   5.122  21.994  1.00  0.00     0.255 C 
BRANCH  38  39
HETATM   39  N2  UNL     1      -2.456   5.326  20.788  1.00  0.00    -0.077 N 
HETATM   40  C13 UNL     1      -1.608   4.995  19.666  1.00  0.00     0.271 C 
HETATM   41  C14 UNL     1      -3.627   4.474  20.799  1.00  0.00     0.271 C 
HETATM   42  C15 UNL     1      -2.917   6.696  20.671  1.00  0.00     0.271 C 
ENDBRANCH  38  39
ENDBRANCH  37  38
ENDBRANCH   1  37
TORSDOF 13
ENDMDL
MODEL 3
REMARK VINA RESULT: -6.592016594      3.281      4.833
REMARK  13 active torsions:
REMARK  status: ('A' for Active; 'I' for Inactive)
REMARK    1  A    between atoms: C2_2  and  O1_4 
REMARK    2  A    between atoms: C2_2  and  C4_6 
REMARK    3  A    between atoms: C5_7  and  C6_8 
REMARK    4  A    between atoms: C7_9  and  C8_10 
REMARK    5  A    between atoms: C9_11  and  C10_12 
REMARK    6  A    between atoms: C10_12  and  N1_13 
REMARK    7  A    between atoms: N1_13  and  C11_14 
REMARK       I    between atoms: N1_13  and  C16_20 
REMARK    8  A    between atoms: C11_14  and  C12_15 
REMARK    9  A    between atoms: C12_15  and  N2_16 
REMARK   10  A    between atoms: C16_20  and  C17_22 
REMARK       I    between atoms: C17_22  and  N3_24 
REMARK   11  A    between atoms: N3_24  and  C18_26 
REMARK   12  A    between atoms: C25_33  and  C26_34 
REMARK   13  A    between atoms: C26_34  and  O4_35 
ROOT
HETATM    1  N1  UNL     1      -3.380   1.768  21.694  1.00  0.00    -0.339 N 
HETATM    2  C16 UNL     1      -3.476   0.421  21.373  1.00  0.00     0.312 C 
HETATM    3  O2  UNL     1      -4.536  -0.226  21.693  1.00  0.00    -0.262 OA
ENDROOT
BRANCH   2   4
HETATM    4  C17 UNL     1      -2.426  -0.328  20.678  1.00  0.00     0.313 C 
HETATM    5  O3  UNL     1      -2.312  -0.330  19.448  1.00  0.00    -0.262 OA
HETATM    6  N3  UNL     1      -1.503  -1.080  21.430  1.00  0.00    -0.329 N 
ATOM      7  H3  UNL     1      -1.637  -1.010  22.438  1.00  0.00     0.168 HD
BRANCH   6   8
HETATM    8  C18 UNL     1      -0.456  -1.890  21.064  1.00  0.00     0.097 C 
HETATM    9  C19 UNL     1       0.940  -1.645  20.908  1.00  0.00    -0.028 C 
HETATM   10  C20 UNL     1       1.456  -0.637  19.902  1.00  0.00    -0.014 C 
HETATM   11  C28 UNL     1       2.029  -1.310  21.815  1.00  0.00     0.059 C 
HETATM   12  C21 UNL     1       1.339  -1.141  18.479  1.00  0.00     0.020 C 
HETATM   13  C22 UNL     1       1.010   0.761  19.978  1.00  0.00     0.020 C 
HETATM   14  C23 UNL     1       2.797  -0.845  20.569  1.00  0.00     0.031 C 
HETATM   15  C24 UNL     1       3.792  -1.736  20.010  1.00  0.00     0.024 C 
HETATM   16  C25 UNL     1       3.873  -3.157  20.402  1.00  0.00     0.102 C 
HETATM   17  C27 UNL     1       3.572  -3.337  21.815  1.00  0.00     0.224 C 
HETATM   18  O5  UNL     1       4.087  -4.306  22.473  1.00  0.00    -0.273 OA
HETATM   19  N4  UNL     1       2.708  -2.439  22.461  1.00  0.00    -0.347 N 
ATOM     20  H4  UNL     1       2.540  -2.582  23.456  1.00  0.00     0.163 HD
HETATM   21  C29 UNL     1       1.949  -0.223  22.845  1.00  0.00     0.044 C 
BRANCH  16  22
HETATM   22  C26 UNL     1       5.328  -3.620  20.206  1.00  0.00     0.178 C 
BRANCH  22  23
HETATM   23  O4  UNL     1       6.174  -2.990  21.100  1.00  0.00    -0.400 OA
ATOM     24  H4  UNL     1       6.011  -2.054  21.121  1.00  0.00     0.209 HD
ENDBRANCH  22  23
ENDBRANCH  16  22
ENDBRANCH   6   8
ENDBRANCH   2   4
BRANCH   1  25
HETATM   25  C10 UNL     1      -4.579   2.322  22.405  1.00  0.00     0.154 C 
BRANCH  25  26
HETATM   26  C9  UNL     1      -4.048   2.930  23.635  1.00  0.00     0.002 C 
HETATM   27  C8  UNL     1      -4.448   4.131  24.000  1.00  0.00     0.063 C 
BRANCH  27  28
HETATM   28  C7  UNL     1      -3.903   4.682  25.207  1.00  0.00    -0.065 C 
HETATM   29  C6  UNL     1      -3.447   5.167  26.223  1.00  0.00    -0.010 C 
BRANCH  29  30
HETATM   30  C5  UNL     1      -2.915   5.756  27.400  1.00  0.00    -0.012 C 
HETATM   31  C4  UNL     1      -2.481   6.254  28.409  1.00  0.00    -0.055 C 
BRANCH  31  32
HETATM   32  C2  UNL     1      -1.950   6.837  29.648  1.00  0.00     0.114 C 
HETATM   33  C1  UNL     1      -1.842   5.810  30.758  1.00  0.00     0.060 C 
HETATM   34  C3  UNL     1      -0.560   7.402  29.392  1.00  0.00     0.060 C 
BRANCH  32  35
HETATM   35  O1  UNL     1      -2.799   7.862  30.055  1.00  0.00    -0.378 OA
ATOM     36  H1  UNL     1      -2.815   8.537  29.387  1.00  0.00     0.211 HD
ENDBRANCH  32  35
ENDBRANCH  31  32
ENDBRANCH  29  30
ENDBRANCH  27  28
ENDBRANCH  25  26
ENDBRANCH   1  25
BRANCH   1  37
HETATM   37  C11 UNL     1      -2.284   2.649  21.423  1.00  0.00     0.154 C 
BRANCH  37  38
HETATM   38  C12 UNL     1      -2.713   3.650  20.380  1.00  0.00     0.255 C 
BRANCH  38  39
HETATM   39  N2  UNL     1      -2.305   5.004  20.723  1.00  0.00    -0.077 N 
HETATM   40  C13 UNL     1      -1.471   4.910  21.899  1.00  0.00     0.271 C 
HETATM   41  C14 UNL     1      -1.566   5.602  19.631  1.00  0.00     0.271 C 
HETATM   42  C15 UNL     1      -3.446   5.857  20.995  1.00  0.00     0.271 C 
ENDBRANCH  38  39
ENDBRANCH  37  38
ENDBRANCH   1  37
TORSDOF 13
ENDMDL
MODEL 4
REMARK VINA RESULT: -6.505546953      2.670      3.191
REMARK  13 active torsions:
REMARK  status: ('A' for Active; 'I' for Inactive)
REMARK    1  A    between atoms: C2_2  and  O1_4 
REMARK    2  A    between atoms: C2_2  and  C4_6 
REMARK    3  A    between atoms: C5_7  and  C6_8 
REMARK    4  A    between atoms: C7_9  and  C8_10 
REMARK    5  A    between atoms: C9_11  and  C10_12 
REMARK    6  A    between atoms: C10_12  and  N1_13 
REMARK    7  A    between atoms: N1_13  and  C11_14 
REMARK       I    between atoms: N1_13  and  C16_20 
REMARK    8  A    between atoms: C11_14  and  C12_15 
REMARK    9  A    between atoms: C12_15  and  N2_16 
REMARK   10  A    between atoms: C16_20  and  C17_22 
REMARK       I    between atoms: C17_22  and  N3_24 
REMARK   11  A    between atoms: N3_24  and  C18_26 
REMARK   12  A    between atoms: C25_33  and  C26_34 
REMARK   13  A    between atoms: C26_34  and  O4_35 
ROOT
HETATM    1  N1  UNL     1      -3.187   3.705  22.913  1.00  0.00    -0.339 N 
HETATM    2  C16 UNL     1      -3.083   2.356  22.609  1.00  0.00     0.312 C 
HETATM    3  O2  UNL     1      -3.949   1.537  23.085  1.00  0.00    -0.262 OA
ENDROOT
BRANCH   2   4
HETATM    4  C17 UNL     1      -2.030   1.789  21.763  1.00  0.00     0.313 C 
HETATM    5  O3  UNL     1      -0.911   1.497  22.196  1.00  0.00    -0.262 OA
HETATM    6  N3  UNL     1      -2.291   1.563  20.397  1.00  0.00    -0.329 N 
ATOM      7  H3  UNL     1      -3.242   1.799  20.114  1.00  0.00     0.168 HD
BRANCH   6   8
HETATM    8  C18 UNL     1      -1.508   1.086  19.375  1.00  0.00     0.097 C 
HETATM    9  C19 UNL     1      -1.387  -0.205  18.780  1.00  0.00    -0.028 C 
HETATM   10  C20 UNL     1      -0.947  -1.407  19.589  1.00  0.00    -0.014 C 
HETATM   11  C28 UNL     1      -2.262  -1.051  17.981  1.00  0.00     0.059 C 
HETATM   12  C21 UNL     1       0.532  -1.366  19.912  1.00  0.00     0.020 C 
HETATM   13  C22 UNL     1      -1.710  -1.802  20.780  1.00  0.00     0.020 C 
HETATM   14  C23 UNL     1      -1.335  -2.213  18.369  1.00  0.00     0.031 C 
HETATM   15  C24 UNL     1      -0.348  -2.649  17.403  1.00  0.00     0.024 C 
HETATM   16  C25 UNL     1      -0.011  -1.841  16.215  1.00  0.00     0.102 C 
HETATM   17  C27 UNL     1      -1.186  -1.171  15.675  1.00  0.00     0.224 C 
HETATM   18  O5  UNL     1      -1.265  -0.898  14.428  1.00  0.00    -0.273 OA
HETATM   19  N4  UNL     1      -2.242  -0.824  16.532  1.00  0.00    -0.347 N 
ATOM     20  H4  UNL     1      -3.059  -0.380  16.114  1.00  0.00     0.163 HD
HETATM   21  C29 UNL     1      -3.688  -1.348  18.340  1.00  0.00     0.044 C 
BRANCH  16  22
HETATM   22  C26 UNL     1       0.487  -2.796  15.117  1.00  0.00     0.178 C 
BRANCH  22  23
HETATM   23  O4  UNL     1      -0.478  -3.736  14.802  1.00  0.00    -0.400 OA
ATOM     24  H4  UNL     1      -0.275  -4.171  13.982  1.00  0.00     0.209 HD
ENDBRANCH  22  23
ENDBRANCH  16  22
ENDBRANCH   6   8
ENDBRANCH   2   4
BRANCH   1  25
HETATM   25  C10 UNL     1      -4.347   4.054  23.797  1.00  0.00     0.154 C 
BRANCH  25  26
HETATM   26  C9  UNL     1      -3.744   4.595  25.025  1.00  0.00     0.002 C 
HETATM   27  C8  UNL     1      -4.493   5.237  25.898  1.00  0.00     0.063 C 
BRANCH  27  28
HETATM   28  C7  UNL     1      -3.861   5.746  27.081  1.00  0.00    -0.065 C 
HETATM   29  C6  UNL     1      -3.325   6.195  28.074  1.00  0.00    -0.010 C 
BRANCH  29  30
HETATM   30  C5  UNL     1      -2.691   6.740  29.221  1.00  0.00    -0.012 C 
HETATM   31  C4  UNL     1      -2.162   7.189  30.208  1.00  0.00    -0.055 C 
BRANCH  31  32
HETATM   32  C2  UNL     1      -1.500   7.716  31.409  1.00  0.00     0.114 C 
HETATM   33  C1  UNL     1      -1.058   9.154  31.228  1.00  0.00     0.060 C 
HETATM   34  C3  UNL     1      -2.464   7.664  32.586  1.00  0.00     0.060 C 
BRANCH  32  35
HETATM   35  O1  UNL     1      -0.388   6.927  31.685  1.00  0.00    -0.378 OA
ATOM     36  H1  UNL     1      -0.067   7.134  32.555  1.00  0.00     0.211 HD
ENDBRANCH  32  35
ENDBRANCH  31  32
ENDBRANCH  29  30
ENDBRANCH  27  28
ENDBRANCH  25  26
ENDBRANCH   1  25
BRANCH   1  37
HETATM   37  C11 UNL     1      -2.322   4.762  22.480  1.00  0.00     0.154 C 
BRANCH  37  38
HETATM   38  C12 UNL     1      -3.158   5.846  21.850  1.00  0.00     0.255 C 
BRANCH  38  39
HETATM   39  N2  UNL     1      -3.165   5.755  20.397  1.00  0.00    -0.077 N 
HETATM   40  C13 UNL     1      -3.289   7.103  19.889  1.00  0.00     0.271 C 
HETATM   41  C14 UNL     1      -1.938   5.151  19.922  1.00  0.00     0.271 C 
HETATM   42  C15 UNL     1      -4.266   4.944  19.914  1.00  0.00     0.271 C 
ENDBRANCH  38  39
ENDBRANCH  37  38
ENDBRANCH   1  37
TORSDOF 13
ENDMDL
MODEL 5
REMARK VINA RESULT: -6.502549865      1.384      1.682
REMARK  13 active torsions:
REMARK  status: ('A' for Active; 'I' for Inactive)
REMARK    1  A    between atoms: C2_2  and  O1_4 
REMARK    2  A    between atoms: C2_2  and  C4_6 
REMARK    3  A    between atoms: C5_7  and  C6_8 
REMARK    4  A    between atoms: C7_9  and  C8_10 
REMARK    5  A    between atoms: C9_11  and  C10_12 
REMARK    6  A    between atoms: C10_12  and  N1_13 
REMARK    7  A    between atoms: N1_13  and  C11_14 
REMARK       I    between atoms: N1_13  and  C16_20 
REMARK    8  A    between atoms: C11_14  and  C12_15 
REMARK    9  A    between atoms: C12_15  and  N2_16 
REMARK   10  A    between atoms: C16_20  and  C17_22 
REMARK       I    between atoms: C17_22  and  N3_24 
REMARK   11  A    between atoms: N3_24  and  C18_26 
REMARK   12  A    between atoms: C25_33  and  C26_34 
REMARK   13  A    between atoms: C26_34  and  O4_35 
ROOT
HETATM    1  N1  UNL     1      -0.965   3.046  23.773  1.00  0.00    -0.339 N 
HETATM    2  C16 UNL     1      -0.057   2.229  23.116  1.00  0.00     0.312 C 
HETATM    3  O2  UNL     1       0.949   1.761  23.762  1.00  0.00    -0.262 OA
ENDROOT
BRANCH   2   4
HETATM    4  C17 UNL     1      -0.170   1.852  21.705  1.00  0.00     0.313 C 
HETATM    5  O3  UNL     1       0.210   2.585  20.787  1.00  0.00    -0.262 OA
HETATM    6  N3  UNL     1      -0.735   0.607  21.367  1.00  0.00    -0.329 N 
ATOM      7  H3  UNL     1      -1.000   0.041  22.173  1.00  0.00     0.168 HD
BRANCH   6   8
HETATM    8  C18 UNL     1      -0.996   0.009  20.158  1.00  0.00     0.097 C 
HETATM    9  C19 UNL     1      -0.234  -0.876  19.340  1.00  0.00    -0.028 C 
HETATM   10  C20 UNL     1       1.108  -0.464  18.771  1.00  0.00    -0.014 C 
HETATM   11  C28 UNL     1       0.234  -2.249  19.474  1.00  0.00     0.059 C 
HETATM   12  C21 UNL     1       0.966   0.532  17.641  1.00  0.00     0.020 C 
HETATM   13  C22 UNL     1       2.185  -0.046  19.677  1.00  0.00     0.020 C 
HETATM   14  C23 UNL     1       1.238  -1.915  18.361  1.00  0.00     0.031 C 
HETATM   15  C24 UNL     1       0.933  -2.352  17.014  1.00  0.00     0.024 C 
HETATM   16  C25 UNL     1      -0.412  -2.825  16.635  1.00  0.00     0.102 C 
HETATM   17  C27 UNL     1      -1.034  -3.583  17.713  1.00  0.00     0.224 C 
HETATM   18  O5  UNL     1      -1.883  -4.505  17.456  1.00  0.00    -0.273 OA
HETATM   19  N4  UNL     1      -0.697  -3.298  19.045  1.00  0.00    -0.347 N 
ATOM     20  H4  UNL     1      -1.133  -3.866  19.772  1.00  0.00     0.163 HD
HETATM   21  C29 UNL     1       0.928  -2.776  20.695  1.00  0.00     0.044 C 
BRANCH  16  22
HETATM   22  C26 UNL     1      -0.257  -3.800  15.454  1.00  0.00     0.178 C 
BRANCH  22  23
HETATM   23  O4  UNL     1       0.578  -3.275  14.485  1.00  0.00    -0.400 OA
ATOM     24  H4  UNL     1       0.955  -3.964  13.951  1.00  0.00     0.209 HD
ENDBRANCH  22  23
ENDBRANCH  16  22
ENDBRANCH   6   8
ENDBRANCH   2   4
BRANCH   1  25
HETATM   25  C10 UNL     1      -0.645   3.293  25.217  1.00  0.00     0.154 C 
BRANCH  25  26
HETATM   26  C9  UNL     1      -1.814   4.007  25.752  1.00  0.00     0.002 C 
HETATM   27  C8  UNL     1      -1.685   4.780  26.811  1.00  0.00     0.063 C 
BRANCH  27  28
HETATM   28  C7  UNL     1      -2.853   5.456  27.297  1.00  0.00    -0.065 C 
HETATM   29  C6  UNL     1      -3.833   6.031  27.726  1.00  0.00    -0.010 C 
BRANCH  29  30
HETATM   30  C5  UNL     1      -4.972   6.697  28.250  1.00  0.00    -0.012 C 
HETATM   31  C4  UNL     1      -5.933   7.281  28.686  1.00  0.00    -0.055 C 
BRANCH  31  32
HETATM   32  C2  UNL     1      -7.116   7.989  29.195  1.00  0.00     0.114 C 
HETATM   33  C1  UNL     1      -7.294   7.797  30.688  1.00  0.00     0.060 C 
HETATM   34  C3  UNL     1      -6.973   9.480  28.925  1.00  0.00     0.060 C 
BRANCH  32  35
HETATM   35  O1  UNL     1      -8.241   7.503  28.535  1.00  0.00    -0.378 OA
ATOM     36  H1  UNL     1      -8.173   6.558  28.459  1.00  0.00     0.211 HD
ENDBRANCH  32  35
ENDBRANCH  31  32
ENDBRANCH  29  30
ENDBRANCH  27  28
ENDBRANCH  25  26
ENDBRANCH   1  25
BRANCH   1  37
HETATM   37  C11 UNL     1      -2.139   3.657  23.223  1.00  0.00     0.154 C 
BRANCH  37  38
HETATM   38  C12 UNL     1      -1.726   4.872  22.431  1.00  0.00     0.255 C 
BRANCH  38  39
HETATM   39  N2  UNL     1      -2.510   5.021  21.214  1.00  0.00    -0.077 N 
HETATM   40  C13 UNL     1      -3.539   5.998  21.490  1.00  0.00     0.271 C 
HETATM   41  C14 UNL     1      -1.671   5.472  20.123  1.00  0.00     0.271 C 
HETATM   42  C15 UNL     1      -3.117   3.768  20.807  1.00  0.00     0.271 C 
ENDBRANCH  38  39
ENDBRANCH  37  38
ENDBRANCH   1  37
TORSDOF 13
ENDMDL
