MODEL 1
REMARK VINA RESULT: -6.053907112      0.000      0.000
REMARK  11 active torsions:
REMARK  status: ('A' for Active; 'I' for Inactive)
REMARK    1  A    between atoms: C2_2  and  C3_3 
REMARK    2  A    between atoms: C3_3  and  N1_4 
REMARK    3  A    between atoms: C5_6  and  C6_7 
REMARK    4  A    between atoms: C6_7  and  C7_8 
REMARK    5  A    between atoms: C11_15  and  C12_16 
REMARK    6  A    between atoms: C15_21  and  O2_22 
REMARK    7  A    between atoms: C16_24  and  O3_25 
REMARK    8  A    between atoms: C17_29  and  C18_30 
REMARK    9  A    between atoms: C18_30  and  C19_31 
REMARK   10  A    between atoms: C19_31  and  N5_32 
REMARK   11  A    between atoms: C23_36  and  O4_37 
ROOT
HETATM    1  N1  UNL     1      -2.356   1.413  27.303  1.00  0.00    -0.345 N 
HETATM    2  C4  UNL     1      -2.660   2.835  27.457  1.00  0.00     0.151 C 
HETATM    3  C5  UNL     1      -2.283   3.722  26.344  1.00  0.00     0.102 C 
HETATM    4  N2  UNL     1      -2.855   3.321  25.084  1.00  0.00    -0.353 N 
ATOM      5  H2  UNL     1      -2.893   2.312  24.940  1.00  0.00     0.163 HD
HETATM    6  C10 UNL     1      -3.363   4.066  24.035  1.00  0.00     0.241 C 
HETATM    7  O1  UNL     1      -4.625   3.889  23.800  1.00  0.00    -0.271 OA
HETATM    8  C11 UNL     1      -2.683   5.032  23.144  1.00  0.00     0.179 C 
HETATM    9  N3  UNL     1      -1.298   4.800  22.904  1.00  0.00    -0.354 N 
ATOM     10  H3  UNL     1      -0.675   5.368  23.477  1.00  0.00     0.162 HD
HETATM   11  C15 UNL     1      -0.636   3.931  22.020  1.00  0.00     0.188 C 
HETATM   12  C16 UNL     1      -0.649   2.479  21.935  1.00  0.00     0.188 C 
HETATM   13  N4  UNL     1      -0.253   1.535  22.927  1.00  0.00    -0.355 N 
ATOM     14  H4  UNL     1      -0.974   0.869  23.206  1.00  0.00     0.162 HD
HETATM   15  C17 UNL     1       0.999   1.384  23.586  1.00  0.00     0.159 C 
HETATM   16  C23 UNL     1       1.152   2.055  24.885  1.00  0.00     0.135 C 
HETATM   17  N6  UNL     1       1.163   1.643  26.194  1.00  0.00    -0.355 N 
ATOM     18  H6  UNL     1       2.101   1.706  26.589  1.00  0.00     0.162 HD
HETATM   19  C24 UNL     1       0.235   1.150  27.157  1.00  0.00     0.105 C 
HETATM   20  C25 UNL     1       0.335   2.006  28.451  1.00  0.00     0.048 C 
HETATM   21  C26 UNL     1       0.795  -0.213  27.678  1.00  0.00     0.048 C 
HETATM   22  C27 UNL     1      -1.141   0.874  26.809  1.00  0.00     0.247 C 
HETATM   23  O5  UNL     1      -1.361  -0.014  25.895  1.00  0.00    -0.271 OA
ENDROOT
BRANCH  15  24
HETATM   24  C18 UNL     1       1.457  -0.088  23.592  1.00  0.00     0.061 C 
BRANCH  24  25
HETATM   25  C19 UNL     1       0.457  -0.805  22.688  1.00  0.00     0.238 C 
BRANCH  25  26
HETATM   26  N5  UNL     1       1.204  -1.483  21.645  1.00  0.00    -0.079 N 
HETATM   27  C20 UNL     1       1.453  -0.628  20.514  1.00  0.00     0.271 C 
HETATM   28  C21 UNL     1       0.438  -2.629  21.195  1.00  0.00     0.271 C 
HETATM   29  C22 UNL     1       2.485  -1.954  22.137  1.00  0.00     0.271 C 
ENDBRANCH  25  26
ENDBRANCH  24  25
ENDBRANCH  15  24
BRANCH  16  30
HETATM   30  O4  UNL     1       1.319   3.350  24.731  1.00  0.00    -0.348 OA
ATOM     31  H4  UNL     1       2.241   3.573  24.685  1.00  0.00     0.219 HD
ENDBRANCH  16  30
BRANCH  12  32
HETATM   32  O3  UNL     1      -1.084   2.028  20.791  1.00  0.00    -0.343 OA
ATOM     33  H3  UNL     1      -0.471   1.447  20.354  1.00  0.00     0.219 HD
ENDBRANCH  12  32
BRANCH  11  34
HETATM   34  O2  UNL     1       0.123   4.489  21.116  1.00  0.00    -0.343 OA
ATOM     35  H2  UNL     1       0.818   5.052  21.436  1.00  0.00     0.219 HD
ENDBRANCH  11  34
BRANCH   8  36
HETATM   36  C12 UNL     1      -3.540   5.257  21.917  1.00  0.00     0.009 C 
HETATM   37  C13 UNL     1      -3.063   6.452  21.115  1.00  0.00     0.012 C 
HETATM   38  C14 UNL     1      -3.802   4.060  21.083  1.00  0.00     0.012 C 
ENDBRANCH   8  36
BRANCH   1  39
HETATM   39  C3  UNL     1      -3.469   0.534  27.726  1.00  0.00     0.152 C 
BRANCH  39  40
HETATM   40  C2  UNL     1      -3.155  -0.349  28.836  1.00  0.00    -0.017 C 
HETATM   41  C1  UNL     1      -2.811   0.142  30.009  1.00  0.00     0.008 C 
ENDBRANCH  39  40
ENDBRANCH   1  39
BRANCH   3  42
HETATM   42  C6  UNL     1      -2.364   5.147  26.677  1.00  0.00     0.030 C 
BRANCH  42  43
HETATM   43  C7  UNL     1      -2.624   5.645  28.024  1.00  0.00    -0.021 C 
HETATM   44  C8  UNL     1      -1.663   6.572  28.665  1.00  0.00     0.009 C 
HETATM   45  C9  UNL     1      -3.977   6.398  27.948  1.00  0.00     0.009 C 
ENDBRANCH  42  43
ENDBRANCH   3  42
TORSDOF 11
ENDMDL
MODEL 2
REMARK VINA RESULT: -5.971950326      1.466      1.791
REMARK  11 active torsions:
REMARK  status: ('A' for Active; 'I' for Inactive)
REMARK    1  A    between atoms: C2_2  and  C3_3 
REMARK    2  A    between atoms: C3_3  and  N1_4 
REMARK    3  A    between atoms: C5_6  and  C6_7 
REMARK    4  A    between atoms: C6_7  and  C7_8 
REMARK    5  A    between atoms: C11_15  and  C12_16 
REMARK    6  A    between atoms: C15_21  and  O2_22 
REMARK    7  A    between atoms: C16_24  and  O3_25 
REMARK    8  A    between atoms: C17_29  and  C18_30 
REMARK    9  A    between atoms: C18_30  and  C19_31 
REMARK   10  A    between atoms: C19_31  and  N5_32 
REMARK   11  A    between atoms: C23_36  and  O4_37 
ROOT
HETATM    1  N1  UNL     1      -3.320   1.395  26.019  1.00  0.00    -0.345 N 
HETATM    2  C4  UNL     1      -3.615   2.793  26.330  1.00  0.00     0.151 C 
HETATM    3  C5  UNL     1      -3.095   3.808  25.399  1.00  0.00     0.102 C 
HETATM    4  N2  UNL     1      -3.522   3.598  24.039  1.00  0.00    -0.353 N 
ATOM      5  H2  UNL     1      -3.559   2.619  23.756  1.00  0.00     0.163 HD
HETATM    6  C10 UNL     1      -3.889   4.493  23.051  1.00  0.00     0.241 C 
HETATM    7  O1  UNL     1      -5.118   4.390  22.652  1.00  0.00    -0.271 OA
HETATM    8  C11 UNL     1      -3.093   5.546  22.383  1.00  0.00     0.179 C 
HETATM    9  N3  UNL     1      -1.694   5.303  22.273  1.00  0.00    -0.354 N 
ATOM     10  H3  UNL     1      -1.132   5.768  22.986  1.00  0.00     0.162 HD
HETATM   11  C15 UNL     1      -0.947   4.538  21.361  1.00  0.00     0.188 C 
HETATM   12  C16 UNL     1      -0.975   3.111  21.077  1.00  0.00     0.188 C 
HETATM   13  N4  UNL     1      -0.715   2.030  21.970  1.00  0.00    -0.355 N 
ATOM     14  H4  UNL     1      -1.476   1.357  22.071  1.00  0.00     0.162 HD
HETATM   15  C17 UNL     1       0.448   1.752  22.740  1.00  0.00     0.159 C 
HETATM   16  C23 UNL     1       0.459   2.238  24.128  1.00  0.00     0.135 C 
HETATM   17  N6  UNL     1       0.309   1.654  25.360  1.00  0.00    -0.355 N 
ATOM     18  H6  UNL     1       1.195   1.633  25.865  1.00  0.00     0.162 HD
HETATM   19  C24 UNL     1      -0.734   1.069  26.136  1.00  0.00     0.105 C 
HETATM   20  C25 UNL     1      -0.772   1.740  27.537  1.00  0.00     0.048 C 
HETATM   21  C26 UNL     1      -0.263  -0.370  26.526  1.00  0.00     0.048 C 
HETATM   22  C27 UNL     1      -2.064   0.887  25.598  1.00  0.00     0.247 C 
HETATM   23  O5  UNL     1      -2.191   0.137  24.553  1.00  0.00    -0.271 OA
ENDROOT
BRANCH  15  24
HETATM   24  C18 UNL     1       0.877   0.278  22.597  1.00  0.00     0.061 C 
BRANCH  24  25
HETATM   25  C19 UNL     1       0.213  -0.192  21.305  1.00  0.00     0.238 C 
BRANCH  25  26
HETATM   26  N5  UNL     1       1.261  -0.611  20.393  1.00  0.00    -0.079 N 
HETATM   27  C20 UNL     1       1.641   0.438  19.484  1.00  0.00     0.271 C 
HETATM   28  C21 UNL     1       0.778  -1.738  19.618  1.00  0.00     0.271 C 
HETATM   29  C22 UNL     1       2.450  -1.029  21.113  1.00  0.00     0.271 C 
ENDBRANCH  25  26
ENDBRANCH  24  25
ENDBRANCH  15  24
BRANCH  16  30
HETATM   30  O4  UNL     1       0.665   3.536  24.172  1.00  0.00    -0.348 OA
ATOM     31  H4  UNL     1       0.897   3.816  25.050  1.00  0.00     0.219 HD
ENDBRANCH  16  30
BRANCH  12  32
HETATM   32  O3  UNL     1      -1.281   2.831  19.840  1.00  0.00    -0.343 OA
ATOM     33  H3  UNL     1      -0.626   2.304  19.397  1.00  0.00     0.219 HD
ENDBRANCH  12  32
BRANCH  11  34
HETATM   34  O2  UNL     1      -0.078   5.186  20.634  1.00  0.00    -0.343 OA
ATOM     35  H2  UNL     1       0.667   4.688  20.322  1.00  0.00     0.219 HD
ENDBRANCH  11  34
BRANCH   8  36
HETATM   36  C12 UNL     1      -3.796   5.961  21.109  1.00  0.00     0.009 C 
HETATM   37  C13 UNL     1      -3.180   7.211  20.514  1.00  0.00     0.012 C 
HETATM   38  C14 UNL     1      -4.016   4.886  20.113  1.00  0.00     0.012 C 
ENDBRANCH   8  36
BRANCH   1  39
HETATM   39  C3  UNL     1      -4.489   0.504  26.189  1.00  0.00     0.152 C 
BRANCH  39  40
HETATM   40  C2  UNL     1      -5.657   0.882  25.412  1.00  0.00    -0.017 C 
HETATM   41  C1  UNL     1      -5.704   0.654  24.116  1.00  0.00     0.008 C 
ENDBRANCH  39  40
ENDBRANCH   1  39
BRANCH   3  42
HETATM   42  C6  UNL     1      -3.190   5.177  25.912  1.00  0.00     0.030 C 
BRANCH  42  43
HETATM   43  C7  UNL     1      -3.242   5.502  27.334  1.00  0.00    -0.021 C 
HETATM   44  C8  UNL     1      -2.088   6.164  27.983  1.00  0.00     0.009 C 
HETATM   45  C9  UNL     1      -4.451   6.457  27.509  1.00  0.00     0.009 C 
ENDBRANCH  42  43
ENDBRANCH   3  42
TORSDOF 11
ENDMDL
MODEL 3
REMARK VINA RESULT: -5.895902915      3.258      7.798
REMARK  11 active torsions:
REMARK  status: ('A' for Active; 'I' for Inactive)
REMARK    1  A    between atoms: C2_2  and  C3_3 
REMARK    2  A    between atoms: C3_3  and  N1_4 
REMARK    3  A    between atoms: C5_6  and  C6_7 
REMARK    4  A    between atoms: C6_7  and  C7_8 
REMARK    5  A    between atoms: C11_15  and  C12_16 
REMARK    6  A    between atoms: C15_21  and  O2_22 
REMARK    7  A    between atoms: C16_24  and  O3_25 
REMARK    8  A    between atoms: C17_29  and  C18_30 
REMARK    9  A    between atoms: C18_30  and  C19_31 
REMARK   10  A    between atoms: C19_31  and  N5_32 
REMARK   11  A    between atoms: C23_36  and  O4_37 
ROOT
HETATM    1  N1  UNL     1      -1.643   5.010  20.825  1.00  0.00    -0.345 N 
HETATM    2  C4  UNL     1      -0.550   4.537  21.673  1.00  0.00     0.151 C 
HETATM    3  C5  UNL     1      -0.524   3.100  21.990  1.00  0.00     0.102 C 
HETATM    4  N2  UNL     1      -0.516   2.263  20.817  1.00  0.00    -0.353 N 
ATOM      5  H2  UNL     1      -1.096   2.605  20.051  1.00  0.00     0.163 HD
HETATM    6  C10 UNL     1       0.143   1.077  20.549  1.00  0.00     0.241 C 
HETATM    7  O1  UNL     1       1.005   1.138  19.583  1.00  0.00    -0.271 OA
HETATM    8  C11 UNL     1       0.011  -0.247  21.196  1.00  0.00     0.179 C 
HETATM    9  N3  UNL     1      -1.267  -0.555  21.744  1.00  0.00    -0.354 N 
ATOM     10  H3  UNL     1      -1.337  -0.404  22.751  1.00  0.00     0.162 HD
HETATM   11  C15 UNL     1      -2.450  -1.028  21.151  1.00  0.00     0.188 C 
HETATM   12  C16 UNL     1      -3.297  -0.435  20.128  1.00  0.00     0.188 C 
HETATM   13  N4  UNL     1      -3.992   0.809  20.171  1.00  0.00    -0.355 N 
ATOM     14  H4  UNL     1      -3.756   1.465  19.425  1.00  0.00     0.162 HD
HETATM   15  C17 UNL     1      -4.964   1.271  21.101  1.00  0.00     0.159 C 
HETATM   16  C23 UNL     1      -4.475   2.080  22.228  1.00  0.00     0.135 C 
HETATM   17  N6  UNL     1      -4.501   3.415  22.545  1.00  0.00    -0.355 N 
ATOM     18  H6  UNL     1      -5.144   3.594  23.317  1.00  0.00     0.162 HD
HETATM   19  C24 UNL     1      -3.884   4.621  22.103  1.00  0.00     0.105 C 
HETATM   20  C25 UNL     1      -3.247   5.348  23.320  1.00  0.00     0.048 C 
HETATM   21  C26 UNL     1      -5.033   5.621  21.749  1.00  0.00     0.048 C 
HETATM   22  C27 UNL     1      -3.008   4.645  20.953  1.00  0.00     0.247 C 
HETATM   23  O5  UNL     1      -3.504   4.283  19.815  1.00  0.00    -0.271 OA
ENDROOT
BRANCH  15  24
HETATM   24  C18 UNL     1      -6.182   1.884  20.382  1.00  0.00     0.061 C 
BRANCH  24  25
HETATM   25  C19 UNL     1      -7.362   1.588  21.305  1.00  0.00     0.238 C 
BRANCH  25  26
HETATM   26  N5  UNL     1      -8.205   2.768  21.344  1.00  0.00    -0.079 N 
HETATM   27  C20 UNL     1      -7.793   3.760  20.385  1.00  0.00     0.271 C 
HETATM   28  C21 UNL     1      -8.125   3.350  22.670  1.00  0.00     0.271 C 
HETATM   29  C22 UNL     1      -9.590   2.435  21.074  1.00  0.00     0.271 C 
ENDBRANCH  25  26
ENDBRANCH  24  25
ENDBRANCH  15  24
BRANCH  16  30
HETATM   30  O4  UNL     1      -3.882   1.327  23.128  1.00  0.00    -0.348 OA
ATOM     31  H4  UNL     1      -3.737   1.808  23.934  1.00  0.00     0.219 HD
ENDBRANCH  16  30
BRANCH  12  32
HETATM   32  O3  UNL     1      -3.407  -1.168  19.053  1.00  0.00    -0.343 OA
ATOM     33  H3  UNL     1      -4.286  -1.498  18.907  1.00  0.00     0.219 HD
ENDBRANCH  12  32
BRANCH  11  34
HETATM   34  O2  UNL     1      -2.884  -2.188  21.564  1.00  0.00    -0.343 OA
ATOM     35  H2  UNL     1      -3.818  -2.340  21.490  1.00  0.00     0.219 HD
ENDBRANCH  11  34
BRANCH   8  36
HETATM   36  C12 UNL     1       0.615  -1.299  20.292  1.00  0.00     0.009 C 
HETATM   37  C13 UNL     1       0.885  -2.589  21.041  1.00  0.00     0.012 C 
HETATM   38  C14 UNL     1      -0.071  -1.508  18.995  1.00  0.00     0.012 C 
ENDBRANCH   8  36
BRANCH   1  39
HETATM   39  C3  UNL     1      -1.196   5.947  19.771  1.00  0.00     0.152 C 
BRANCH  39  40
HETATM   40  C2  UNL     1      -1.539   7.338  20.012  1.00  0.00    -0.017 C 
HETATM   41  C1  UNL     1      -2.427   7.951  19.258  1.00  0.00     0.008 C 
ENDBRANCH  39  40
ENDBRANCH   1  39
BRANCH   3  42
HETATM   42  C6  UNL     1       0.425   2.751  23.051  1.00  0.00     0.030 C 
BRANCH  42  43
HETATM   43  C7  UNL     1       0.345   3.282  24.409  1.00  0.00    -0.021 C 
HETATM   44  C8  UNL     1      -0.949   3.274  25.129  1.00  0.00     0.009 C 
HETATM   45  C9  UNL     1       1.324   2.431  25.258  1.00  0.00     0.009 C 
ENDBRANCH  42  43
ENDBRANCH   3  42
TORSDOF 11
ENDMDL
MODEL 4
REMARK VINA RESULT: -5.798210412      2.231      5.150
REMARK  11 active torsions:
REMARK  status: ('A' for Active; 'I' for Inactive)
REMARK    1  A    between atoms: C2_2  and  C3_3 
REMARK    2  A    between atoms: C3_3  and  N1_4 
REMARK    3  A    between atoms: C5_6  and  C6_7 
REMARK    4  A    between atoms: C6_7  and  C7_8 
REMARK    5  A    between atoms: C11_15  and  C12_16 
REMARK    6  A    between atoms: C15_21  and  O2_22 
REMARK    7  A    between atoms: C16_24  and  O3_25 
REMARK    8  A    between atoms: C17_29  and  C18_30 
REMARK    9  A    between atoms: C18_30  and  C19_31 
REMARK   10  A    between atoms: C19_31  and  N5_32 
REMARK   11  A    between atoms: C23_36  and  O4_37 
ROOT
HETATM    1  N1  UNL     1      -4.137   2.653  24.355  1.00  0.00    -0.345 N 
HETATM    2  C4  UNL     1      -4.604   3.009  23.017  1.00  0.00     0.151 C 
HETATM    3  C5  UNL     1      -3.665   2.796  21.903  1.00  0.00     0.102 C 
HETATM    4  N2  UNL     1      -3.191   1.439  21.816  1.00  0.00    -0.353 N 
ATOM      5  H2  UNL     1      -3.021   0.994  22.718  1.00  0.00     0.163 HD
HETATM    6  C10 UNL     1      -2.927   0.634  20.723  1.00  0.00     0.241 C 
HETATM    7  O1  UNL     1      -3.672  -0.422  20.630  1.00  0.00    -0.271 OA
HETATM    8  C11 UNL     1      -1.925   0.797  19.647  1.00  0.00     0.179 C 
HETATM    9  N3  UNL     1      -0.729   1.484  20.000  1.00  0.00    -0.354 N 
ATOM     10  H3  UNL     1      -0.717   2.468  19.731  1.00  0.00     0.162 HD
HETATM   11  C15 UNL     1       0.439   1.053  20.652  1.00  0.00     0.188 C 
HETATM   12  C16 UNL     1       0.632   0.522  21.992  1.00  0.00     0.188 C 
HETATM   13  N4  UNL     1       0.345   1.150  23.240  1.00  0.00    -0.355 N 
ATOM     14  H4  UNL     1      -0.304   0.644  23.843  1.00  0.00     0.162 HD
HETATM   15  C17 UNL     1       0.829   2.380  23.767  1.00  0.00     0.159 C 
HETATM   16  C23 UNL     1      -0.005   3.572  23.548  1.00  0.00     0.135 C 
HETATM   17  N6  UNL     1      -0.840   4.327  24.332  1.00  0.00    -0.355 N 
ATOM     18  H6  UNL     1      -0.429   5.238  24.531  1.00  0.00     0.162 HD
HETATM   19  C24 UNL     1      -2.120   4.198  24.946  1.00  0.00     0.105 C 
HETATM   20  C25 UNL     1      -3.007   5.409  24.544  1.00  0.00     0.048 C 
HETATM   21  C26 UNL     1      -1.927   4.485  26.471  1.00  0.00     0.048 C 
HETATM   22  C27 UNL     1      -2.862   2.958  24.896  1.00  0.00     0.247 C 
HETATM   23  O5  UNL     1      -2.316   1.912  25.425  1.00  0.00    -0.271 OA
ENDROOT
BRANCH  15  24
HETATM   24  C18 UNL     1       1.306   2.217  25.223  1.00  0.00     0.061 C 
BRANCH  24  25
HETATM   25  C19 UNL     1       1.024   0.755  25.559  1.00  0.00     0.238 C 
BRANCH  25  26
HETATM   26  N5  UNL     1       0.946   0.636  27.003  1.00  0.00    -0.079 N 
HETATM   27  C20 UNL     1      -0.031  -0.338  27.415  1.00  0.00     0.271 C 
HETATM   28  C21 UNL     1       0.570   1.924  27.555  1.00  0.00     0.271 C 
HETATM   29  C22 UNL     1       2.225   0.252  27.570  1.00  0.00     0.271 C 
ENDBRANCH  25  26
ENDBRANCH  24  25
ENDBRANCH  15  24
BRANCH  16  30
HETATM   30  O4  UNL     1       0.092   3.994  22.307  1.00  0.00    -0.348 OA
ATOM     31  H4  UNL     1      -0.703   4.436  22.033  1.00  0.00     0.219 HD
ENDBRANCH  16  30
BRANCH  12  32
HETATM   32  O3  UNL     1       1.133  -0.683  22.008  1.00  0.00    -0.343 OA
ATOM     33  H3  UNL     1       0.954  -1.158  22.812  1.00  0.00     0.219 HD
ENDBRANCH  12  32
BRANCH  11  34
HETATM   34  O2  UNL     1       1.549   1.130  19.968  1.00  0.00    -0.343 OA
ATOM     35  H2  UNL     1       1.576   0.645  19.153  1.00  0.00     0.219 HD
ENDBRANCH  11  34
BRANCH   8  36
HETATM   36  C12 UNL     1      -1.744  -0.527  18.938  1.00  0.00     0.009 C 
HETATM   37  C13 UNL     1      -1.045  -0.355  17.604  1.00  0.00     0.012 C 
HETATM   38  C14 UNL     1      -1.180  -1.627  19.757  1.00  0.00     0.012 C 
ENDBRANCH   8  36
BRANCH   1  39
HETATM   39  C3  UNL     1      -5.147   1.914  25.144  1.00  0.00     0.152 C 
BRANCH  39  40
HETATM   40  C2  UNL     1      -5.573   2.583  26.361  1.00  0.00    -0.017 C 
HETATM   41  C1  UNL     1      -6.168   3.757  26.310  1.00  0.00     0.008 C 
ENDBRANCH  39  40
ENDBRANCH   1  39
BRANCH   3  42
HETATM   42  C6  UNL     1      -4.092   3.424  20.649  1.00  0.00     0.030 C 
BRANCH  42  43
HETATM   43  C7  UNL     1      -3.716   4.778  20.257  1.00  0.00    -0.021 C 
HETATM   44  C8  UNL     1      -4.007   5.915  21.161  1.00  0.00     0.009 C 
HETATM   45  C9  UNL     1      -2.177   4.755  20.065  1.00  0.00     0.009 C 
ENDBRANCH  42  43
ENDBRANCH   3  42
TORSDOF 11
ENDMDL
MODEL 5
REMARK VINA RESULT: -5.754767856      1.086      1.419
REMARK  11 active torsions:
REMARK  status: ('A' for Active; 'I' for Inactive)
REMARK    1  A    between atoms: C2_2  and  C3_3 
REMARK    2  A    between atoms: C3_3  and  N1_4 
REMARK    3  A    between atoms: C5_6  and  C6_7 
REMARK    4  A    between atoms: C6_7  and  C7_8 
REMARK    5  A    between atoms: C11_15  and  C12_16 
REMARK    6  A    between atoms: C15_21  and  O2_22 
REMARK    7  A    between atoms: C16_24  and  O3_25 
REMARK    8  A    between atoms: C17_29  and  C18_30 
REMARK    9  A    between atoms: C18_30  and  C19_31 
REMARK   10  A    between atoms: C19_31  and  N5_32 
REMARK   11  A    between atoms: C23_36  and  O4_37 
ROOT
HETATM    1  N1  UNL     1      -2.589   1.418  27.492  1.00  0.00    -0.345 N 
HETATM    2  C4  UNL     1      -2.716   2.869  27.625  1.00  0.00     0.151 C 
HETATM    3  C5  UNL     1      -2.238   3.687  26.498  1.00  0.00     0.102 C 
HETATM    4  N2  UNL     1      -2.860   3.340  25.245  1.00  0.00    -0.353 N 
ATOM      5  H2  UNL     1      -3.021   2.342  25.117  1.00  0.00     0.163 HD
HETATM    6  C10 UNL     1      -3.277   4.127  24.186  1.00  0.00     0.241 C 
HETATM    7  O1  UNL     1      -4.552   4.102  23.957  1.00  0.00    -0.271 OA
HETATM    8  C11 UNL     1      -2.488   4.989  23.280  1.00  0.00     0.179 C 
HETATM    9  N3  UNL     1      -1.143   4.587  23.040  1.00  0.00    -0.354 N 
ATOM     10  H3  UNL     1      -0.452   5.083  23.603  1.00  0.00     0.162 HD
HETATM   11  C15 UNL     1      -0.595   3.630  22.168  1.00  0.00     0.188 C 
HETATM   12  C16 UNL     1      -0.785   2.190  22.105  1.00  0.00     0.188 C 
HETATM   13  N4  UNL     1      -0.503   1.218  23.110  1.00  0.00    -0.355 N 
ATOM     14  H4  UNL     1      -1.299   0.650  23.401  1.00  0.00     0.162 HD
HETATM   15  C17 UNL     1       0.724   0.926  23.768  1.00  0.00     0.159 C 
HETATM   16  C23 UNL     1       0.962   1.593  25.057  1.00  0.00     0.135 C 
HETATM   17  N6  UNL     1       0.928   1.201  26.372  1.00  0.00    -0.355 N 
ATOM     18  H6  UNL     1       1.869   1.155  26.764  1.00  0.00     0.162 HD
HETATM   19  C24 UNL     1      -0.049   0.839  27.344  1.00  0.00     0.105 C 
HETATM   20  C25 UNL     1       0.159   1.695  28.625  1.00  0.00     0.048 C 
HETATM   21  C26 UNL     1       0.342  -0.574  27.885  1.00  0.00     0.048 C 
HETATM   22  C27 UNL     1      -1.450   0.728  27.003  1.00  0.00     0.247 C 
HETATM   23  O5  UNL     1      -1.780  -0.140  26.103  1.00  0.00    -0.271 OA
ENDROOT
BRANCH  15  24
HETATM   24  C18 UNL     1       0.999  -0.590  23.795  1.00  0.00     0.061 C 
BRANCH  24  25
HETATM   25  C19 UNL     1       2.518  -0.707  23.701  1.00  0.00     0.238 C 
BRANCH  25  26
HETATM   26  N5  UNL     1       2.943  -1.747  24.619  1.00  0.00    -0.079 N 
HETATM   27  C20 UNL     1       3.775  -2.732  23.976  1.00  0.00     0.271 C 
HETATM   28  C21 UNL     1       1.767  -2.413  25.144  1.00  0.00     0.271 C 
HETATM   29  C22 UNL     1       3.690  -1.193  25.733  1.00  0.00     0.271 C 
ENDBRANCH  25  26
ENDBRANCH  24  25
ENDBRANCH  15  24
BRANCH  16  30
HETATM   30  O4  UNL     1       1.286   2.855  24.884  1.00  0.00    -0.348 OA
ATOM     31  H4  UNL     1       0.824   3.414  25.497  1.00  0.00     0.219 HD
ENDBRANCH  16  30
BRANCH  12  32
HETATM   32  O3  UNL     1      -1.276   1.778  20.968  1.00  0.00    -0.343 OA
ATOM     33  H3  UNL     1      -1.489   0.852  20.960  1.00  0.00     0.219 HD
ENDBRANCH  12  32
BRANCH  11  34
HETATM   34  O2  UNL     1       0.223   4.078  21.254  1.00  0.00    -0.343 OA
ATOM     35  H2  UNL     1       0.442   3.478  20.552  1.00  0.00     0.219 HD
ENDBRANCH  11  34
BRANCH   8  36
HETATM   36  C12 UNL     1      -3.316   5.299  22.051  1.00  0.00     0.009 C 
HETATM   37  C13 UNL     1      -2.631   6.315  21.159  1.00  0.00     0.012 C 
HETATM   38  C14 UNL     1      -3.837   4.126  21.310  1.00  0.00     0.012 C 
ENDBRANCH   8  36
BRANCH   1  39
HETATM   39  C3  UNL     1      -3.798   0.688  27.931  1.00  0.00     0.152 C 
BRANCH  39  40
HETATM   40  C2  UNL     1      -3.595  -0.193  29.068  1.00  0.00    -0.017 C 
HETATM   41  C1  UNL     1      -3.160   0.282  30.216  1.00  0.00     0.008 C 
ENDBRANCH  39  40
ENDBRANCH   1  39
BRANCH   3  42
HETATM   42  C6  UNL     1      -2.144   5.116  26.810  1.00  0.00     0.030 C 
BRANCH  42  43
HETATM   43  C7  UNL     1      -2.523   5.685  28.099  1.00  0.00    -0.021 C 
HETATM   44  C8  UNL     1      -1.625   6.652  28.771  1.00  0.00     0.009 C 
HETATM   45  C9  UNL     1      -3.865   6.424  27.862  1.00  0.00     0.009 C 
ENDBRANCH  42  43
ENDBRANCH   3  42
TORSDOF 11
ENDMDL
