MODEL 1
REMARK VINA RESULT: -6.025058227      0.000      0.000
REMARK  7 active torsions:
REMARK  status: ('A' for Active; 'I' for Inactive)
REMARK    1  A    between atoms: C3_3  and  C4_4 
REMARK    2  A    between atoms: C5_5  and  N1_6 
REMARK    3  A    between atoms: N2_16  and  C13_17 
REMARK    4  A    between atoms: N2_16  and  C14_22 
REMARK    5  A    between atoms: C13_17  and  N3_18 
REMARK    6  A    between atoms: C14_22  and  C15_23 
REMARK    7  A    between atoms: C15_23  and  N4_24 
ROOT
HETATM    1  C4  UNL     1      -2.475   3.569  20.767  1.00  0.00     0.142 C 
HETATM    2  C5  UNL     1      -1.961   2.276  20.226  1.00  0.00     0.214 C 
HETATM    3  C7  UNL     1      -1.728   1.410  21.444  1.00  0.00     0.061 C 
HETATM    4  C8  UNL     1      -2.653   1.997  22.525  1.00  0.00     0.097 C 
HETATM    5  C9  UNL     1      -2.004   1.827  23.848  1.00  0.00     0.036 C 
HETATM    6  C10 UNL     1      -2.245   0.385  24.298  1.00  0.00     0.014 C 
HETATM    7  C11 UNL     1      -2.354   2.804  24.896  1.00  0.00     0.205 C 
HETATM    8  C12 UNL     1      -1.055   3.340  25.499  1.00  0.00     0.041 C 
HETATM    9  N2  UNL     1      -3.275   3.869  24.530  1.00  0.00     0.043 N 
HETATM   10  C22 UNL     1      -2.836   4.333  23.233  1.00  0.00     0.420 C 
HETATM   11  O2  UNL     1      -2.593   5.538  22.983  1.00  0.00    -0.239 OA
HETATM   12  N5  UNL     1      -2.664   3.411  22.184  1.00  0.00    -0.312 N 
ENDROOT
BRANCH   9  13
HETATM   13  C13 UNL     1      -4.596   3.372  24.368  1.00  0.00     0.478 C 
BRANCH  13  14
HETATM   14  N3  UNL     1      -5.470   4.266  23.586  1.00  0.00    -0.054 N 
ATOM     15  H33 UNL     1      -5.142   5.230  23.640  1.00  0.00     0.276 HD
ATOM     16  H32 UNL     1      -5.352   4.103  22.586  1.00  0.00     0.276 HD
ATOM     17  H31 UNL     1      -6.455   4.205  23.847  1.00  0.00     0.276 HD
ENDBRANCH  13  14
ENDBRANCH   9  13
BRANCH   9  18
HETATM   18  C14 UNL     1      -3.099   4.907  25.510  1.00  0.00     0.280 C 
BRANCH  18  19
HETATM   19  C15 UNL     1      -4.127   5.072  26.548  1.00  0.00     0.265 C 
BRANCH  19  20
HETATM   20  N4  UNL     1      -3.613   5.394  27.869  1.00  0.00    -0.068 N 
HETATM   21  C16 UNL     1      -4.167   6.537  28.478  1.00  0.00     0.272 C 
HETATM   22  C17 UNL     1      -2.179   5.651  27.648  1.00  0.00     0.238 C 
HETATM   23  C18 UNL     1      -1.524   6.332  28.792  1.00  0.00     0.040 C 
HETATM   24  C19 UNL     1      -1.255   5.403  29.960  1.00  0.00     0.110 C 
HETATM   25  S1  UNL     1      -1.147   3.740  29.343  1.00  0.00     0.016 S 
HETATM   26  O1  UNL     1      -0.680   2.737  30.588  1.00  0.00    -0.258 OA
HETATM   27  C20 UNL     1      -2.676   3.235  28.595  1.00  0.00     0.136 C 
HETATM   28  C21 UNL     1      -3.755   4.268  28.772  1.00  0.00     0.249 C 
ENDBRANCH  19  20
ENDBRANCH  18  19
ENDBRANCH   9  18
BRANCH   1  29
HETATM   29  C3  UNL     1      -1.432   4.617  20.465  1.00  0.00    -0.004 C 
HETATM   30  C2  UNL     1      -1.759   5.692  19.792  1.00  0.00    -0.033 C 
HETATM   31  C1  UNL     1      -0.721   6.719  19.500  1.00  0.00     0.036 C 
ENDBRANCH   1  29
BRANCH   2  32
HETATM   32  N1  UNL     1      -0.679   2.413  19.550  1.00  0.00    -0.072 N 
HETATM   33  C6  UNL     1      -0.169   1.048  19.366  1.00  0.00     0.267 C 
ATOM     34  H12 UNL     1      -0.733   2.946  18.682  1.00  0.00     0.277 HD
ATOM     35  H11 UNL     1      -0.027   3.028  20.035  1.00  0.00     0.277 HD
ENDBRANCH   2  32
TORSDOF 7
ENDMDL
MODEL 2
REMARK VINA RESULT: -5.803639575      3.638      7.223
REMARK  7 active torsions:
REMARK  status: ('A' for Active; 'I' for Inactive)
REMARK    1  A    between atoms: C3_3  and  C4_4 
REMARK    2  A    between atoms: C5_5  and  N1_6 
REMARK    3  A    between atoms: N2_16  and  C13_17 
REMARK    4  A    between atoms: N2_16  and  C14_22 
REMARK    5  A    between atoms: C13_17  and  N3_18 
REMARK    6  A    between atoms: C14_22  and  C15_23 
REMARK    7  A    between atoms: C15_23  and  N4_24 
ROOT
HETATM    1  C4  UNL     1       0.916   1.981  27.349  1.00  0.00     0.142 C 
HETATM    2  C5  UNL     1       1.862   0.870  27.665  1.00  0.00     0.214 C 
HETATM    3  C7  UNL     1       1.678  -0.128  26.544  1.00  0.00     0.061 C 
HETATM    4  C8  UNL     1       1.115   0.698  25.373  1.00  0.00     0.097 C 
HETATM    5  C9  UNL     1       0.197  -0.161  24.585  1.00  0.00     0.036 C 
HETATM    6  C10 UNL     1       1.057  -1.037  23.671  1.00  0.00     0.014 C 
HETATM    7  C11 UNL     1      -0.887   0.517  23.849  1.00  0.00     0.205 C 
HETATM    8  C12 UNL     1      -2.200  -0.191  24.183  1.00  0.00     0.041 C 
HETATM    9  N2  UNL     1      -0.984   1.961  23.991  1.00  0.00     0.043 N 
HETATM   10  C22 UNL     1      -0.797   2.226  25.400  1.00  0.00     0.420 C 
HETATM   11  O2  UNL     1      -1.604   2.902  26.083  1.00  0.00    -0.239 OA
HETATM   12  N5  UNL     1       0.335   1.714  26.062  1.00  0.00    -0.312 N 
ENDROOT
BRANCH   9  13
HETATM   13  C13 UNL     1       0.070   2.616  23.301  1.00  0.00     0.478 C 
BRANCH  13  14
HETATM   14  N3  UNL     1       0.446   3.914  23.894  1.00  0.00    -0.054 N 
ATOM     15  H33 UNL     1      -0.125   4.114  24.715  1.00  0.00     0.276 HD
ATOM     16  H32 UNL     1       1.364   3.858  24.334  1.00  0.00     0.276 HD
ATOM     17  H31 UNL     1       0.410   4.690  23.232  1.00  0.00     0.276 HD
ENDBRANCH  13  14
ENDBRANCH   9  13
BRANCH   9  18
HETATM   18  C14 UNL     1      -2.321   2.314  23.597  1.00  0.00     0.280 C 
BRANCH  18  19
HETATM   19  C15 UNL     1      -2.567   2.669  22.191  1.00  0.00     0.265 C 
BRANCH  19  20
HETATM   20  N4  UNL     1      -3.260   3.931  21.993  1.00  0.00    -0.068 N 
HETATM   21  C16 UNL     1      -4.492   4.063  22.664  1.00  0.00     0.272 C 
HETATM   22  C17 UNL     1      -3.527   3.976  20.545  1.00  0.00     0.238 C 
HETATM   23  C18 UNL     1      -4.524   5.007  20.167  1.00  0.00     0.040 C 
HETATM   24  C19 UNL     1      -3.959   6.415  20.184  1.00  0.00     0.110 C 
HETATM   25  S1  UNL     1      -2.200   6.317  19.950  1.00  0.00     0.016 S 
HETATM   26  O1  UNL     1      -1.596   7.861  19.792  1.00  0.00    -0.258 OA
HETATM   27  C20 UNL     1      -1.430   5.412  21.268  1.00  0.00     0.136 C 
HETATM   28  C21 UNL     1      -2.411   5.052  22.350  1.00  0.00     0.249 C 
ENDBRANCH  19  20
ENDBRANCH  18  19
ENDBRANCH   9  18
BRANCH   1  29
HETATM   29  C3  UNL     1      -0.131   1.988  28.436  1.00  0.00    -0.004 C 
HETATM   30  C2  UNL     1      -0.305   3.058  29.171  1.00  0.00    -0.033 C 
HETATM   31  C1  UNL     1      -1.341   3.053  30.240  1.00  0.00     0.036 C 
ENDBRANCH   1  29
BRANCH   2  32
HETATM   32  N1  UNL     1       1.536   0.182  28.905  1.00  0.00    -0.072 N 
HETATM   33  C6  UNL     1       2.306  -1.068  28.892  1.00  0.00     0.267 C 
ATOM     34  H12 UNL     1       1.695   0.748  29.738  1.00  0.00     0.277 HD
ATOM     35  H11 UNL     1       0.535   0.040  29.040  1.00  0.00     0.277 HD
ENDBRANCH   2  32
TORSDOF 7
ENDMDL
MODEL 3
REMARK VINA RESULT: -5.741970716      4.483      7.653
REMARK  7 active torsions:
REMARK  status: ('A' for Active; 'I' for Inactive)
REMARK    1  A    between atoms: C3_3  and  C4_4 
REMARK    2  A    between atoms: C5_5  and  N1_6 
REMARK    3  A    between atoms: N2_16  and  C13_17 
REMARK    4  A    between atoms: N2_16  and  C14_22 
REMARK    5  A    between atoms: C13_17  and  N3_18 
REMARK    6  A    between atoms: C14_22  and  C15_23 
REMARK    7  A    between atoms: C15_23  and  N4_24 
ROOT
HETATM    1  C4  UNL     1      -1.964   4.804  22.335  1.00  0.00     0.142 C 
HETATM    2  C5  UNL     1      -3.372   5.125  22.717  1.00  0.00     0.214 C 
HETATM    3  C7  UNL     1      -4.008   3.787  23.016  1.00  0.00     0.061 C 
HETATM    4  C8  UNL     1      -2.829   2.862  23.372  1.00  0.00     0.097 C 
HETATM    5  C9  UNL     1      -3.151   1.487  22.918  1.00  0.00     0.036 C 
HETATM    6  C10 UNL     1      -4.074   0.861  23.964  1.00  0.00     0.014 C 
HETATM    7  C11 UNL     1      -2.013   0.611  22.581  1.00  0.00     0.205 C 
HETATM    8  C12 UNL     1      -2.276  -0.000  21.205  1.00  0.00     0.041 C 
HETATM    9  N2  UNL     1      -0.680   1.182  22.688  1.00  0.00     0.043 N 
HETATM   10  C22 UNL     1      -0.773   2.498  22.095  1.00  0.00     0.420 C 
HETATM   11  O2  UNL     1      -0.007   2.894  21.184  1.00  0.00    -0.239 OA
HETATM   12  N5  UNL     1      -1.761   3.396  22.541  1.00  0.00    -0.312 N 
ENDROOT
BRANCH   9  13
HETATM   13  C13 UNL     1      -0.307   1.365  24.046  1.00  0.00     0.478 C 
BRANCH  13  14
HETATM   14  N3  UNL     1       0.745   2.381  24.238  1.00  0.00    -0.054 N 
ATOM     15  H33 UNL     1       1.660   2.005  23.989  1.00  0.00     0.276 HD
ATOM     16  H32 UNL     1       0.668   3.117  23.536  1.00  0.00     0.276 HD
ATOM     17  H31 UNL     1       0.762   2.779  25.177  1.00  0.00     0.276 HD
ENDBRANCH  13  14
ENDBRANCH   9  13
BRANCH   9  18
HETATM   18  C14 UNL     1       0.180   0.345  21.896  1.00  0.00     0.280 C 
BRANCH  18  19
HETATM   19  C15 UNL     1       0.541  -0.982  22.418  1.00  0.00     0.265 C 
BRANCH  19  20
HETATM   20  N4  UNL     1       1.540  -1.692  21.637  1.00  0.00    -0.068 N 
HETATM   21  C16 UNL     1       2.619  -2.228  22.368  1.00  0.00     0.272 C 
HETATM   22  C17 UNL     1       2.078  -0.672  20.721  1.00  0.00     0.238 C 
HETATM   23  C18 UNL     1       3.345  -1.083  20.068  1.00  0.00     0.040 C 
HETATM   24  C19 UNL     1       3.140  -2.088  18.951  1.00  0.00     0.110 C 
HETATM   25  S1  UNL     1       1.485  -1.907  18.329  1.00  0.00     0.016 S 
HETATM   26  O1  UNL     1       1.308  -2.882  16.991  1.00  0.00    -0.258 OA
HETATM   27  C20 UNL     1       0.287  -2.254  19.592  1.00  0.00     0.136 C 
HETATM   28  C21 UNL     1       0.932  -2.752  20.856  1.00  0.00     0.249 C 
ENDBRANCH  19  20
ENDBRANCH  18  19
ENDBRANCH   9  18
BRANCH   1  29
HETATM   29  C3  UNL     1      -1.808   5.176  20.881  1.00  0.00    -0.004 C 
HETATM   30  C2  UNL     1      -1.053   6.191  20.542  1.00  0.00    -0.033 C 
HETATM   31  C1  UNL     1      -0.907   6.549  19.104  1.00  0.00     0.036 C 
ENDBRANCH   1  29
BRANCH   2  32
HETATM   32  N1  UNL     1      -4.132   5.724  21.630  1.00  0.00    -0.072 N 
HETATM   33  C6  UNL     1      -5.398   4.983  21.561  1.00  0.00     0.267 C 
ATOM     34  H12 UNL     1      -4.256   6.732  21.728  1.00  0.00     0.277 HD
ATOM     35  H11 UNL     1      -3.626   5.747  20.744  1.00  0.00     0.277 HD
ENDBRANCH   2  32
TORSDOF 7
ENDMDL
MODEL 4
REMARK VINA RESULT: -5.737096903      2.019      2.577
REMARK  7 active torsions:
REMARK  status: ('A' for Active; 'I' for Inactive)
REMARK    1  A    between atoms: C3_3  and  C4_4 
REMARK    2  A    between atoms: C5_5  and  N1_6 
REMARK    3  A    between atoms: N2_16  and  C13_17 
REMARK    4  A    between atoms: N2_16  and  C14_22 
REMARK    5  A    between atoms: C13_17  and  N3_18 
REMARK    6  A    between atoms: C14_22  and  C15_23 
REMARK    7  A    between atoms: C15_23  and  N4_24 
ROOT
HETATM    1  C4  UNL     1      -2.014   2.872  21.220  1.00  0.00     0.142 C 
HETATM    2  C5  UNL     1      -1.535   1.763  20.343  1.00  0.00     0.214 C 
HETATM    3  C7  UNL     1      -0.844   0.798  21.280  1.00  0.00     0.061 C 
HETATM    4  C8  UNL     1      -1.465   1.078  22.661  1.00  0.00     0.097 C 
HETATM    5  C9  UNL     1      -0.433   0.849  23.701  1.00  0.00     0.036 C 
HETATM    6  C10 UNL     1      -0.352  -0.659  23.944  1.00  0.00     0.014 C 
HETATM    7  C11 UNL     1      -0.568   1.610  24.957  1.00  0.00     0.205 C 
HETATM    8  C12 UNL     1       0.777   2.271  25.258  1.00  0.00     0.041 C 
HETATM    9  N2  UNL     1      -1.678   2.546  25.050  1.00  0.00     0.043 N 
HETATM   10  C22 UNL     1      -1.708   3.240  23.783  1.00  0.00     0.420 C 
HETATM   11  O2  UNL     1      -1.699   4.491  23.686  1.00  0.00    -0.239 OA
HETATM   12  N5  UNL     1      -1.749   2.503  22.584  1.00  0.00    -0.312 N 
ENDROOT
BRANCH   9  13
HETATM   13  C13 UNL     1      -2.916   1.862  25.179  1.00  0.00     0.478 C 
BRANCH  13  14
HETATM   14  N3  UNL     1      -4.078   2.657  24.737  1.00  0.00    -0.054 N 
ATOM     15  H33 UNL     1      -4.228   3.452  25.357  1.00  0.00     0.276 HD
ATOM     16  H32 UNL     1      -3.866   3.154  23.871  1.00  0.00     0.276 HD
ATOM     17  H31 UNL     1      -4.933   2.109  24.638  1.00  0.00     0.276 HD
ENDBRANCH  13  14
ENDBRANCH   9  13
BRANCH   9  18
HETATM   18  C14 UNL     1      -1.342   3.463  26.106  1.00  0.00     0.280 C 
BRANCH  18  19
HETATM   19  C15 UNL     1      -1.998   3.297  27.412  1.00  0.00     0.265 C 
BRANCH  19  20
HETATM   20  N4  UNL     1      -2.241   4.536  28.132  1.00  0.00    -0.068 N 
HETATM   21  C16 UNL     1      -1.221   4.940  29.016  1.00  0.00     0.272 C 
HETATM   22  C17 UNL     1      -3.448   4.261  28.931  1.00  0.00     0.238 C 
HETATM   23  C18 UNL     1      -3.682   5.262  30.001  1.00  0.00     0.040 C 
HETATM   24  C19 UNL     1      -4.236   6.573  29.477  1.00  0.00     0.110 C 
HETATM   25  S1  UNL     1      -5.069   6.257  27.939  1.00  0.00     0.016 S 
HETATM   26  O1  UNL     1      -5.828   7.654  27.446  1.00  0.00    -0.258 OA
HETATM   27  C20 UNL     1      -3.944   5.623  26.721  1.00  0.00     0.136 C 
HETATM   28  C21 UNL     1      -2.523   5.624  27.215  1.00  0.00     0.249 C 
ENDBRANCH  19  20
ENDBRANCH  18  19
ENDBRANCH   9  18
BRANCH   1  29
HETATM   29  C3  UNL     1      -1.245   4.108  20.824  1.00  0.00    -0.004 C 
HETATM   30  C2  UNL     1      -1.874   5.134  20.308  1.00  0.00    -0.033 C 
HETATM   31  C1  UNL     1      -1.104   6.349  19.922  1.00  0.00     0.036 C 
ENDBRANCH   1  29
BRANCH   2  32
HETATM   32  N1  UNL     1      -0.542   2.196  19.371  1.00  0.00    -0.072 N 
HETATM   33  C6  UNL     1       0.154   0.981  18.929  1.00  0.00     0.267 C 
ATOM     34  H12 UNL     1      -0.935   2.740  18.604  1.00  0.00     0.277 HD
ATOM     35  H11 UNL     1       0.087   2.917  19.726  1.00  0.00     0.277 HD
ENDBRANCH   2  32
TORSDOF 7
ENDMDL
MODEL 5
REMARK VINA RESULT: -5.712669085      1.802      2.312
REMARK  7 active torsions:
REMARK  status: ('A' for Active; 'I' for Inactive)
REMARK    1  A    between atoms: C3_3  and  C4_4 
REMARK    2  A    between atoms: C5_5  and  N1_6 
REMARK    3  A    between atoms: N2_16  and  C13_17 
REMARK    4  A    between atoms: N2_16  and  C14_22 
REMARK    5  A    between atoms: C13_17  and  N3_18 
REMARK    6  A    between atoms: C14_22  and  C15_23 
REMARK    7  A    between atoms: C15_23  and  N4_24 
ROOT
HETATM    1  C4  UNL     1      -1.827   2.481  21.105  1.00  0.00     0.142 C 
HETATM    2  C5  UNL     1      -1.243   1.429  20.221  1.00  0.00     0.214 C 
HETATM    3  C7  UNL     1      -0.438   0.546  21.148  1.00  0.00     0.061 C 
HETATM    4  C8  UNL     1      -1.066   0.761  22.538  1.00  0.00     0.097 C 
HETATM    5  C9  UNL     1       0.001   0.646  23.563  1.00  0.00     0.036 C 
HETATM    6  C10 UNL     1       0.248  -0.844  23.806  1.00  0.00     0.014 C 
HETATM    7  C11 UNL     1      -0.197   1.391  24.820  1.00  0.00     0.205 C 
HETATM    8  C12 UNL     1       1.073   2.194  25.100  1.00  0.00     0.041 C 
HETATM    9  N2  UNL     1      -1.400   2.201  24.930  1.00  0.00     0.043 N 
HETATM   10  C22 UNL     1      -1.524   2.886  23.663  1.00  0.00     0.420 C 
HETATM   11  O2  UNL     1      -1.652   4.130  23.566  1.00  0.00    -0.239 OA
HETATM   12  N5  UNL     1      -1.503   2.146  22.465  1.00  0.00    -0.312 N 
ENDROOT
BRANCH   9  13
HETATM   13  C13 UNL     1      -2.555   1.388  25.077  1.00  0.00     0.478 C 
BRANCH  13  14
HETATM   14  N3  UNL     1      -3.814   2.088  24.760  1.00  0.00    -0.054 N 
ATOM     15  H33 UNL     1      -4.090   1.913  23.794  1.00  0.00     0.276 HD
ATOM     16  H32 UNL     1      -4.601   1.652  25.243  1.00  0.00     0.276 HD
ATOM     17  H31 UNL     1      -3.784   3.089  24.952  1.00  0.00     0.276 HD
ENDBRANCH  13  14
ENDBRANCH   9  13
BRANCH   9  18
HETATM   18  C14 UNL     1      -1.150   3.151  25.980  1.00  0.00     0.280 C 
BRANCH  18  19
HETATM   19  C15 UNL     1      -1.432   2.753  27.367  1.00  0.00     0.265 C 
BRANCH  19  20
HETATM   20  N4  UNL     1      -2.291   3.667  28.101  1.00  0.00    -0.068 N 
HETATM   21  C16 UNL     1      -3.659   3.330  28.131  1.00  0.00     0.272 C 
HETATM   22  C17 UNL     1      -2.157   4.946  27.382  1.00  0.00     0.238 C 
HETATM   23  C18 UNL     1      -3.205   5.932  27.744  1.00  0.00     0.040 C 
HETATM   24  C19 UNL     1      -2.971   6.580  29.095  1.00  0.00     0.110 C 
HETATM   25  S1  UNL     1      -1.234   6.499  29.463  1.00  0.00     0.016 S 
HETATM   26  O1  UNL     1      -0.943   7.360  30.859  1.00  0.00    -0.258 OA
HETATM   27  C20 UNL     1      -0.681   4.816  29.570  1.00  0.00     0.136 C 
HETATM   28  C21 UNL     1      -1.823   3.842  29.462  1.00  0.00     0.249 C 
ENDBRANCH  19  20
ENDBRANCH  18  19
ENDBRANCH   9  18
BRANCH   1  29
HETATM   29  C3  UNL     1      -1.202   3.793  20.698  1.00  0.00    -0.004 C 
HETATM   30  C2  UNL     1      -1.948   4.748  20.201  1.00  0.00    -0.033 C 
HETATM   31  C1  UNL     1      -1.320   6.037  19.802  1.00  0.00     0.036 C 
ENDBRANCH   1  29
BRANCH   2  32
HETATM   32  N1  UNL     1      -0.318   1.965  19.235  1.00  0.00    -0.072 N 
HETATM   33  C6  UNL     1       0.431   0.816  18.711  1.00  0.00     0.267 C 
ATOM     34  H12 UNL     1      -0.773   2.518  18.509  1.00  0.00     0.277 HD
ATOM     35  H11 UNL     1       0.280   2.707  19.599  1.00  0.00     0.277 HD
ENDBRANCH   2  32
TORSDOF 7
ENDMDL
