MODEL 1
REMARK VINA RESULT: -5.830715164      0.000      0.000
REMARK  6 active torsions:
REMARK  status: ('A' for Active; 'I' for Inactive)
REMARK    1  A    between atoms: C3_3  and  C5_5 
REMARK    2  A    between atoms: C7_8  and  C8_9 
REMARK       I    between atoms: C8_9  and  N2_11 
REMARK       I    between atoms: N2_11  and  C9_13 
REMARK    3  A    between atoms: C16_22  and  C17_23 
REMARK    4  A    between atoms: C17_23  and  C18_24 
REMARK    5  A    between atoms: C17_23  and  N5_29 
REMARK    6  A    between atoms: C18_24  and  N4_25 
ROOT
HETATM    1  C5  UNL     1      -4.778   3.560  22.152  1.00  0.00     0.098 C 
HETATM    2  N1  UNL     1      -3.539   3.029  22.018  1.00  0.00    -0.351 N 
HETATM    3  C6  UNL     1      -2.836   3.487  20.854  1.00  0.00     0.107 C 
HETATM    4  C7  UNL     1      -1.898   4.655  21.167  1.00  0.00     0.102 C 
HETATM    5  C10 UNL     1      -0.581   4.053  21.592  1.00  0.00     0.022 C 
HETATM    6  C11 UNL     1      -0.743   2.622  21.317  1.00  0.00     0.007 C 
HETATM    7  C12 UNL     1      -1.874   2.481  20.315  1.00  0.00     0.016 C 
HETATM    8  C13 UNL     1      -2.115   1.153  20.933  1.00  0.00     0.023 C 
HETATM    9  C14 UNL     1      -1.594   1.765  22.245  1.00  0.00     0.006 C 
HETATM   10  C15 UNL     1      -0.687   0.856  22.983  1.00  0.00     0.022 C 
HETATM   11  C16 UNL     1      -2.649   2.555  22.979  1.00  0.00     0.057 C 
ENDROOT
BRANCH  11  12
HETATM   12  C17 UNL     1      -3.023   2.188  24.350  1.00  0.00     0.182 C 
BRANCH  12  13
HETATM   13  C18 UNL     1      -4.161   1.348  24.711  1.00  0.00     0.240 C 
BRANCH  13  14
HETATM   14  N4  UNL     1      -4.412   0.008  24.631  1.00  0.00    -0.056 N 
HETATM   15  C19 UNL     1      -4.335  -0.700  23.386  1.00  0.00     0.277 C 
HETATM   16  C20 UNL     1      -5.444  -0.616  25.409  1.00  0.00     0.277 C 
HETATM   17  C21 UNL     1      -3.182  -0.611  25.326  1.00  0.00     0.277 C 
ENDBRANCH  13  14
ENDBRANCH  12  13
BRANCH  12  18
HETATM   18  N5  UNL     1      -2.721   3.168  25.408  1.00  0.00    -0.045 N 
HETATM   19  C22 UNL     1      -2.492   4.499  25.010  1.00  0.00     0.278 C 
HETATM   20  C23 UNL     1      -3.694   3.179  26.481  1.00  0.00     0.278 C 
HETATM   21  C24 UNL     1      -1.469   2.810  26.126  1.00  0.00     0.278 C 
ENDBRANCH  12  18
ENDBRANCH  11  12
BRANCH   1  22
HETATM   22  C3  UNL     1      -5.868   3.065  21.258  1.00  0.00    -0.051 C 
HETATM   23  C2  UNL     1      -6.798   3.959  20.867  1.00  0.00    -0.023 C 
HETATM   24  C1  UNL     1      -7.889   3.546  19.975  1.00  0.00     0.036 C 
HETATM   25  C4  UNL     1      -6.018   1.693  20.745  1.00  0.00     0.049 C 
ENDBRANCH   1  22
BRANCH   4  26
HETATM   26  C8  UNL     1      -1.667   5.405  19.910  1.00  0.00     0.231 C 
HETATM   27  O1  UNL     1      -0.740   4.996  19.117  1.00  0.00    -0.273 OA
HETATM   28  N2  UNL     1      -2.374   6.550  19.485  1.00  0.00    -0.281 N 
HETATM   29  C9  UNL     1      -3.454   7.183  20.118  1.00  0.00     0.335 C 
ATOM     30  H2  UNL     1      -2.061   6.969  18.610  1.00  0.00     0.173 HD
HETATM   31  N3  UNL     1      -4.067   6.806  21.326  1.00  0.00    -0.040 NA
HETATM   32  O2  UNL     1      -3.954   8.221  19.555  1.00  0.00    -0.251 OA
ENDBRANCH   4  26
TORSDOF 6
ENDMDL
MODEL 2
REMARK VINA RESULT: -5.654994099      1.726      3.759
REMARK  6 active torsions:
REMARK  status: ('A' for Active; 'I' for Inactive)
REMARK    1  A    between atoms: C3_3  and  C5_5 
REMARK    2  A    between atoms: C7_8  and  C8_9 
REMARK       I    between atoms: C8_9  and  N2_11 
REMARK       I    between atoms: N2_11  and  C9_13 
REMARK    3  A    between atoms: C16_22  and  C17_23 
REMARK    4  A    between atoms: C17_23  and  C18_24 
REMARK    5  A    between atoms: C17_23  and  N5_29 
REMARK    6  A    between atoms: C18_24  and  N4_25 
ROOT
HETATM    1  C5  UNL     1      -2.583   4.396  24.519  1.00  0.00     0.098 C 
HETATM    2  N1  UNL     1      -3.108   3.767  23.441  1.00  0.00    -0.351 N 
HETATM    3  C6  UNL     1      -3.815   4.641  22.548  1.00  0.00     0.107 C 
HETATM    4  C7  UNL     1      -2.938   5.109  21.384  1.00  0.00     0.102 C 
HETATM    5  C10 UNL     1      -3.069   4.072  20.296  1.00  0.00     0.022 C 
HETATM    6  C11 UNL     1      -4.135   3.188  20.779  1.00  0.00     0.007 C 
HETATM    7  C12 UNL     1      -4.925   3.963  21.818  1.00  0.00     0.016 C 
HETATM    8  C13 UNL     1      -5.215   2.641  22.429  1.00  0.00     0.023 C 
HETATM    9  C14 UNL     1      -3.846   2.190  21.892  1.00  0.00     0.006 C 
HETATM   10  C15 UNL     1      -3.879   0.831  21.302  1.00  0.00     0.022 C 
HETATM   11  C16 UNL     1      -2.702   2.610  22.781  1.00  0.00     0.057 C 
ENDROOT
BRANCH  11  12
HETATM   12  C17 UNL     1      -1.804   1.599  23.353  1.00  0.00     0.182 C 
BRANCH  12  13
HETATM   13  C18 UNL     1      -2.028   0.894  24.611  1.00  0.00     0.240 C 
BRANCH  13  14
HETATM   14  N4  UNL     1      -3.068   0.169  25.118  1.00  0.00    -0.056 N 
HETATM   15  C19 UNL     1      -3.511  -1.048  24.499  1.00  0.00     0.277 C 
HETATM   16  C20 UNL     1      -4.225   0.800  25.686  1.00  0.00     0.277 C 
HETATM   17  C21 UNL     1      -2.468  -0.432  26.406  1.00  0.00     0.277 C 
ENDBRANCH  13  14
ENDBRANCH  12  13
BRANCH  12  18
HETATM   18  N5  UNL     1      -0.366   1.750  23.070  1.00  0.00    -0.045 N 
HETATM   19  C22 UNL     1       0.411   2.442  24.019  1.00  0.00     0.278 C 
HETATM   20  C23 UNL     1       0.299   0.498  22.770  1.00  0.00     0.278 C 
HETATM   21  C24 UNL     1      -0.145   2.527  21.822  1.00  0.00     0.278 C 
ENDBRANCH  12  18
ENDBRANCH  11  12
BRANCH   1  22
HETATM   22  C3  UNL     1      -3.504   4.826  25.614  1.00  0.00    -0.051 C 
HETATM   23  C2  UNL     1      -2.987   5.609  26.582  1.00  0.00    -0.023 C 
HETATM   24  C1  UNL     1      -3.839   6.083  27.682  1.00  0.00     0.036 C 
HETATM   25  C4  UNL     1      -4.933   4.491  25.733  1.00  0.00     0.049 C 
ENDBRANCH   1  22
BRANCH   4  26
HETATM   26  C8  UNL     1      -3.503   6.379  20.868  1.00  0.00     0.231 C 
HETATM   27  O1  UNL     1      -4.640   6.770  21.327  1.00  0.00    -0.273 OA
HETATM   28  N2  UNL     1      -2.911   7.218  19.902  1.00  0.00    -0.281 N 
HETATM   29  C9  UNL     1      -1.668   7.067  19.270  1.00  0.00     0.335 C 
ATOM     30  H2  UNL     1      -3.454   8.037  19.628  1.00  0.00     0.173 HD
HETATM   31  N3  UNL     1      -0.737   6.031  19.470  1.00  0.00    -0.040 NA
HETATM   32  O2  UNL     1      -1.317   7.955  18.414  1.00  0.00    -0.251 OA
ENDBRANCH   4  26
TORSDOF 6
ENDMDL
MODEL 3
REMARK VINA RESULT: -5.545125864      1.658      3.941
REMARK  6 active torsions:
REMARK  status: ('A' for Active; 'I' for Inactive)
REMARK    1  A    between atoms: C3_3  and  C5_5 
REMARK    2  A    between atoms: C7_8  and  C8_9 
REMARK       I    between atoms: C8_9  and  N2_11 
REMARK       I    between atoms: N2_11  and  C9_13 
REMARK    3  A    between atoms: C16_22  and  C17_23 
REMARK    4  A    between atoms: C17_23  and  C18_24 
REMARK    5  A    between atoms: C17_23  and  N5_29 
REMARK    6  A    between atoms: C18_24  and  N4_25 
ROOT
HETATM    1  C5  UNL     1      -3.377   1.593  20.899  1.00  0.00     0.098 C 
HETATM    2  N1  UNL     1      -3.339   2.491  21.912  1.00  0.00    -0.351 N 
HETATM    3  C6  UNL     1      -2.201   3.365  21.868  1.00  0.00     0.107 C 
HETATM    4  C7  UNL     1      -2.524   4.699  21.190  1.00  0.00     0.102 C 
HETATM    5  C10 UNL     1      -3.050   5.617  22.265  1.00  0.00     0.022 C 
HETATM    6  C11 UNL     1      -2.824   4.871  23.507  1.00  0.00     0.007 C 
HETATM    7  C12 UNL     1      -1.762   3.827  23.217  1.00  0.00     0.016 C 
HETATM    8  C13 UNL     1      -2.417   3.020  24.278  1.00  0.00     0.023 C 
HETATM    9  C14 UNL     1      -3.732   3.702  23.864  1.00  0.00     0.006 C 
HETATM   10  C15 UNL     1      -4.559   4.108  25.025  1.00  0.00     0.022 C 
HETATM   11  C16 UNL     1      -4.369   3.058  22.658  1.00  0.00     0.057 C 
ENDROOT
BRANCH  11  12
HETATM   12  C17 UNL     1      -5.729   2.512  22.747  1.00  0.00     0.182 C 
BRANCH  12  13
HETATM   13  C18 UNL     1      -6.064   1.168  23.211  1.00  0.00     0.240 C 
BRANCH  13  14
HETATM   14  N4  UNL     1      -5.918   0.514  24.400  1.00  0.00    -0.056 N 
HETATM   15  C19 UNL     1      -6.636   0.917  25.575  1.00  0.00     0.277 C 
HETATM   16  C20 UNL     1      -4.648   0.006  24.834  1.00  0.00     0.277 C 
HETATM   17  C21 UNL     1      -6.635  -0.828  24.139  1.00  0.00     0.277 C 
ENDBRANCH  13  14
ENDBRANCH  12  13
BRANCH  12  18
HETATM   18  N5  UNL     1      -6.709   2.999  21.760  1.00  0.00    -0.045 N 
HETATM   19  C22 UNL     1      -6.419   4.214  21.108  1.00  0.00     0.278 C 
HETATM   20  C23 UNL     1      -7.053   2.017  20.752  1.00  0.00     0.278 C 
HETATM   21  C24 UNL     1      -8.024   3.265  22.399  1.00  0.00     0.278 C 
ENDBRANCH  12  18
ENDBRANCH  11  12
BRANCH   1  22
HETATM   22  C3  UNL     1      -2.439   0.430  20.941  1.00  0.00    -0.051 C 
HETATM   23  C2  UNL     1      -1.363   0.477  20.131  1.00  0.00    -0.023 C 
HETATM   24  C1  UNL     1      -0.390  -0.624  20.130  1.00  0.00     0.036 C 
HETATM   25  C4  UNL     1      -2.566  -0.763  21.795  1.00  0.00     0.049 C 
ENDBRANCH   1  22
BRANCH   4  26
HETATM   26  C8  UNL     1      -1.253   5.274  20.687  1.00  0.00     0.231 C 
HETATM   27  O1  UNL     1      -0.154   4.674  20.981  1.00  0.00    -0.273 OA
HETATM   28  N2  UNL     1      -1.124   6.440  19.903  1.00  0.00    -0.281 N 
HETATM   29  C9  UNL     1      -2.143   7.261  19.399  1.00  0.00     0.335 C 
ATOM     30  H2  UNL     1      -0.171   6.720  19.674  1.00  0.00     0.173 HD
HETATM   31  N3  UNL     1      -3.529   7.093  19.573  1.00  0.00    -0.040 NA
HETATM   32  O2  UNL     1      -1.803   8.282  18.702  1.00  0.00    -0.251 OA
ENDBRANCH   4  26
TORSDOF 6
ENDMDL
MODEL 4
REMARK VINA RESULT: -5.506559251      2.339      5.035
REMARK  6 active torsions:
REMARK  status: ('A' for Active; 'I' for Inactive)
REMARK    1  A    between atoms: C3_3  and  C5_5 
REMARK    2  A    between atoms: C7_8  and  C8_9 
REMARK       I    between atoms: C8_9  and  N2_11 
REMARK       I    between atoms: N2_11  and  C9_13 
REMARK    3  A    between atoms: C16_22  and  C17_23 
REMARK    4  A    between atoms: C17_23  and  C18_24 
REMARK    5  A    between atoms: C17_23  and  N5_29 
REMARK    6  A    between atoms: C18_24  and  N4_25 
ROOT
HETATM    1  C5  UNL     1      -0.175   2.587  23.721  1.00  0.00     0.098 C 
HETATM    2  N1  UNL     1      -1.305   2.268  23.045  1.00  0.00    -0.351 N 
HETATM    3  C6  UNL     1      -2.209   3.369  22.876  1.00  0.00     0.107 C 
HETATM    4  C7  UNL     1      -2.034   4.057  21.519  1.00  0.00     0.102 C 
HETATM    5  C10 UNL     1      -2.919   3.323  20.542  1.00  0.00     0.022 C 
HETATM    6  C11 UNL     1      -3.694   2.408  21.387  1.00  0.00     0.007 C 
HETATM    7  C12 UNL     1      -3.639   2.950  22.804  1.00  0.00     0.016 C 
HETATM    8  C13 UNL     1      -3.786   1.537  23.236  1.00  0.00     0.023 C 
HETATM    9  C14 UNL     1      -3.035   1.156  21.949  1.00  0.00     0.006 C 
HETATM   10  C15 UNL     1      -3.629  -0.016  21.263  1.00  0.00     0.022 C 
HETATM   11  C16 UNL     1      -1.538   1.285  22.087  1.00  0.00     0.057 C 
ENDROOT
BRANCH  11  12
HETATM   12  C17 UNL     1      -0.675   0.118  21.865  1.00  0.00     0.182 C 
BRANCH  12  13
HETATM   13  C18 UNL     1      -0.040  -0.667  22.919  1.00  0.00     0.240 C 
BRANCH  13  14
HETATM   14  N4  UNL     1      -0.509  -1.504  23.890  1.00  0.00    -0.056 N 
HETATM   15  C19 UNL     1      -1.454  -1.060  24.875  1.00  0.00     0.277 C 
HETATM   16  C20 UNL     1       0.334  -2.478  24.522  1.00  0.00     0.277 C 
HETATM   17  C21 UNL     1      -1.428  -2.459  23.101  1.00  0.00     0.277 C 
ENDBRANCH  13  14
ENDBRANCH  12  13
BRANCH  12  18
HETATM   18  N5  UNL     1       0.128   0.109  20.630  1.00  0.00    -0.045 N 
HETATM   19  C22 UNL     1       0.066   1.253  19.810  1.00  0.00     0.278 C 
HETATM   20  C23 UNL     1       1.524  -0.213  20.849  1.00  0.00     0.278 C 
HETATM   21  C24 UNL     1      -0.305  -0.982  19.718  1.00  0.00     0.278 C 
ENDBRANCH  12  18
ENDBRANCH  11  12
BRANCH   1  22
HETATM   22  C3  UNL     1      -0.260   2.789  25.199  1.00  0.00    -0.051 C 
HETATM   23  C2  UNL     1       0.468   1.964  25.976  1.00  0.00    -0.023 C 
HETATM   24  C1  UNL     1       0.445   2.114  27.438  1.00  0.00     0.036 C 
HETATM   25  C4  UNL     1      -1.054   3.816  25.894  1.00  0.00     0.049 C 
ENDBRANCH   1  22
BRANCH   4  26
HETATM   26  C8  UNL     1      -2.548   5.443  21.640  1.00  0.00     0.231 C 
HETATM   27  O1  UNL     1      -3.305   5.726  22.641  1.00  0.00    -0.273 OA
HETATM   28  N2  UNL     1      -2.287   6.504  20.749  1.00  0.00    -0.281 N 
HETATM   29  C9  UNL     1      -1.469   6.496  19.610  1.00  0.00     0.335 C 
ATOM     30  H2  UNL     1      -2.752   7.387  20.958  1.00  0.00     0.173 HD
HETATM   31  N3  UNL     1      -0.724   5.412  19.110  1.00  0.00    -0.040 NA
HETATM   32  O2  UNL     1      -1.370   7.581  18.934  1.00  0.00    -0.251 OA
ENDBRANCH   4  26
TORSDOF 6
ENDMDL
MODEL 5
REMARK VINA RESULT: -5.448696136      1.888      2.529
REMARK  6 active torsions:
REMARK  status: ('A' for Active; 'I' for Inactive)
REMARK    1  A    between atoms: C3_3  and  C5_5 
REMARK    2  A    between atoms: C7_8  and  C8_9 
REMARK       I    between atoms: C8_9  and  N2_11 
REMARK       I    between atoms: N2_11  and  C9_13 
REMARK    3  A    between atoms: C16_22  and  C17_23 
REMARK    4  A    between atoms: C17_23  and  C18_24 
REMARK    5  A    between atoms: C17_23  and  N5_29 
REMARK    6  A    between atoms: C18_24  and  N4_25 
ROOT
HETATM    1  C5  UNL     1      -4.964   3.898  22.913  1.00  0.00     0.098 C 
HETATM    2  N1  UNL     1      -3.912   3.309  23.530  1.00  0.00    -0.351 N 
HETATM    3  C6  UNL     1      -2.742   3.206  22.705  1.00  0.00     0.107 C 
HETATM    4  C7  UNL     1      -1.763   4.358  22.946  1.00  0.00     0.102 C 
HETATM    5  C10 UNL     1      -0.865   3.936  24.083  1.00  0.00     0.022 C 
HETATM    6  C11 UNL     1      -1.217   2.529  24.305  1.00  0.00     0.007 C 
HETATM    7  C12 UNL     1      -1.889   2.028  23.041  1.00  0.00     0.016 C 
HETATM    8  C13 UNL     1      -2.624   1.093  23.929  1.00  0.00     0.023 C 
HETATM    9  C14 UNL     1      -2.517   2.177  25.015  1.00  0.00     0.006 C 
HETATM   10  C15 UNL     1      -2.173   1.625  26.346  1.00  0.00     0.022 C 
HETATM   11  C16 UNL     1      -3.574   3.246  24.879  1.00  0.00     0.057 C 
ENDROOT
BRANCH  11  12
HETATM   12  C17 UNL     1      -4.506   3.504  25.984  1.00  0.00     0.182 C 
BRANCH  12  13
HETATM   13  C18 UNL     1      -5.891   3.045  26.035  1.00  0.00     0.240 C 
BRANCH  13  14
HETATM   14  N4  UNL     1      -6.480   1.837  26.278  1.00  0.00    -0.056 N 
HETATM   15  C19 UNL     1      -6.033   0.637  25.630  1.00  0.00     0.277 C 
HETATM   16  C20 UNL     1      -7.896   1.711  26.472  1.00  0.00     0.277 C 
HETATM   17  C21 UNL     1      -6.013   1.513  27.713  1.00  0.00     0.277 C 
ENDBRANCH  13  14
ENDBRANCH  12  13
BRANCH  12  18
HETATM   18  N5  UNL     1      -4.330   4.766  26.723  1.00  0.00    -0.045 N 
HETATM   19  C22 UNL     1      -3.364   5.669  26.238  1.00  0.00     0.278 C 
HETATM   20  C23 UNL     1      -5.566   5.494  26.926  1.00  0.00     0.278 C 
HETATM   21  C24 UNL     1      -3.884   4.511  28.117  1.00  0.00     0.278 C 
ENDBRANCH  12  18
ENDBRANCH  11  12
BRANCH   1  22
HETATM   22  C3  UNL     1      -5.716   3.119  21.884  1.00  0.00    -0.051 C 
HETATM   23  C2  UNL     1      -5.830   3.667  20.658  1.00  0.00    -0.023 C 
HETATM   24  C1  UNL     1      -6.543   2.950  19.592  1.00  0.00     0.036 C 
HETATM   25  C4  UNL     1      -6.336   1.797  22.073  1.00  0.00     0.049 C 
ENDBRANCH   1  22
BRANCH   4  26
HETATM   26  C8  UNL     1      -0.920   4.501  21.735  1.00  0.00     0.231 C 
HETATM   27  O1  UNL     1       0.122   3.754  21.626  1.00  0.00    -0.273 OA
HETATM   28  N2  UNL     1      -1.147   5.394  20.667  1.00  0.00    -0.281 N 
HETATM   29  C9  UNL     1      -2.217   6.284  20.497  1.00  0.00     0.335 C 
ATOM     30  H2  UNL     1      -0.446   5.393  19.926  1.00  0.00     0.173 HD
HETATM   31  N3  UNL     1      -3.305   6.477  21.368  1.00  0.00    -0.040 NA
HETATM   32  O2  UNL     1      -2.231   7.013  19.442  1.00  0.00    -0.251 OA
ENDBRANCH   4  26
TORSDOF 6
ENDMDL
