MODEL 1
REMARK VINA RESULT: -7.830436444      0.000      0.000
REMARK  16 active torsions:
REMARK  status: ('A' for Active; 'I' for Inactive)
REMARK       I    between atoms: C1_2  and  N1_3 
REMARK       I    between atoms: C1_2  and  N6_34 
REMARK    1  A    between atoms: N1_3  and  C2_5 
REMARK    2  A    between atoms: C2_5  and  C3_6 
REMARK    3  A    between atoms: C3_6  and  C4_7 
REMARK    4  A    between atoms: C4_7  and  C5_8 
REMARK    5  A    between atoms: C5_8  and  N2_9 
REMARK    6  A    between atoms: N2_9  and  C6_10 
REMARK    7  A    between atoms: C11_17  and  C12_18 
REMARK    8  A    between atoms: C12_18  and  N4_19 
REMARK    9  A    between atoms: N4_19  and  C13_22 
REMARK   10  A    between atoms: C13_22  and  C14_23 
REMARK   11  A    between atoms: C14_23  and  C15_24 
REMARK   12  A    between atoms: C15_24  and  N5_25 
REMARK   13  A    between atoms: N6_34  and  C22_36 
REMARK   14  A    between atoms: C22_36  and  C23_37 
REMARK   15  A    between atoms: C23_37  and  C24_38 
REMARK   16  A    between atoms: C24_38  and  C25_39 
ROOT
HETATM    1  C6  UNL     1      19.764  10.043  24.168  1.00  0.00     0.308 A 
HETATM    2  N3  UNL     1      19.796  10.702  25.365  1.00  0.00    -0.309 N 
ATOM      3  H3  UNL     1      19.193  10.394  26.128  1.00  0.00     0.170 HD
HETATM    4  C7  UNL     1      20.607  11.741  25.542  1.00  0.00     0.053 A 
HETATM    5  C8  UNL     1      20.602  12.377  26.756  1.00  0.00     0.030 A 
HETATM    6  C9  UNL     1      21.428  13.452  26.949  1.00  0.00     0.003 A 
HETATM    7  C10 UNL     1      22.246  13.881  25.937  1.00  0.00     0.010 A 
HETATM    8  C11 UNL     1      22.280  13.253  24.675  1.00  0.00    -0.014 A 
HETATM    9  C20 UNL     1      21.437  12.182  24.524  1.00  0.00     0.074 A 
HETATM   10  C21 UNL     1      21.357  11.483  23.353  1.00  0.00     0.304 A 
HETATM   11  O2  UNL     1      22.085  11.838  22.390  1.00  0.00    -0.259 OA
HETATM   12  O3  UNL     1      20.568  10.471  23.179  1.00  0.00    -0.230 OA
ENDROOT
BRANCH   1  13
HETATM   13  N2  UNL     1      19.025   9.094  24.003  1.00  0.00    -0.382 NA
BRANCH  13  14
HETATM   14  C5  UNL     1      18.389   7.933  23.878  1.00  0.00     0.159 C 
BRANCH  14  15
HETATM   15  C4  UNL     1      17.559   7.827  22.600  1.00  0.00     0.061 C 
BRANCH  15  16
HETATM   16  C3  UNL     1      18.257   7.102  21.496  1.00  0.00     0.026 C 
BRANCH  16  17
HETATM   17  C2  UNL     1      18.707   8.016  20.394  1.00  0.00     0.125 C 
BRANCH  17  18
HETATM   18  N1  UNL     1      19.875   8.757  20.750  1.00  0.00    -0.343 N 
HETATM   19  C1  UNL     1      21.190   8.302  20.546  1.00  0.00     0.316 C 
HETATM   20  O1  UNL     1      21.460   7.181  20.041  1.00  0.00    -0.247 OA
HETATM   21  N6  UNL     1      22.282   9.128  20.917  1.00  0.00    -0.343 N 
ATOM     22  H6  UNL     1      22.074  10.044  21.317  1.00  0.00     0.164 HD
ATOM     23  H1  UNL     1      19.747   9.674  21.178  1.00  0.00     0.164 HD
BRANCH  21  24
HETATM   24  C22 UNL     1      23.658   8.758  20.764  1.00  0.00     0.125 C 
BRANCH  24  25
HETATM   25  C23 UNL     1      24.201   9.067  19.402  1.00  0.00     0.026 C 
BRANCH  25  26
HETATM   26  C24 UNL     1      24.918   7.862  18.843  1.00  0.00     0.060 C 
BRANCH  26  27
HETATM   27  C25 UNL     1      24.104   7.143  17.866  1.00  0.00     0.025 A 
HETATM   28  C26 UNL     1      24.331   5.983  17.171  1.00  0.00     0.113 A 
HETATM   29  N7  UNL     1      23.272   5.715  16.379  1.00  0.00    -0.360 N 
HETATM   30  C27 UNL     1      22.366   6.699  16.560  1.00  0.00     0.180 A 
ATOM     31  H7  UNL     1      23.174   4.914  15.755  1.00  0.00     0.166 HD
HETATM   32  N8  UNL     1      22.871   7.549  17.452  1.00  0.00    -0.355 N 
ATOM     33  H8  UNL     1      22.399   8.392  17.782  1.00  0.00     0.166 HD
ENDBRANCH  26  27
ENDBRANCH  25  26
ENDBRANCH  24  25
ENDBRANCH  21  24
ENDBRANCH  17  18
ENDBRANCH  16  17
ENDBRANCH  15  16
ENDBRANCH  14  15
ENDBRANCH  13  14
ENDBRANCH   1  13
BRANCH   8  34
HETATM   34  C12 UNL     1      23.188  13.725  23.634  1.00  0.00     0.271 C 
BRANCH  34  35
HETATM   35  N4  UNL     1      24.431  12.945  23.596  1.00  0.00    -0.071 N 
ATOM     36  H42 UNL     1      24.260  11.984  23.301  1.00  0.00     0.277 HD
ATOM     37  H41 UNL     1      25.034  13.242  22.829  1.00  0.00     0.277 HD
BRANCH  35  38
HETATM   38  C13 UNL     1      25.124  12.993  24.858  1.00  0.00     0.234 C 
BRANCH  38  39
HETATM   39  C14 UNL     1      26.080  11.823  24.889  1.00  0.00     0.057 C 
BRANCH  39  40
HETATM   40  C15 UNL     1      27.516  12.222  24.898  1.00  0.00     0.274 C 
BRANCH  40  41
HETATM   41  N5  UNL     1      27.753  13.384  25.694  1.00  0.00     0.088 N 
HETATM   42  C16 UNL     1      28.513  13.065  26.894  1.00  0.00     0.272 C 
HETATM   43  C17 UNL     1      29.959  13.148  26.430  1.00  0.00     0.032 C 
HETATM   44  C18 UNL     1      29.946  13.968  25.156  1.00  0.00     0.032 C 
HETATM   45  C19 UNL     1      28.505  14.421  25.024  1.00  0.00     0.272 C 
ENDBRANCH  40  41
ENDBRANCH  39  40
ENDBRANCH  38  39
ENDBRANCH  35  38
ENDBRANCH  34  35
ENDBRANCH   8  34
TORSDOF 16
ENDMDL
MODEL 2
REMARK VINA RESULT: -7.817984561      4.755      9.115
REMARK  16 active torsions:
REMARK  status: ('A' for Active; 'I' for Inactive)
REMARK       I    between atoms: C1_2  and  N1_3 
REMARK       I    between atoms: C1_2  and  N6_34 
REMARK    1  A    between atoms: N1_3  and  C2_5 
REMARK    2  A    between atoms: C2_5  and  C3_6 
REMARK    3  A    between atoms: C3_6  and  C4_7 
REMARK    4  A    between atoms: C4_7  and  C5_8 
REMARK    5  A    between atoms: C5_8  and  N2_9 
REMARK    6  A    between atoms: N2_9  and  C6_10 
REMARK    7  A    between atoms: C11_17  and  C12_18 
REMARK    8  A    between atoms: C12_18  and  N4_19 
REMARK    9  A    between atoms: N4_19  and  C13_22 
REMARK   10  A    between atoms: C13_22  and  C14_23 
REMARK   11  A    between atoms: C14_23  and  C15_24 
REMARK   12  A    between atoms: C15_24  and  N5_25 
REMARK   13  A    between atoms: N6_34  and  C22_36 
REMARK   14  A    between atoms: C22_36  and  C23_37 
REMARK   15  A    between atoms: C23_37  and  C24_38 
REMARK   16  A    between atoms: C24_38  and  C25_39 
ROOT
HETATM    1  C6  UNL     1      20.783   8.363  21.317  1.00  0.00     0.308 A 
HETATM    2  N3  UNL     1      20.118   8.248  22.506  1.00  0.00    -0.309 N 
ATOM      3  H3  UNL     1      20.613   8.416  23.381  1.00  0.00     0.170 HD
HETATM    4  C7  UNL     1      18.830   7.918  22.528  1.00  0.00     0.053 A 
HETATM    5  C8  UNL     1      18.203   7.807  23.742  1.00  0.00     0.030 A 
HETATM    6  C9  UNL     1      16.877   7.462  23.780  1.00  0.00     0.003 A 
HETATM    7  C10 UNL     1      16.194   7.232  22.614  1.00  0.00     0.010 A 
HETATM    8  C11 UNL     1      16.803   7.337  21.347  1.00  0.00    -0.014 A 
HETATM    9  C20 UNL     1      18.129   7.684  21.355  1.00  0.00     0.074 A 
HETATM   10  C21 UNL     1      18.852   7.813  20.203  1.00  0.00     0.304 A 
HETATM   11  O2  UNL     1      18.272   7.610  19.105  1.00  0.00    -0.259 OA
HETATM   12  O3  UNL     1      20.106   8.134  20.179  1.00  0.00    -0.230 OA
ENDROOT
BRANCH   1  13
HETATM   13  N2  UNL     1      21.959   8.664  21.293  1.00  0.00    -0.382 NA
BRANCH  13  14
HETATM   14  C5  UNL     1      23.190   9.153  21.405  1.00  0.00     0.159 C 
BRANCH  14  15
HETATM   15  C4  UNL     1      23.945   9.212  20.078  1.00  0.00     0.061 C 
BRANCH  15  16
HETATM   16  C3  UNL     1      23.915   7.926  19.319  1.00  0.00     0.026 C 
BRANCH  16  17
HETATM   17  C2  UNL     1      24.828   6.887  19.902  1.00  0.00     0.125 C 
BRANCH  17  18
HETATM   18  N1  UNL     1      24.130   5.694  20.261  1.00  0.00    -0.343 N 
HETATM   19  C1  UNL     1      23.758   4.693  19.347  1.00  0.00     0.316 C 
HETATM   20  O1  UNL     1      23.995   4.765  18.112  1.00  0.00    -0.247 OA
HETATM   21  N6  UNL     1      23.084   3.534  19.812  1.00  0.00    -0.343 N 
ATOM     22  H6  UNL     1      22.897   3.461  20.812  1.00  0.00     0.164 HD
ATOM     23  H1  UNL     1      23.886   5.560  21.242  1.00  0.00     0.164 HD
BRANCH  21  24
HETATM   24  C22 UNL     1      22.650   2.462  18.966  1.00  0.00     0.125 C 
BRANCH  24  25
HETATM   25  C23 UNL     1      21.201   2.556  18.597  1.00  0.00     0.026 C 
BRANCH  25  26
HETATM   26  C24 UNL     1      21.059   2.905  17.136  1.00  0.00     0.060 C 
BRANCH  26  27
HETATM   27  C25 UNL     1      20.665   4.299  16.940  1.00  0.00     0.025 A 
HETATM   28  C26 UNL     1      19.446   4.920  17.031  1.00  0.00     0.113 A 
HETATM   29  N7  UNL     1      19.586   6.235  16.761  1.00  0.00    -0.360 N 
HETATM   30  C27 UNL     1      20.890   6.461  16.496  1.00  0.00     0.180 A 
ATOM     31  H7  UNL     1      18.842   6.931  16.759  1.00  0.00     0.166 HD
HETATM   32  N8  UNL     1      21.529   5.297  16.605  1.00  0.00    -0.355 N 
ATOM     33  H8  UNL     1      22.531   5.170  16.459  1.00  0.00     0.166 HD
ENDBRANCH  26  27
ENDBRANCH  25  26
ENDBRANCH  24  25
ENDBRANCH  21  24
ENDBRANCH  17  18
ENDBRANCH  16  17
ENDBRANCH  15  16
ENDBRANCH  14  15
ENDBRANCH  13  14
ENDBRANCH   1  13
BRANCH   8  34
HETATM   34  C12 UNL     1      16.030   7.112  20.130  1.00  0.00     0.271 C 
BRANCH  34  35
HETATM   35  N4  UNL     1      15.088   5.996  20.278  1.00  0.00    -0.071 N 
ATOM     36  H42 UNL     1      15.411   5.325  20.974  1.00  0.00     0.277 HD
ATOM     37  H41 UNL     1      14.226   6.294  20.733  1.00  0.00     0.277 HD
BRANCH  35  38
HETATM   38  C13 UNL     1      14.824   5.358  19.014  1.00  0.00     0.234 C 
BRANCH  38  39
HETATM   39  C14 UNL     1      16.088   4.638  18.603  1.00  0.00     0.057 C 
BRANCH  39  40
HETATM   40  C15 UNL     1      16.226   3.280  19.200  1.00  0.00     0.274 C 
BRANCH  40  41
HETATM   41  N5  UNL     1      17.574   2.982  19.568  1.00  0.00     0.088 N 
HETATM   42  C16 UNL     1      18.166   4.059  20.349  1.00  0.00     0.272 C 
HETATM   43  C17 UNL     1      17.755   3.730  21.775  1.00  0.00     0.032 C 
HETATM   44  C18 UNL     1      17.382   2.261  21.778  1.00  0.00     0.032 C 
HETATM   45  C19 UNL     1      17.720   1.792  20.376  1.00  0.00     0.272 C 
ENDBRANCH  40  41
ENDBRANCH  39  40
ENDBRANCH  38  39
ENDBRANCH  35  38
ENDBRANCH  34  35
ENDBRANCH   8  34
TORSDOF 16
ENDMDL
MODEL 3
REMARK VINA RESULT: -7.734825738      3.443      9.328
REMARK  16 active torsions:
REMARK  status: ('A' for Active; 'I' for Inactive)
REMARK       I    between atoms: C1_2  and  N1_3 
REMARK       I    between atoms: C1_2  and  N6_34 
REMARK    1  A    between atoms: N1_3  and  C2_5 
REMARK    2  A    between atoms: C2_5  and  C3_6 
REMARK    3  A    between atoms: C3_6  and  C4_7 
REMARK    4  A    between atoms: C4_7  and  C5_8 
REMARK    5  A    between atoms: C5_8  and  N2_9 
REMARK    6  A    between atoms: N2_9  and  C6_10 
REMARK    7  A    between atoms: C11_17  and  C12_18 
REMARK    8  A    between atoms: C12_18  and  N4_19 
REMARK    9  A    between atoms: N4_19  and  C13_22 
REMARK   10  A    between atoms: C13_22  and  C14_23 
REMARK   11  A    between atoms: C14_23  and  C15_24 
REMARK   12  A    between atoms: C15_24  and  N5_25 
REMARK   13  A    between atoms: N6_34  and  C22_36 
REMARK   14  A    between atoms: C22_36  and  C23_37 
REMARK   15  A    between atoms: C23_37  and  C24_38 
REMARK   16  A    between atoms: C24_38  and  C25_39 
ROOT
HETATM    1  C6  UNL     1      20.243   9.461  22.913  1.00  0.00     0.308 A 
HETATM    2  N3  UNL     1      19.178   8.943  23.595  1.00  0.00    -0.309 N 
ATOM      3  H3  UNL     1      18.941   9.311  24.517  1.00  0.00     0.170 HD
HETATM    4  C7  UNL     1      18.450   7.964  23.067  1.00  0.00     0.053 A 
HETATM    5  C8  UNL     1      17.395   7.469  23.789  1.00  0.00     0.030 A 
HETATM    6  C9  UNL     1      16.640   6.456  23.259  1.00  0.00     0.003 A 
HETATM    7  C10 UNL     1      16.943   5.949  22.022  1.00  0.00     0.010 A 
HETATM    8  C11 UNL     1      18.019   6.432  21.249  1.00  0.00    -0.014 A 
HETATM    9  C20 UNL     1      18.747   7.444  21.817  1.00  0.00     0.074 A 
HETATM   10  C21 UNL     1      19.823   8.004  21.188  1.00  0.00     0.304 A 
HETATM   11  O2  UNL     1      20.145   7.572  20.051  1.00  0.00    -0.259 OA
HETATM   12  O3  UNL     1      20.534   8.957  21.701  1.00  0.00    -0.230 OA
ENDROOT
BRANCH   1  13
HETATM   13  N2  UNL     1      20.909  10.355  23.391  1.00  0.00    -0.382 NA
BRANCH  13  14
HETATM   14  C5  UNL     1      21.798  11.264  23.783  1.00  0.00     0.159 C 
BRANCH  14  15
HETATM   15  C4  UNL     1      23.148  11.141  23.077  1.00  0.00     0.061 C 
BRANCH  15  16
HETATM   16  C3  UNL     1      23.305  12.083  21.929  1.00  0.00     0.026 C 
BRANCH  16  17
HETATM   17  C2  UNL     1      23.184  11.402  20.598  1.00  0.00     0.125 C 
BRANCH  17  18
HETATM   18  N1  UNL     1      22.900  10.008  20.728  1.00  0.00    -0.343 N 
HETATM   19  C1  UNL     1      23.739   8.984  20.255  1.00  0.00     0.316 C 
HETATM   20  O1  UNL     1      24.823   9.205  19.651  1.00  0.00    -0.247 OA
HETATM   21  N6  UNL     1      23.373   7.629  20.455  1.00  0.00    -0.343 N 
ATOM     22  H6  UNL     1      22.502   7.438  20.952  1.00  0.00     0.164 HD
ATOM     23  H1  UNL     1      22.033   9.739  21.194  1.00  0.00     0.164 HD
BRANCH  21  24
HETATM   24  C22 UNL     1      24.147   6.510  20.004  1.00  0.00     0.125 C 
BRANCH  24  25
HETATM   25  C23 UNL     1      23.836   6.113  18.593  1.00  0.00     0.026 C 
BRANCH  25  26
HETATM   26  C24 UNL     1      22.590   5.262  18.556  1.00  0.00     0.060 C 
BRANCH  26  27
HETATM   27  C25 UNL     1      21.630   5.737  17.562  1.00  0.00     0.025 A 
HETATM   28  C26 UNL     1      20.731   5.066  16.774  1.00  0.00     0.113 A 
HETATM   29  N7  UNL     1      20.055   5.947  16.007  1.00  0.00    -0.360 N 
HETATM   30  C27 UNL     1      20.516   7.181  16.298  1.00  0.00     0.180 A 
ATOM     31  H7  UNL     1      19.326   5.721  15.331  1.00  0.00     0.166 HD
HETATM   32  N8  UNL     1      21.458   7.047  17.230  1.00  0.00    -0.355 N 
ATOM     33  H8  UNL     1      21.982   7.821  17.641  1.00  0.00     0.166 HD
ENDBRANCH  26  27
ENDBRANCH  25  26
ENDBRANCH  24  25
ENDBRANCH  21  24
ENDBRANCH  17  18
ENDBRANCH  16  17
ENDBRANCH  15  16
ENDBRANCH  14  15
ENDBRANCH  13  14
ENDBRANCH   1  13
BRANCH   8  34
HETATM   34  C12 UNL     1      18.287   5.883  19.925  1.00  0.00     0.271 C 
BRANCH  34  35
HETATM   35  N4  UNL     1      19.014   4.609  19.996  1.00  0.00    -0.071 N 
ATOM     36  H42 UNL     1      20.012   4.740  19.835  1.00  0.00     0.277 HD
ATOM     37  H41 UNL     1      19.053   4.255  20.951  1.00  0.00     0.277 HD
BRANCH  35  38
HETATM   38  C13 UNL     1      18.459   3.633  19.094  1.00  0.00     0.234 C 
BRANCH  38  39
HETATM   39  C14 UNL     1      17.203   3.092  19.738  1.00  0.00     0.057 C 
BRANCH  39  40
HETATM   40  C15 UNL     1      16.040   3.010  18.809  1.00  0.00     0.274 C 
BRANCH  40  41
HETATM   41  N5  UNL     1      15.573   4.299  18.408  1.00  0.00     0.088 N 
HETATM   42  C16 UNL     1      14.886   4.244  17.126  1.00  0.00     0.272 C 
HETATM   43  C17 UNL     1      13.455   3.899  17.505  1.00  0.00     0.032 C 
HETATM   44  C18 UNL     1      13.311   4.253  18.971  1.00  0.00     0.032 C 
HETATM   45  C19 UNL     1      14.633   4.904  19.325  1.00  0.00     0.272 C 
ENDBRANCH  40  41
ENDBRANCH  39  40
ENDBRANCH  38  39
ENDBRANCH  35  38
ENDBRANCH  34  35
ENDBRANCH   8  34
TORSDOF 16
ENDMDL
MODEL 4
REMARK VINA RESULT: -7.697818732      4.695     10.625
REMARK  16 active torsions:
REMARK  status: ('A' for Active; 'I' for Inactive)
REMARK       I    between atoms: C1_2  and  N1_3 
REMARK       I    between atoms: C1_2  and  N6_34 
REMARK    1  A    between atoms: N1_3  and  C2_5 
REMARK    2  A    between atoms: C2_5  and  C3_6 
REMARK    3  A    between atoms: C3_6  and  C4_7 
REMARK    4  A    between atoms: C4_7  and  C5_8 
REMARK    5  A    between atoms: C5_8  and  N2_9 
REMARK    6  A    between atoms: N2_9  and  C6_10 
REMARK    7  A    between atoms: C11_17  and  C12_18 
REMARK    8  A    between atoms: C12_18  and  N4_19 
REMARK    9  A    between atoms: N4_19  and  C13_22 
REMARK   10  A    between atoms: C13_22  and  C14_23 
REMARK   11  A    between atoms: C14_23  and  C15_24 
REMARK   12  A    between atoms: C15_24  and  N5_25 
REMARK   13  A    between atoms: N6_34  and  C22_36 
REMARK   14  A    between atoms: C22_36  and  C23_37 
REMARK   15  A    between atoms: C23_37  and  C24_38 
REMARK   16  A    between atoms: C24_38  and  C25_39 
ROOT
HETATM    1  C6  UNL     1      20.276   8.405  21.600  1.00  0.00     0.308 A 
HETATM    2  N3  UNL     1      19.516   8.227  22.722  1.00  0.00    -0.309 N 
ATOM      3  H3  UNL     1      19.926   8.386  23.642  1.00  0.00     0.170 HD
HETATM    4  C7  UNL     1      18.245   7.847  22.623  1.00  0.00     0.053 A 
HETATM    5  C8  UNL     1      17.521   7.674  23.773  1.00  0.00     0.030 A 
HETATM    6  C9  UNL     1      16.212   7.277  23.685  1.00  0.00     0.003 A 
HETATM    7  C10 UNL     1      15.642   7.058  22.458  1.00  0.00     0.010 A 
HETATM    8  C11 UNL     1      16.354   7.226  21.253  1.00  0.00    -0.014 A 
HETATM    9  C20 UNL     1      17.659   7.623  21.387  1.00  0.00     0.074 A 
HETATM   10  C21 UNL     1      18.472   7.817  20.306  1.00  0.00     0.304 A 
HETATM   11  O2  UNL     1      17.998   7.626  19.156  1.00  0.00    -0.259 OA
HETATM   12  O3  UNL     1      19.709   8.186  20.401  1.00  0.00    -0.230 OA
ENDROOT
BRANCH   1  13
HETATM   13  N2  UNL     1      21.435   8.751  21.687  1.00  0.00    -0.382 NA
BRANCH  13  14
HETATM   14  C5  UNL     1      22.669   9.139  21.997  1.00  0.00     0.159 C 
BRANCH  14  15
HETATM   15  C4  UNL     1      23.550   9.404  20.777  1.00  0.00     0.061 C 
BRANCH  15  16
HETATM   16  C3  UNL     1      23.580   8.267  19.809  1.00  0.00     0.026 C 
BRANCH  16  17
HETATM   17  C2  UNL     1      24.719   7.323  20.058  1.00  0.00     0.125 C 
BRANCH  17  18
HETATM   18  N1  UNL     1      24.268   6.018  20.423  1.00  0.00    -0.343 N 
HETATM   19  C1  UNL     1      23.933   5.012  19.500  1.00  0.00     0.316 C 
HETATM   20  O1  UNL     1      23.985   5.176  18.252  1.00  0.00    -0.247 OA
HETATM   21  N6  UNL     1      23.515   3.740  19.970  1.00  0.00    -0.343 N 
ATOM     22  H6  UNL     1      23.480   3.592  20.979  1.00  0.00     0.164 HD
ATOM     23  H1  UNL     1      24.184   5.803  21.417  1.00  0.00     0.164 HD
BRANCH  21  24
HETATM   24  C22 UNL     1      23.140   2.650  19.118  1.00  0.00     0.125 C 
BRANCH  24  25
HETATM   25  C23 UNL     1      21.663   2.575  18.879  1.00  0.00     0.026 C 
BRANCH  25  26
HETATM   26  C24 UNL     1      21.358   2.840  17.424  1.00  0.00     0.060 C 
BRANCH  26  27
HETATM   27  C25 UNL     1      20.745   4.151  17.221  1.00  0.00     0.025 A 
HETATM   28  C26 UNL     1      19.484   4.615  17.488  1.00  0.00     0.113 A 
HETATM   29  N7  UNL     1      19.392   5.911  17.124  1.00  0.00    -0.360 N 
HETATM   30  C27 UNL     1      20.589   6.281  16.622  1.00  0.00     0.180 A 
ATOM     31  H7  UNL     1      18.567   6.504  17.212  1.00  0.00     0.166 HD
HETATM   32  N8  UNL     1      21.394   5.222  16.684  1.00  0.00    -0.355 N 
ATOM     33  H8  UNL     1      22.365   5.213  16.372  1.00  0.00     0.166 HD
ENDBRANCH  26  27
ENDBRANCH  25  26
ENDBRANCH  24  25
ENDBRANCH  21  24
ENDBRANCH  17  18
ENDBRANCH  16  17
ENDBRANCH  15  16
ENDBRANCH  14  15
ENDBRANCH  13  14
ENDBRANCH   1  13
BRANCH   8  34
HETATM   34  C12 UNL     1      15.699   7.010  19.967  1.00  0.00     0.271 C 
BRANCH  34  35
HETATM   35  N4  UNL     1      15.816   5.617  19.519  1.00  0.00    -0.071 N 
ATOM     36  H42 UNL     1      16.299   5.553  18.623  1.00  0.00     0.277 HD
ATOM     37  H41 UNL     1      16.478   5.095  20.093  1.00  0.00     0.277 HD
BRANCH  35  38
HETATM   38  C13 UNL     1      14.532   4.967  19.472  1.00  0.00     0.234 C 
BRANCH  38  39
HETATM   39  C14 UNL     1      14.093   4.946  18.026  1.00  0.00     0.057 C 
BRANCH  39  40
HETATM   40  C15 UNL     1      13.157   3.835  17.698  1.00  0.00     0.274 C 
BRANCH  40  41
HETATM   41  N5  UNL     1      13.725   2.550  17.957  1.00  0.00     0.088 N 
HETATM   42  C16 UNL     1      12.746   1.635  18.525  1.00  0.00     0.272 C 
HETATM   43  C17 UNL     1      12.071   1.035  17.302  1.00  0.00     0.032 C 
HETATM   44  C18 UNL     1      13.016   1.270  16.142  1.00  0.00     0.032 C 
HETATM   45  C19 UNL     1      14.245   1.882  16.785  1.00  0.00     0.272 C 
ENDBRANCH  40  41
ENDBRANCH  39  40
ENDBRANCH  38  39
ENDBRANCH  35  38
ENDBRANCH  34  35
ENDBRANCH   8  34
TORSDOF 16
ENDMDL
MODEL 5
REMARK VINA RESULT: -7.615598108      3.262     10.298
REMARK  16 active torsions:
REMARK  status: ('A' for Active; 'I' for Inactive)
REMARK       I    between atoms: C1_2  and  N1_3 
REMARK       I    between atoms: C1_2  and  N6_34 
REMARK    1  A    between atoms: N1_3  and  C2_5 
REMARK    2  A    between atoms: C2_5  and  C3_6 
REMARK    3  A    between atoms: C3_6  and  C4_7 
REMARK    4  A    between atoms: C4_7  and  C5_8 
REMARK    5  A    between atoms: C5_8  and  N2_9 
REMARK    6  A    between atoms: N2_9  and  C6_10 
REMARK    7  A    between atoms: C11_17  and  C12_18 
REMARK    8  A    between atoms: C12_18  and  N4_19 
REMARK    9  A    between atoms: N4_19  and  C13_22 
REMARK   10  A    between atoms: C13_22  and  C14_23 
REMARK   11  A    between atoms: C14_23  and  C15_24 
REMARK   12  A    between atoms: C15_24  and  N5_25 
REMARK   13  A    between atoms: N6_34  and  C22_36 
REMARK   14  A    between atoms: C22_36  and  C23_37 
REMARK   15  A    between atoms: C23_37  and  C24_38 
REMARK   16  A    between atoms: C24_38  and  C25_39 
ROOT
HETATM    1  C6  UNL     1      20.595   7.069  19.092  1.00  0.00     0.308 A 
HETATM    2  N3  UNL     1      20.885   7.571  20.329  1.00  0.00    -0.309 N 
ATOM      3  H3  UNL     1      21.857   7.720  20.599  1.00  0.00     0.170 HD
HETATM    4  C7  UNL     1      19.909   7.865  21.184  1.00  0.00     0.053 A 
HETATM    5  C8  UNL     1      20.245   8.360  22.417  1.00  0.00     0.030 A 
HETATM    6  C9  UNL     1      19.250   8.661  23.309  1.00  0.00     0.003 A 
HETATM    7  C10 UNL     1      17.938   8.467  22.965  1.00  0.00     0.010 A 
HETATM    8  C11 UNL     1      17.552   7.962  21.707  1.00  0.00    -0.014 A 
HETATM    9  C20 UNL     1      18.579   7.673  20.846  1.00  0.00     0.074 A 
HETATM   10  C21 UNL     1      18.356   7.167  19.596  1.00  0.00     0.304 A 
HETATM   11  O2  UNL     1      17.169   6.968  19.232  1.00  0.00    -0.259 OA
HETATM   12  O3  UNL     1      19.305   6.880  18.763  1.00  0.00    -0.230 OA
ENDROOT
BRANCH   1  13
HETATM   13  N2  UNL     1      21.482   6.800  18.309  1.00  0.00    -0.382 NA
BRANCH  13  14
HETATM   14  C5  UNL     1      22.306   6.379  17.353  1.00  0.00     0.159 C 
BRANCH  14  15
HETATM   15  C4  UNL     1      23.778   6.656  17.651  1.00  0.00     0.061 C 
BRANCH  15  16
HETATM   16  C3  UNL     1      24.200   6.219  19.016  1.00  0.00     0.026 C 
BRANCH  16  17
HETATM   17  C2  UNL     1      25.140   7.188  19.671  1.00  0.00     0.125 C 
BRANCH  17  18
HETATM   18  N1  UNL     1      24.768   8.546  19.433  1.00  0.00    -0.343 N 
HETATM   19  C1  UNL     1      23.937   9.297  20.282  1.00  0.00     0.316 C 
HETATM   20  O1  UNL     1      23.425   8.830  21.334  1.00  0.00    -0.247 OA
HETATM   21  N6  UNL     1      23.646  10.648  19.963  1.00  0.00    -0.343 N 
ATOM     22  H6  UNL     1      24.064  11.040  19.119  1.00  0.00     0.164 HD
ATOM     23  H1  UNL     1      25.129   8.999  18.594  1.00  0.00     0.164 HD
BRANCH  21  24
HETATM   24  C22 UNL     1      22.803  11.498  20.752  1.00  0.00     0.125 C 
BRANCH  24  25
HETATM   25  C23 UNL     1      23.573  12.433  21.634  1.00  0.00     0.026 C 
BRANCH  25  26
HETATM   26  C24 UNL     1      23.691  11.856  23.024  1.00  0.00     0.060 C 
BRANCH  26  27
HETATM   27  C25 UNL     1      22.709  12.430  23.941  1.00  0.00     0.025 A 
HETATM   28  C26 UNL     1      22.032  11.888  25.004  1.00  0.00     0.113 A 
HETATM   29  N7  UNL     1      21.225  12.821  25.550  1.00  0.00    -0.360 N 
HETATM   30  C27 UNL     1      21.378  13.960  24.842  1.00  0.00     0.180 A 
ATOM     31  H7  UNL     1      20.610  12.690  26.353  1.00  0.00     0.166 HD
HETATM   32  N8  UNL     1      22.269  13.718  23.881  1.00  0.00    -0.355 N 
ATOM     33  H8  UNL     1      22.580  14.404  23.193  1.00  0.00     0.166 HD
ENDBRANCH  26  27
ENDBRANCH  25  26
ENDBRANCH  24  25
ENDBRANCH  21  24
ENDBRANCH  17  18
ENDBRANCH  16  17
ENDBRANCH  15  16
ENDBRANCH  14  15
ENDBRANCH  13  14
ENDBRANCH   1  13
BRANCH   8  34
HETATM   34  C12 UNL     1      16.142   7.799  21.372  1.00  0.00     0.271 C 
BRANCH  34  35
HETATM   35  N4  UNL     1      15.445   6.936  22.335  1.00  0.00    -0.071 N 
ATOM     36  H42 UNL     1      15.791   7.081  23.284  1.00  0.00     0.277 HD
ATOM     37  H41 UNL     1      14.480   7.234  22.472  1.00  0.00     0.277 HD
BRANCH  35  38
HETATM   38  C13 UNL     1      15.520   5.550  21.954  1.00  0.00     0.234 C 
BRANCH  38  39
HETATM   39  C14 UNL     1      14.292   5.246  21.128  1.00  0.00     0.057 C 
BRANCH  39  40
HETATM   40  C15 UNL     1      14.385   3.972  20.360  1.00  0.00     0.274 C 
BRANCH  40  41
HETATM   41  N5  UNL     1      14.980   4.154  19.075  1.00  0.00     0.088 N 
HETATM   42  C16 UNL     1      14.947   2.928  18.291  1.00  0.00     0.272 C 
HETATM   43  C17 UNL     1      13.587   2.977  17.613  1.00  0.00     0.032 C 
HETATM   44  C18 UNL     1      13.144   4.425  17.663  1.00  0.00     0.032 C 
HETATM   45  C19 UNL     1      14.334   5.155  18.255  1.00  0.00     0.272 C 
ENDBRANCH  40  41
ENDBRANCH  39  40
ENDBRANCH  38  39
ENDBRANCH  35  38
ENDBRANCH  34  35
ENDBRANCH   8  34
TORSDOF 16
ENDMDL
