MODEL 1
REMARK VINA RESULT: -7.857037515      0.000      0.000
REMARK  19 active torsions:
REMARK  status: ('A' for Active; 'I' for Inactive)
REMARK    1  A    between atoms: N1_2  and  C2_3 
REMARK    2  A    between atoms: N1_2  and  C9_10 
REMARK    3  A    between atoms: C2_3  and  C3_4 
REMARK    4  A    between atoms: C12_13  and  C13_14 
REMARK       I    between atoms: C13_14  and  N2_16 
REMARK    5  A    between atoms: N2_16  and  C14_17 
REMARK    6  A    between atoms: C14_17  and  C15_18 
REMARK    7  A    between atoms: C15_18  and  C16_19 
REMARK    8  A    between atoms: C16_19  and  C17_20 
REMARK    9  A    between atoms: C17_20  and  C18_21 
REMARK   10  A    between atoms: C18_21  and  C19_22 
REMARK   11  A    between atoms: C19_22  and  C20_23 
REMARK   12  A    between atoms: C20_23  and  C21_24 
REMARK   13  A    between atoms: C21_24  and  O2_25 
REMARK   14  A    between atoms: O2_25  and  C22_26 
REMARK   15  A    between atoms: C24_28  and  C25_29 
REMARK   16  A    between atoms: C25_29  and  N3_30 
REMARK   17  A    between atoms: C26_34  and  O3_35 
REMARK   18  A    between atoms: C27_37  and  O4_38 
REMARK   19  A    between atoms: C28_40  and  N4_41 
ROOT
HETATM    1  C18 UNL     1      17.048   7.404  22.824  1.00  0.00     0.000 C 
ENDROOT
BRANCH   1   2
HETATM    2  C17 UNL     1      15.600   7.358  22.603  1.00  0.00     0.000 C 
BRANCH   2   3
HETATM    3  C16 UNL     1      14.981   7.925  21.402  1.00  0.00     0.002 C 
BRANCH   3   4
HETATM    4  C15 UNL     1      15.429   7.452  20.063  1.00  0.00     0.033 C 
BRANCH   4   5
HETATM    5  C14 UNL     1      15.023   5.911  20.047  1.00  0.00     0.222 C 
BRANCH   5   6
HETATM    6  N2  UNL     1      15.980   5.128  20.111  1.00  0.00    -0.411 NA
HETATM    7  C13 UNL     1      17.115   4.200  20.186  1.00  0.00     0.321 C 
HETATM    8  O1  UNL     1      17.181   3.117  20.701  1.00  0.00    -0.251 OA
BRANCH   7   9
HETATM    9  C12 UNL     1      18.285   4.805  19.480  1.00  0.00     0.046 A 
HETATM   10  C11 UNL     1      18.875   5.941  19.901  1.00  0.00     0.020 A 
HETATM   11  C10 UNL     1      19.957   6.519  19.210  1.00  0.00     0.030 A 
HETATM   12  C9  UNL     1      20.410   5.873  18.063  1.00  0.00     0.030 A 
HETATM   13  C30 UNL     1      19.818   4.719  17.632  1.00  0.00     0.030 A 
HETATM   14  C29 UNL     1      18.743   4.176  18.343  1.00  0.00     0.020 A 
BRANCH  12  15
HETATM   15  N1  UNL     1      21.520   6.429  17.371  1.00  0.00    -0.381 N 
HETATM   16  C1  UNL     1      21.367   7.045  16.068  1.00  0.00     0.150 C 
BRANCH  15  17
HETATM   17  C2  UNL     1      22.860   6.435  17.935  1.00  0.00     0.161 C 
BRANCH  17  18
HETATM   18  C3  UNL     1      23.275   5.042  18.141  1.00  0.00    -0.040 A 
HETATM   19  C4  UNL     1      23.501   4.547  19.391  1.00  0.00     0.009 A 
HETATM   20  C5  UNL     1      23.899   3.274  19.674  1.00  0.00     0.001 A 
HETATM   21  C6  UNL     1      24.099   2.389  18.612  1.00  0.00     0.000 A 
HETATM   22  C7  UNL     1      23.889   2.831  17.336  1.00  0.00     0.001 A 
HETATM   23  C8  UNL     1      23.480   4.143  17.086  1.00  0.00     0.009 A 
ENDBRANCH  17  18
ENDBRANCH  15  17
ENDBRANCH  12  15
ENDBRANCH   7   9
ENDBRANCH   5   6
ENDBRANCH   4   5
ENDBRANCH   3   4
ENDBRANCH   2   3
ENDBRANCH   1   2
BRANCH   1  24
HETATM   24  C19 UNL     1      17.823   8.551  22.261  1.00  0.00     0.002 C 
BRANCH  24  25
HETATM   25  C20 UNL     1      18.680   9.113  23.374  1.00  0.00     0.026 C 
BRANCH  25  26
HETATM   26  C21 UNL     1      20.097   8.637  23.379  1.00  0.00     0.168 C 
BRANCH  26  27
HETATM   27  O2  UNL     1      20.614   8.498  22.127  1.00  0.00    -0.384 OA
BRANCH  27  28
HETATM   28  C22 UNL     1      21.526   9.417  21.712  1.00  0.00     0.154 C 
HETATM   29  C23 UNL     1      22.290   9.889  22.953  1.00  0.00     0.043 C 
HETATM   30  C24 UNL     1      23.120  11.089  22.675  1.00  0.00     0.045 C 
HETATM   31  C26 UNL     1      23.485  11.201  21.211  1.00  0.00     0.154 C 
HETATM   32  C27 UNL     1      23.704   9.855  20.574  1.00  0.00     0.180 C 
HETATM   33  C28 UNL     1      22.537   8.905  20.744  1.00  0.00     0.243 C 
BRANCH  30  34
HETATM   34  C25 UNL     1      22.521  12.370  23.198  1.00  0.00     0.236 C 
BRANCH  34  35
HETATM   35  N3  UNL     1      21.079  12.332  23.308  1.00  0.00    -0.079 N 
ATOM     36  H33 UNL     1      20.731  11.385  23.159  1.00  0.00     0.274 HD
ATOM     37  H32 UNL     1      20.787  12.470  24.276  1.00  0.00     0.274 HD
ATOM     38  H31 UNL     1      20.605  12.991  22.692  1.00  0.00     0.274 HD
ENDBRANCH  34  35
ENDBRANCH  30  34
BRANCH  31  39
HETATM   39  O3  UNL     1      22.574  11.999  20.534  1.00  0.00    -0.393 OA
ATOM     40  H3  UNL     1      22.691  11.925  19.594  1.00  0.00     0.210 HD
ENDBRANCH  31  39
BRANCH  32  41
HETATM   41  O4  UNL     1      23.924  10.070  19.217  1.00  0.00    -0.391 OA
ATOM     42  H4  UNL     1      24.137   9.230  18.829  1.00  0.00     0.210 HD
ENDBRANCH  32  41
BRANCH  33  43
HETATM   43  N4  UNL     1      23.005   7.629  21.183  1.00  0.00    -0.070 N 
ATOM     44  H43 UNL     1      23.561   7.155  20.471  1.00  0.00     0.274 HD
ATOM     45  H42 UNL     1      23.725   7.706  21.901  1.00  0.00     0.274 HD
ATOM     46  H41 UNL     1      22.211   7.068  21.490  1.00  0.00     0.274 HD
ENDBRANCH  33  43
ENDBRANCH  27  28
ENDBRANCH  26  27
ENDBRANCH  25  26
ENDBRANCH  24  25
ENDBRANCH   1  24
TORSDOF 19
ENDMDL
MODEL 2
REMARK VINA RESULT: -7.591671897      2.375      4.359
REMARK  19 active torsions:
REMARK  status: ('A' for Active; 'I' for Inactive)
REMARK    1  A    between atoms: N1_2  and  C2_3 
REMARK    2  A    between atoms: N1_2  and  C9_10 
REMARK    3  A    between atoms: C2_3  and  C3_4 
REMARK    4  A    between atoms: C12_13  and  C13_14 
REMARK       I    between atoms: C13_14  and  N2_16 
REMARK    5  A    between atoms: N2_16  and  C14_17 
REMARK    6  A    between atoms: C14_17  and  C15_18 
REMARK    7  A    between atoms: C15_18  and  C16_19 
REMARK    8  A    between atoms: C16_19  and  C17_20 
REMARK    9  A    between atoms: C17_20  and  C18_21 
REMARK   10  A    between atoms: C18_21  and  C19_22 
REMARK   11  A    between atoms: C19_22  and  C20_23 
REMARK   12  A    between atoms: C20_23  and  C21_24 
REMARK   13  A    between atoms: C21_24  and  O2_25 
REMARK   14  A    between atoms: O2_25  and  C22_26 
REMARK   15  A    between atoms: C24_28  and  C25_29 
REMARK   16  A    between atoms: C25_29  and  N3_30 
REMARK   17  A    between atoms: C26_34  and  O3_35 
REMARK   18  A    between atoms: C27_37  and  O4_38 
REMARK   19  A    between atoms: C28_40  and  N4_41 
ROOT
HETATM    1  C18 UNL     1      22.126   8.442  21.914  1.00  0.00     0.000 C 
ENDROOT
BRANCH   1   2
HETATM    2  C17 UNL     1      21.135   8.785  22.938  1.00  0.00     0.000 C 
BRANCH   2   3
HETATM    3  C16 UNL     1      19.778   8.231  22.920  1.00  0.00     0.002 C 
BRANCH   3   4
HETATM    4  C15 UNL     1      18.634   9.104  23.302  1.00  0.00     0.033 C 
BRANCH   4   5
HETATM    5  C14 UNL     1      17.356   8.183  23.067  1.00  0.00     0.222 C 
BRANCH   5   6
HETATM    6  N2  UNL     1      17.087   7.973  21.876  1.00  0.00    -0.411 NA
HETATM    7  C13 UNL     1      16.770   7.723  20.465  1.00  0.00     0.321 C 
HETATM    8  O1  UNL     1      15.802   8.048  19.832  1.00  0.00    -0.251 OA
BRANCH   7   9
HETATM    9  C12 UNL     1      17.891   6.956  19.842  1.00  0.00     0.046 A 
HETATM   10  C11 UNL     1      17.809   5.636  19.586  1.00  0.00     0.020 A 
HETATM   11  C10 UNL     1      18.882   4.916  19.028  1.00  0.00     0.030 A 
HETATM   12  C9  UNL     1      20.050   5.617  18.741  1.00  0.00     0.030 A 
HETATM   13  C30 UNL     1      20.140   6.957  18.997  1.00  0.00     0.030 A 
HETATM   14  C29 UNL     1      19.053   7.638  19.555  1.00  0.00     0.020 A 
BRANCH  12  15
HETATM   15  N1  UNL     1      21.132   4.910  18.152  1.00  0.00    -0.381 N 
HETATM   16  C1  UNL     1      21.329   3.493  18.390  1.00  0.00     0.150 C 
BRANCH  15  17
HETATM   17  C2  UNL     1      22.086   5.553  17.264  1.00  0.00     0.161 C 
BRANCH  17  18
HETATM   18  C3  UNL     1      23.134   6.169  18.087  1.00  0.00    -0.040 A 
HETATM   19  C4  UNL     1      23.742   7.330  17.710  1.00  0.00     0.009 A 
HETATM   20  C5  UNL     1      24.729   7.964  18.404  1.00  0.00     0.001 A 
HETATM   21  C6  UNL     1      25.168   7.396  19.602  1.00  0.00     0.000 A 
HETATM   22  C7  UNL     1      24.596   6.232  20.030  1.00  0.00     0.001 A 
HETATM   23  C8  UNL     1      23.585   5.612  19.291  1.00  0.00     0.009 A 
ENDBRANCH  17  18
ENDBRANCH  15  17
ENDBRANCH  12  15
ENDBRANCH   7   9
ENDBRANCH   5   6
ENDBRANCH   4   5
ENDBRANCH   3   4
ENDBRANCH   2   3
ENDBRANCH   1   2
BRANCH   1  24
HETATM   24  C19 UNL     1      22.389   9.421  20.815  1.00  0.00     0.002 C 
BRANCH  24  25
HETATM   25  C20 UNL     1      23.616  10.219  21.199  1.00  0.00     0.026 C 
BRANCH  25  26
HETATM   26  C21 UNL     1      23.388  11.688  21.358  1.00  0.00     0.168 C 
BRANCH  26  27
HETATM   27  O2  UNL     1      22.298  11.974  22.124  1.00  0.00    -0.384 OA
BRANCH  27  28
HETATM   28  C22 UNL     1      22.489  12.147  23.458  1.00  0.00     0.154 C 
HETATM   29  C23 UNL     1      23.132  13.525  23.649  1.00  0.00     0.043 C 
HETATM   30  C24 UNL     1      23.643  13.717  25.030  1.00  0.00     0.045 C 
HETATM   31  C26 UNL     1      22.926  12.834  26.030  1.00  0.00     0.154 C 
HETATM   32  C27 UNL     1      21.473  12.647  25.683  1.00  0.00     0.180 C 
HETATM   33  C28 UNL     1      21.245  12.128  24.279  1.00  0.00     0.243 C 
BRANCH  30  34
HETATM   34  C25 UNL     1      25.141  13.580  25.144  1.00  0.00     0.236 C 
BRANCH  34  35
HETATM   35  N3  UNL     1      25.742  12.866  24.037  1.00  0.00    -0.079 N 
ATOM     36  H33 UNL     1      25.942  11.900  24.298  1.00  0.00     0.274 HD
ATOM     37  H32 UNL     1      25.058  12.705  23.298  1.00  0.00     0.274 HD
ATOM     38  H31 UNL     1      26.576  13.319  23.665  1.00  0.00     0.274 HD
ENDBRANCH  34  35
ENDBRANCH  30  34
BRANCH  31  39
HETATM   39  O3  UNL     1      23.614  11.645  26.222  1.00  0.00    -0.393 OA
ATOM     40  H3  UNL     1      23.112  10.907  25.897  1.00  0.00     0.210 HD
ENDBRANCH  31  39
BRANCH  32  41
HETATM   41  O4  UNL     1      20.944  11.741  26.597  1.00  0.00    -0.391 OA
ATOM     42  H4  UNL     1      21.461  10.947  26.538  1.00  0.00     0.210 HD
ENDBRANCH  32  41
BRANCH  33  43
HETATM   43  N4  UNL     1      20.240  12.905  23.627  1.00  0.00    -0.070 N 
ATOM     44  H43 UNL     1      19.612  13.360  24.290  1.00  0.00     0.274 HD
ATOM     45  H42 UNL     1      20.621  13.744  23.191  1.00  0.00     0.274 HD
ATOM     46  H41 UNL     1      19.739  12.317  22.962  1.00  0.00     0.274 HD
ENDBRANCH  33  43
ENDBRANCH  27  28
ENDBRANCH  26  27
ENDBRANCH  25  26
ENDBRANCH  24  25
ENDBRANCH   1  24
TORSDOF 19
ENDMDL
MODEL 3
REMARK VINA RESULT: -7.514765024      2.165      6.282
REMARK  19 active torsions:
REMARK  status: ('A' for Active; 'I' for Inactive)
REMARK    1  A    between atoms: N1_2  and  C2_3 
REMARK    2  A    between atoms: N1_2  and  C9_10 
REMARK    3  A    between atoms: C2_3  and  C3_4 
REMARK    4  A    between atoms: C12_13  and  C13_14 
REMARK       I    between atoms: C13_14  and  N2_16 
REMARK    5  A    between atoms: N2_16  and  C14_17 
REMARK    6  A    between atoms: C14_17  and  C15_18 
REMARK    7  A    between atoms: C15_18  and  C16_19 
REMARK    8  A    between atoms: C16_19  and  C17_20 
REMARK    9  A    between atoms: C17_20  and  C18_21 
REMARK   10  A    between atoms: C18_21  and  C19_22 
REMARK   11  A    between atoms: C19_22  and  C20_23 
REMARK   12  A    between atoms: C20_23  and  C21_24 
REMARK   13  A    between atoms: C21_24  and  O2_25 
REMARK   14  A    between atoms: O2_25  and  C22_26 
REMARK   15  A    between atoms: C24_28  and  C25_29 
REMARK   16  A    between atoms: C25_29  and  N3_30 
REMARK   17  A    between atoms: C26_34  and  O3_35 
REMARK   18  A    between atoms: C27_37  and  O4_38 
REMARK   19  A    between atoms: C28_40  and  N4_41 
ROOT
HETATM    1  C18 UNL     1      24.133   6.661  20.107  1.00  0.00     0.000 C 
ENDROOT
BRANCH   1   2
HETATM    2  C17 UNL     1      23.290   6.014  19.097  1.00  0.00     0.000 C 
BRANCH   2   3
HETATM    3  C16 UNL     1      23.631   4.707  18.526  1.00  0.00     0.002 C 
BRANCH   3   4
HETATM    4  C15 UNL     1      23.907   3.565  19.441  1.00  0.00     0.033 C 
BRANCH   4   5
HETATM    5  C14 UNL     1      23.983   2.307  18.467  1.00  0.00     0.222 C 
BRANCH   5   6
HETATM    6  N2  UNL     1      22.922   2.045  17.883  1.00  0.00    -0.411 NA
HETATM    7  C13 UNL     1      21.666   1.736  17.191  1.00  0.00     0.321 C 
HETATM    8  O1  UNL     1      21.442   0.910  16.349  1.00  0.00    -0.251 OA
BRANCH   7   9
HETATM    9  C12 UNL     1      20.593   2.642  17.704  1.00  0.00     0.046 A 
HETATM   10  C11 UNL     1      19.859   2.348  18.794  1.00  0.00     0.020 A 
HETATM   11  C10 UNL     1      18.829   3.192  19.251  1.00  0.00     0.030 A 
HETATM   12  C9  UNL     1      18.588   4.362  18.534  1.00  0.00     0.030 A 
HETATM   13  C30 UNL     1      19.331   4.668  17.427  1.00  0.00     0.030 A 
HETATM   14  C29 UNL     1      20.344   3.802  17.003  1.00  0.00     0.020 A 
BRANCH  12  15
HETATM   15  N1  UNL     1      17.571   5.238  18.999  1.00  0.00    -0.381 N 
HETATM   16  C1  UNL     1      16.170   4.868  18.944  1.00  0.00     0.150 C 
BRANCH  15  17
HETATM   17  C2  UNL     1      17.873   6.539  19.573  1.00  0.00     0.161 C 
BRANCH  17  18
HETATM   18  C3  UNL     1      16.849   6.843  20.580  1.00  0.00    -0.040 A 
HETATM   19  C4  UNL     1      16.840   6.222  21.793  1.00  0.00     0.009 A 
HETATM   20  C5  UNL     1      15.924   6.433  22.780  1.00  0.00     0.001 A 
HETATM   21  C6  UNL     1      14.901   7.357  22.550  1.00  0.00     0.000 A 
HETATM   22  C7  UNL     1      14.859   8.010  21.352  1.00  0.00     0.001 A 
HETATM   23  C8  UNL     1      15.817   7.767  20.364  1.00  0.00     0.009 A 
ENDBRANCH  17  18
ENDBRANCH  15  17
ENDBRANCH  12  15
ENDBRANCH   7   9
ENDBRANCH   5   6
ENDBRANCH   4   5
ENDBRANCH   3   4
ENDBRANCH   2   3
ENDBRANCH   1   2
BRANCH   1  24
HETATM   24  C19 UNL     1      25.263   7.527  19.650  1.00  0.00     0.002 C 
BRANCH  24  25
HETATM   25  C20 UNL     1      24.689   8.888  19.318  1.00  0.00     0.026 C 
BRANCH  25  26
HETATM   26  C21 UNL     1      23.628   9.368  20.254  1.00  0.00     0.168 C 
BRANCH  26  27
HETATM   27  O2  UNL     1      23.490  10.724  20.247  1.00  0.00    -0.384 OA
BRANCH  27  28
HETATM   28  C22 UNL     1      22.949  11.311  21.347  1.00  0.00     0.154 C 
HETATM   29  C23 UNL     1      22.979  10.274  22.475  1.00  0.00     0.043 C 
HETATM   30  C24 UNL     1      22.168  10.697  23.645  1.00  0.00     0.045 C 
HETATM   31  C26 UNL     1      22.011  12.201  23.714  1.00  0.00     0.154 C 
HETATM   32  C27 UNL     1      23.240  12.924  23.229  1.00  0.00     0.180 C 
HETATM   33  C28 UNL     1      23.678  12.514  21.840  1.00  0.00     0.243 C 
BRANCH  30  34
HETATM   34  C25 UNL     1      20.836   9.996  23.741  1.00  0.00     0.236 C 
BRANCH  34  35
HETATM   35  N3  UNL     1      20.328   9.543  22.464  1.00  0.00    -0.079 N 
ATOM     36  H33 UNL     1      19.478   8.993  22.590  1.00  0.00     0.274 HD
ATOM     37  H32 UNL     1      19.948  10.324  21.929  1.00  0.00     0.274 HD
ATOM     38  H31 UNL     1      21.013   9.028  21.912  1.00  0.00     0.274 HD
ENDBRANCH  34  35
ENDBRANCH  30  34
BRANCH  31  39
HETATM   39  O3  UNL     1      20.841  12.606  23.089  1.00  0.00    -0.393 OA
ATOM     40  H3  UNL     1      20.805  13.552  23.015  1.00  0.00     0.210 HD
ENDBRANCH  31  39
BRANCH  32  41
HETATM   41  O4  UNL     1      22.947  14.284  23.234  1.00  0.00    -0.391 OA
ATOM     42  H4  UNL     1      23.769  14.750  23.124  1.00  0.00     0.210 HD
ENDBRANCH  32  41
BRANCH  33  43
HETATM   43  N4  UNL     1      25.082  12.251  21.827  1.00  0.00    -0.070 N 
ATOM     44  H43 UNL     1      25.444  12.037  22.756  1.00  0.00     0.274 HD
ATOM     45  H42 UNL     1      25.306  11.364  21.376  1.00  0.00     0.274 HD
ATOM     46  H41 UNL     1      25.567  13.038  21.395  1.00  0.00     0.274 HD
ENDBRANCH  33  43
ENDBRANCH  27  28
ENDBRANCH  26  27
ENDBRANCH  25  26
ENDBRANCH  24  25
ENDBRANCH   1  24
TORSDOF 19
ENDMDL
MODEL 4
REMARK VINA RESULT: -7.396119575      3.757      9.815
REMARK  19 active torsions:
REMARK  status: ('A' for Active; 'I' for Inactive)
REMARK    1  A    between atoms: N1_2  and  C2_3 
REMARK    2  A    between atoms: N1_2  and  C9_10 
REMARK    3  A    between atoms: C2_3  and  C3_4 
REMARK    4  A    between atoms: C12_13  and  C13_14 
REMARK       I    between atoms: C13_14  and  N2_16 
REMARK    5  A    between atoms: N2_16  and  C14_17 
REMARK    6  A    between atoms: C14_17  and  C15_18 
REMARK    7  A    between atoms: C15_18  and  C16_19 
REMARK    8  A    between atoms: C16_19  and  C17_20 
REMARK    9  A    between atoms: C17_20  and  C18_21 
REMARK   10  A    between atoms: C18_21  and  C19_22 
REMARK   11  A    between atoms: C19_22  and  C20_23 
REMARK   12  A    between atoms: C20_23  and  C21_24 
REMARK   13  A    between atoms: C21_24  and  O2_25 
REMARK   14  A    between atoms: O2_25  and  C22_26 
REMARK   15  A    between atoms: C24_28  and  C25_29 
REMARK   16  A    between atoms: C25_29  and  N3_30 
REMARK   17  A    between atoms: C26_34  and  O3_35 
REMARK   18  A    between atoms: C27_37  and  O4_38 
REMARK   19  A    between atoms: C28_40  and  N4_41 
ROOT
HETATM    1  C18 UNL     1      24.838   7.113  19.889  1.00  0.00     0.000 C 
ENDROOT
BRANCH   1   2
HETATM    2  C17 UNL     1      23.661   7.440  20.700  1.00  0.00     0.000 C 
BRANCH   2   3
HETATM    3  C16 UNL     1      23.344   8.819  21.083  1.00  0.00     0.002 C 
BRANCH   3   4
HETATM    4  C15 UNL     1      23.898   9.942  20.278  1.00  0.00     0.033 C 
BRANCH   4   5
HETATM    5  C14 UNL     1      22.898  11.148  20.565  1.00  0.00     0.222 C 
BRANCH   5   6
HETATM    6  N2  UNL     1      22.360  11.114  21.680  1.00  0.00    -0.411 NA
HETATM    7  C13 UNL     1      21.725  11.075  23.002  1.00  0.00     0.321 C 
HETATM    8  O1  UNL     1      20.612  10.739  23.303  1.00  0.00    -0.251 OA
BRANCH   7   9
HETATM    9  C12 UNL     1      22.709  11.533  24.029  1.00  0.00     0.046 A 
HETATM   10  C11 UNL     1      24.028  11.274  23.933  1.00  0.00     0.020 A 
HETATM   11  C10 UNL     1      24.943  11.682  24.921  1.00  0.00     0.030 A 
HETATM   12  C9  UNL     1      24.440  12.377  26.019  1.00  0.00     0.030 A 
HETATM   13  C30 UNL     1      23.103  12.645  26.122  1.00  0.00     0.030 A 
HETATM   14  C29 UNL     1      22.225  12.220  25.121  1.00  0.00     0.020 A 
BRANCH  12  15
HETATM   15  N1  UNL     1      25.355  12.820  27.011  1.00  0.00    -0.381 N 
HETATM   16  C1  UNL     1      25.949  11.898  27.959  1.00  0.00     0.150 C 
BRANCH  15  17
HETATM   17  C2  UNL     1      25.764  14.211  27.121  1.00  0.00     0.161 C 
BRANCH  17  18
HETATM   18  C3  UNL     1      27.166  14.310  26.696  1.00  0.00    -0.040 A 
HETATM   19  C4  UNL     1      27.543  14.014  25.420  1.00  0.00     0.009 A 
HETATM   20  C5  UNL     1      28.819  14.066  24.943  1.00  0.00     0.001 A 
HETATM   21  C6  UNL     1      29.839  14.452  25.816  1.00  0.00     0.000 A 
HETATM   22  C7  UNL     1      29.521  14.760  27.108  1.00  0.00     0.001 A 
HETATM   23  C8  UNL     1      28.200  14.695  27.559  1.00  0.00     0.009 A 
ENDBRANCH  17  18
ENDBRANCH  15  17
ENDBRANCH  12  15
ENDBRANCH   7   9
ENDBRANCH   5   6
ENDBRANCH   4   5
ENDBRANCH   3   4
ENDBRANCH   2   3
ENDBRANCH   1   2
BRANCH   1  24
HETATM   24  C19 UNL     1      24.649   6.300  18.648  1.00  0.00     0.002 C 
BRANCH  24  25
HETATM   25  C20 UNL     1      24.094   7.219  17.582  1.00  0.00     0.026 C 
BRANCH  25  26
HETATM   26  C21 UNL     1      22.639   7.038  17.290  1.00  0.00     0.168 C 
BRANCH  26  27
HETATM   27  O2  UNL     1      22.211   5.763  17.506  1.00  0.00    -0.384 OA
BRANCH  27  28
HETATM   28  C22 UNL     1      21.018   5.593  18.136  1.00  0.00     0.154 C 
HETATM   29  C23 UNL     1      20.421   6.986  18.358  1.00  0.00     0.043 C 
HETATM   30  C24 UNL     1      19.257   6.955  19.280  1.00  0.00     0.045 C 
HETATM   31  C26 UNL     1      18.587   5.598  19.304  1.00  0.00     0.154 C 
HETATM   32  C27 UNL     1      18.620   4.924  17.958  1.00  0.00     0.180 C 
HETATM   33  C28 UNL     1      20.011   4.803  17.373  1.00  0.00     0.243 C 
BRANCH  30  34
HETATM   34  C25 UNL     1      19.575   7.441  20.672  1.00  0.00     0.236 C 
BRANCH  34  35
HETATM   35  N3  UNL     1      20.013   8.819  20.717  1.00  0.00    -0.079 N 
ATOM     36  H33 UNL     1      20.921   8.894  21.177  1.00  0.00     0.274 HD
ATOM     37  H32 UNL     1      20.267   9.148  19.785  1.00  0.00     0.274 HD
ATOM     38  H31 UNL     1      19.337   9.448  21.149  1.00  0.00     0.274 HD
ENDBRANCH  34  35
ENDBRANCH  30  34
BRANCH  31  39
HETATM   39  O3  UNL     1      19.089   4.816  20.334  1.00  0.00    -0.393 OA
ATOM     40  H3  UNL     1      18.514   4.082  20.514  1.00  0.00     0.210 HD
ENDBRANCH  31  39
BRANCH  32  41
HETATM   41  O4  UNL     1      18.080   3.651  18.120  1.00  0.00    -0.391 OA
ATOM     42  H4  UNL     1      17.234   3.756  18.539  1.00  0.00     0.210 HD
ENDBRANCH  32  41
BRANCH  33  43
HETATM   43  N4  UNL     1      20.008   5.234  16.011  1.00  0.00    -0.070 N 
ATOM     44  H43 UNL     1      19.064   5.321  15.635  1.00  0.00     0.274 HD
ATOM     45  H42 UNL     1      20.293   6.209  15.913  1.00  0.00     0.274 HD
ATOM     46  H41 UNL     1      20.589   4.604  15.458  1.00  0.00     0.274 HD
ENDBRANCH  33  43
ENDBRANCH  27  28
ENDBRANCH  26  27
ENDBRANCH  25  26
ENDBRANCH  24  25
ENDBRANCH   1  24
TORSDOF 19
ENDMDL
MODEL 5
REMARK VINA RESULT: -7.364317747      3.060      7.064
REMARK  19 active torsions:
REMARK  status: ('A' for Active; 'I' for Inactive)
REMARK    1  A    between atoms: N1_2  and  C2_3 
REMARK    2  A    between atoms: N1_2  and  C9_10 
REMARK    3  A    between atoms: C2_3  and  C3_4 
REMARK    4  A    between atoms: C12_13  and  C13_14 
REMARK       I    between atoms: C13_14  and  N2_16 
REMARK    5  A    between atoms: N2_16  and  C14_17 
REMARK    6  A    between atoms: C14_17  and  C15_18 
REMARK    7  A    between atoms: C15_18  and  C16_19 
REMARK    8  A    between atoms: C16_19  and  C17_20 
REMARK    9  A    between atoms: C17_20  and  C18_21 
REMARK   10  A    between atoms: C18_21  and  C19_22 
REMARK   11  A    between atoms: C19_22  and  C20_23 
REMARK   12  A    between atoms: C20_23  and  C21_24 
REMARK   13  A    between atoms: C21_24  and  O2_25 
REMARK   14  A    between atoms: O2_25  and  C22_26 
REMARK   15  A    between atoms: C24_28  and  C25_29 
REMARK   16  A    between atoms: C25_29  and  N3_30 
REMARK   17  A    between atoms: C26_34  and  O3_35 
REMARK   18  A    between atoms: C27_37  and  O4_38 
REMARK   19  A    between atoms: C28_40  and  N4_41 
ROOT
HETATM    1  C18 UNL     1      16.995   4.384  19.173  1.00  0.00     0.000 C 
ENDROOT
BRANCH   1   2
HETATM    2  C17 UNL     1      15.657   4.835  18.779  1.00  0.00     0.000 C 
BRANCH   2   3
HETATM    3  C16 UNL     1      15.016   4.374  17.543  1.00  0.00     0.002 C 
BRANCH   3   4
HETATM    4  C15 UNL     1      13.532   4.422  17.434  1.00  0.00     0.033 C 
BRANCH   4   5
HETATM    5  C14 UNL     1      13.102   2.888  17.413  1.00  0.00     0.222 C 
BRANCH   5   6
HETATM    6  N2  UNL     1      13.216   2.308  18.501  1.00  0.00    -0.411 NA
HETATM    7  C13 UNL     1      13.350   1.622  19.791  1.00  0.00     0.321 C 
HETATM    8  O1  UNL     1      13.340   0.446  20.034  1.00  0.00    -0.251 OA
BRANCH   7   9
HETATM    9  C12 UNL     1      13.526   2.643  20.869  1.00  0.00     0.046 A 
HETATM   10  C11 UNL     1      12.607   3.596  21.119  1.00  0.00     0.020 A 
HETATM   11  C10 UNL     1      12.797   4.572  22.115  1.00  0.00     0.030 A 
HETATM   12  C9  UNL     1      13.979   4.523  22.850  1.00  0.00     0.030 A 
HETATM   13  C30 UNL     1      14.915   3.558  22.603  1.00  0.00     0.030 A 
HETATM   14  C29 UNL     1      14.692   2.606  21.603  1.00  0.00     0.020 A 
BRANCH  12  15
HETATM   15  N1  UNL     1      14.172   5.485  23.878  1.00  0.00    -0.381 N 
HETATM   16  C1  UNL     1      14.431   5.086  25.248  1.00  0.00     0.150 C 
BRANCH  15  17
HETATM   17  C2  UNL     1      14.143   6.914  23.617  1.00  0.00     0.161 C 
BRANCH  17  18
HETATM   18  C3  UNL     1      15.160   7.214  22.603  1.00  0.00    -0.040 A 
HETATM   19  C4  UNL     1      14.819   7.712  21.380  1.00  0.00     0.009 A 
HETATM   20  C5  UNL     1      15.693   8.008  20.378  1.00  0.00     0.001 A 
HETATM   21  C6  UNL     1      17.055   7.790  20.598  1.00  0.00     0.000 A 
HETATM   22  C7  UNL     1      17.457   7.291  21.805  1.00  0.00     0.001 A 
HETATM   23  C8  UNL     1      16.530   7.001  22.809  1.00  0.00     0.009 A 
ENDBRANCH  17  18
ENDBRANCH  15  17
ENDBRANCH  12  15
ENDBRANCH   7   9
ENDBRANCH   5   6
ENDBRANCH   4   5
ENDBRANCH   3   4
ENDBRANCH   2   3
ENDBRANCH   1   2
BRANCH   1  24
HETATM   24  C19 UNL     1      18.121   4.550  18.205  1.00  0.00     0.002 C 
BRANCH  24  25
HETATM   25  C20 UNL     1      19.407   4.260  18.948  1.00  0.00     0.026 C 
BRANCH  25  26
HETATM   26  C21 UNL     1      20.419   3.478  18.173  1.00  0.00     0.168 C 
BRANCH  26  27
HETATM   27  O2  UNL     1      21.677   3.590  18.683  1.00  0.00    -0.384 OA
BRANCH  27  28
HETATM   28  C22 UNL     1      22.474   4.577  18.193  1.00  0.00     0.154 C 
HETATM   29  C23 UNL     1      23.434   4.984  19.315  1.00  0.00     0.043 C 
HETATM   30  C24 UNL     1      24.165   6.236  18.997  1.00  0.00     0.045 C 
HETATM   31  C26 UNL     1      24.258   6.479  17.506  1.00  0.00     0.154 C 
HETATM   32  C27 UNL     1      24.399   5.196  16.730  1.00  0.00     0.180 C 
HETATM   33  C28 UNL     1      23.310   4.187  17.022  1.00  0.00     0.243 C 
BRANCH  30  34
HETATM   34  C25 UNL     1      23.633   7.446  19.724  1.00  0.00     0.236 C 
BRANCH  34  35
HETATM   35  N3  UNL     1      22.195   7.436  19.887  1.00  0.00    -0.079 N 
ATOM     36  H33 UNL     1      21.739   7.095  19.041  1.00  0.00     0.274 HD
ATOM     37  H32 UNL     1      21.911   6.706  20.540  1.00  0.00     0.274 HD
ATOM     38  H31 UNL     1      21.810   8.338  20.167  1.00  0.00     0.274 HD
ENDBRANCH  34  35
ENDBRANCH  30  34
BRANCH  31  39
HETATM   39  O3  UNL     1      23.218   7.286  17.070  1.00  0.00    -0.393 OA
ATOM     40  H3  UNL     1      22.907   7.008  16.217  1.00  0.00     0.210 HD
ENDBRANCH  31  39
BRANCH  32  41
HETATM   41  O4  UNL     1      24.366   5.526  15.378  1.00  0.00    -0.391 OA
ATOM     42  H4  UNL     1      24.896   4.885  14.919  1.00  0.00     0.210 HD
ENDBRANCH  32  41
BRANCH  33  43
HETATM   43  N4  UNL     1      23.885   2.902  17.262  1.00  0.00    -0.070 N 
ATOM     44  H43 UNL     1      24.831   2.826  16.889  1.00  0.00     0.274 HD
ATOM     45  H42 UNL     1      24.106   2.754  18.247  1.00  0.00     0.274 HD
ATOM     46  H41 UNL     1      23.265   2.181  16.894  1.00  0.00     0.274 HD
ENDBRANCH  33  43
ENDBRANCH  27  28
ENDBRANCH  26  27
ENDBRANCH  25  26
ENDBRANCH  24  25
ENDBRANCH   1  24
TORSDOF 19
ENDMDL
