MODEL 1
REMARK VINA RESULT: -8.045584806      0.000      0.000
REMARK  20 active torsions:
REMARK  status: ('A' for Active; 'I' for Inactive)
REMARK    1  A    between atoms: C8_8  and  C9_9 
REMARK    2  A    between atoms: C9_9  and  O1_10 
REMARK    3  A    between atoms: C10_12  and  O2_13 
REMARK    4  A    between atoms: O2_13  and  C11_14 
REMARK       I    between atoms: C11_14  and  N1_16 
REMARK    5  A    between atoms: N1_16  and  C12_18 
REMARK    6  A    between atoms: C12_18  and  C13_19 
REMARK    7  A    between atoms: C13_19  and  C14_20 
REMARK    8  A    between atoms: C14_20  and  N2_21 
REMARK       I    between atoms: N2_21  and  C15_23 
REMARK    9  A    between atoms: C15_23  and  C16_25 
REMARK   10  A    between atoms: C16_25  and  O5_26 
REMARK   11  A    between atoms: C18_29  and  O6_30 
REMARK   12  A    between atoms: C21_35  and  C22_36 
REMARK   13  A    between atoms: C22_36  and  C23_37 
REMARK   14  A    between atoms: C23_37  and  C24_38 
REMARK   15  A    between atoms: C24_38  and  C25_39 
REMARK   16  A    between atoms: C24_38  and  N3_44 
REMARK   17  A    between atoms: C25_39  and  C26_40 
REMARK   18  A    between atoms: C26_40  and  C27_41 
REMARK   19  A    between atoms: C27_41  and  C28_42 
REMARK       I    between atoms: N3_44  and  C31_46 
REMARK   20  A    between atoms: C31_46  and  C32_48 
ROOT
HETATM    1  C1  UNL     1      18.211   9.484  24.272  1.00  0.00     0.021 C 
HETATM    2  C2  UNL     1      18.394   8.425  23.444  1.00  0.00    -0.038 C 
HETATM    3  C3  UNL     1      17.639   7.286  24.027  1.00  0.00     0.040 C 
HETATM    4  C4  UNL     1      16.249   7.155  23.382  1.00  0.00     0.011 C 
HETATM    5  C5  UNL     1      16.381   7.657  22.018  1.00  0.00     0.007 C 
HETATM    6  C6  UNL     1      15.265   7.691  21.037  1.00  0.00     0.041 C 
HETATM    7  C7  UNL     1      15.931   6.545  20.359  1.00  0.00    -0.059 C 
HETATM    8  C8  UNL     1      15.796   5.556  19.496  1.00  0.00    -0.024 C 
HETATM    9  C10 UNL     1      16.905   4.555  19.219  1.00  0.00     0.167 C 
HETATM   10  C17 UNL     1      18.101   4.828  20.053  1.00  0.00     0.070 C 
HETATM   11  C18 UNL     1      17.792   5.550  21.380  1.00  0.00     0.136 C 
HETATM   12  C19 UNL     1      17.208   6.856  21.085  1.00  0.00     0.035 C 
HETATM   13  C20 UNL     1      18.224   7.744  20.405  1.00  0.00     0.192 C 
HETATM   14  O7  UNL     1      18.629   8.827  21.085  1.00  0.00    -0.354 OA
HETATM   15  C21 UNL     1      19.272   8.779  22.275  1.00  0.00     0.052 C 
ENDROOT
BRANCH   9  16
HETATM   16  O2  UNL     1      16.461   3.255  19.520  1.00  0.00    -0.294 OA
BRANCH  16  17
HETATM   17  C11 UNL     1      16.058   2.282  18.645  1.00  0.00     0.361 C 
HETATM   18  O3  UNL     1      16.765   2.063  17.647  1.00  0.00    -0.238 OA
HETATM   19  N1  UNL     1      14.876   1.511  18.818  1.00  0.00    -0.337 N 
ATOM     20  H1  UNL     1      14.287   1.674  19.634  1.00  0.00     0.164 HD
BRANCH  19  21
HETATM   21  C12 UNL     1      14.498   0.505  17.862  1.00  0.00     0.126 C 
BRANCH  21  22
HETATM   22  C13 UNL     1      13.118   0.790  17.282  1.00  0.00     0.039 C 
BRANCH  22  23
HETATM   23  C14 UNL     1      13.139   1.924  16.318  1.00  0.00     0.124 C 
BRANCH  23  24
HETATM   24  N2  UNL     1      13.870   1.562  15.137  1.00  0.00    -0.359 N 
HETATM   25  C15 UNL     1      13.238   0.911  14.056  1.00  0.00     0.241 C 
HETATM   26  O4  UNL     1      12.035   0.599  14.000  1.00  0.00    -0.271 OA
ATOM     27  H2  UNL     1      14.865   1.779  15.078  1.00  0.00     0.162 HD
BRANCH  25  28
HETATM   28  C16 UNL     1      14.063   0.547  12.840  1.00  0.00     0.266 C 
BRANCH  28  29
HETATM   29  O5  UNL     1      14.498   1.650  12.154  1.00  0.00    -0.392 OA
ATOM     30  H5  UNL     1      13.783   2.206  11.870  1.00  0.00     0.210 HD
ENDBRANCH  28  29
ENDBRANCH  25  28
ENDBRANCH  23  24
ENDBRANCH  22  23
ENDBRANCH  21  22
ENDBRANCH  19  21
ENDBRANCH  16  17
ENDBRANCH   9  16
BRANCH   8  31
HETATM   31  C9  UNL     1      14.481   5.367  18.813  1.00  0.00     0.201 C 
BRANCH  31  32
HETATM   32  O1  UNL     1      13.687   4.485  19.509  1.00  0.00    -0.397 OA
ATOM     33  H1  UNL     1      12.791   4.797  19.554  1.00  0.00     0.209 HD
ENDBRANCH  31  32
ENDBRANCH   8  31
BRANCH  11  34
HETATM   34  O6  UNL     1      16.966   4.665  22.062  1.00  0.00    -0.394 OA
ATOM     35  H6  UNL     1      16.118   5.092  22.060  1.00  0.00     0.210 HD
ENDBRANCH  11  34
BRANCH  15  36
HETATM   36  C22 UNL     1      20.608   8.099  22.321  1.00  0.00     0.067 C 
BRANCH  36  37
HETATM   37  C23 UNL     1      21.429   8.369  21.106  1.00  0.00     0.032 C 
BRANCH  37  38
HETATM   38  C24 UNL     1      22.826   8.823  21.469  1.00  0.00     0.087 C 
BRANCH  38  39
HETATM   39  C25 UNL     1      22.776  10.354  21.603  1.00  0.00     0.025 C 
BRANCH  39  40
HETATM   40  C26 UNL     1      23.293  10.759  22.941  1.00  0.00     0.002 C 
BRANCH  40  41
HETATM   41  C27 UNL     1      22.555  11.924  23.504  1.00  0.00    -0.000 C 
BRANCH  41  42
HETATM   42  C28 UNL     1      21.179  11.564  23.942  1.00  0.00    -0.005 C 
HETATM   43  C29 UNL     1      20.373  12.772  24.381  1.00  0.00     0.005 C 
ENDBRANCH  41  42
ENDBRANCH  40  41
ENDBRANCH  39  40
ENDBRANCH  38  39
BRANCH  38  44
HETATM   44  N3  UNL     1      23.793   8.571  20.419  1.00  0.00    -0.352 N 
HETATM   45  C30 UNL     1      24.139   9.689  19.564  1.00  0.00     0.153 C 
HETATM   46  C31 UNL     1      24.407   7.323  20.174  1.00  0.00     0.219 C 
HETATM   47  O8  UNL     1      24.121   6.349  20.893  1.00  0.00    -0.273 OA
BRANCH  46  48
HETATM   48  C32 UNL     1      25.380   7.165  19.078  1.00  0.00     0.098 C 
HETATM   49  C33 UNL     1      24.699   6.619  17.827  1.00  0.00     0.014 C 
ENDBRANCH  46  48
ENDBRANCH  38  44
ENDBRANCH  37  38
ENDBRANCH  36  37
ENDBRANCH  15  36
TORSDOF 20
ENDMDL
MODEL 2
REMARK VINA RESULT: -7.968563445      2.169      9.411
REMARK  20 active torsions:
REMARK  status: ('A' for Active; 'I' for Inactive)
REMARK    1  A    between atoms: C8_8  and  C9_9 
REMARK    2  A    between atoms: C9_9  and  O1_10 
REMARK    3  A    between atoms: C10_12  and  O2_13 
REMARK    4  A    between atoms: O2_13  and  C11_14 
REMARK       I    between atoms: C11_14  and  N1_16 
REMARK    5  A    between atoms: N1_16  and  C12_18 
REMARK    6  A    between atoms: C12_18  and  C13_19 
REMARK    7  A    between atoms: C13_19  and  C14_20 
REMARK    8  A    between atoms: C14_20  and  N2_21 
REMARK       I    between atoms: N2_21  and  C15_23 
REMARK    9  A    between atoms: C15_23  and  C16_25 
REMARK   10  A    between atoms: C16_25  and  O5_26 
REMARK   11  A    between atoms: C18_29  and  O6_30 
REMARK   12  A    between atoms: C21_35  and  C22_36 
REMARK   13  A    between atoms: C22_36  and  C23_37 
REMARK   14  A    between atoms: C23_37  and  C24_38 
REMARK   15  A    between atoms: C24_38  and  C25_39 
REMARK   16  A    between atoms: C24_38  and  N3_44 
REMARK   17  A    between atoms: C25_39  and  C26_40 
REMARK   18  A    between atoms: C26_40  and  C27_41 
REMARK   19  A    between atoms: C27_41  and  C28_42 
REMARK       I    between atoms: N3_44  and  C31_46 
REMARK   20  A    between atoms: C31_46  and  C32_48 
ROOT
HETATM    1  C1  UNL     1      13.377   4.344  20.012  1.00  0.00     0.021 C 
HETATM    2  C2  UNL     1      14.695   4.667  20.032  1.00  0.00    -0.038 C 
HETATM    3  C3  UNL     1      14.852   5.890  19.205  1.00  0.00     0.040 C 
HETATM    4  C4  UNL     1      14.846   7.155  20.080  1.00  0.00     0.011 C 
HETATM    5  C5  UNL     1      15.395   6.761  21.374  1.00  0.00     0.007 C 
HETATM    6  C6  UNL     1      15.582   7.697  22.513  1.00  0.00     0.041 C 
HETATM    7  C7  UNL     1      17.040   7.642  22.216  1.00  0.00    -0.059 C 
HETATM    8  C8  UNL     1      18.217   8.209  22.402  1.00  0.00    -0.024 C 
HETATM    9  C10 UNL     1      19.483   7.707  21.729  1.00  0.00     0.167 C 
HETATM   10  C17 UNL     1      19.202   6.550  20.843  1.00  0.00     0.070 C 
HETATM   11  C18 UNL     1      17.762   6.513  20.293  1.00  0.00     0.136 C 
HETATM   12  C19 UNL     1      16.829   6.393  21.410  1.00  0.00     0.035 C 
HETATM   13  C20 UNL     1      17.001   5.057  22.096  1.00  0.00     0.192 C 
HETATM   14  O7  UNL     1      15.970   4.202  22.018  1.00  0.00    -0.354 OA
HETATM   15  C21 UNL     1      15.493   3.694  20.858  1.00  0.00     0.052 C 
ENDROOT
BRANCH   9  16
HETATM   16  O2  UNL     1      20.039   8.728  20.936  1.00  0.00    -0.294 OA
BRANCH  16  17
HETATM   17  C11 UNL     1      21.319   9.214  20.971  1.00  0.00     0.361 C 
HETATM   18  O3  UNL     1      21.542  10.224  21.657  1.00  0.00    -0.238 OA
HETATM   19  N1  UNL     1      22.401   8.623  20.264  1.00  0.00    -0.337 N 
ATOM     20  H1  UNL     1      22.236   7.790  19.699  1.00  0.00     0.164 HD
BRANCH  19  21
HETATM   21  C12 UNL     1      23.725   9.180  20.331  1.00  0.00     0.126 C 
BRANCH  21  22
HETATM   22  C13 UNL     1      24.550   8.785  19.113  1.00  0.00     0.039 C 
BRANCH  22  23
HETATM   23  C14 UNL     1      25.163   7.437  19.264  1.00  0.00     0.124 C 
BRANCH  23  24
HETATM   24  N2  UNL     1      24.859   6.620  18.125  1.00  0.00    -0.359 N 
HETATM   25  C15 UNL     1      23.706   5.807  18.093  1.00  0.00     0.241 C 
HETATM   26  O4  UNL     1      22.858   5.715  19.000  1.00  0.00    -0.271 OA
ATOM     27  H2  UNL     1      25.489   6.626  17.322  1.00  0.00     0.162 HD
BRANCH  25  28
HETATM   28  C16 UNL     1      23.443   4.961  16.867  1.00  0.00     0.266 C 
BRANCH  28  29
HETATM   29  O5  UNL     1      24.087   5.436  15.755  1.00  0.00    -0.392 OA
ATOM     30  H5  UNL     1      24.958   5.760  15.951  1.00  0.00     0.210 HD
ENDBRANCH  28  29
ENDBRANCH  25  28
ENDBRANCH  23  24
ENDBRANCH  22  23
ENDBRANCH  21  22
ENDBRANCH  19  21
ENDBRANCH  16  17
ENDBRANCH   9  16
BRANCH   8  31
HETATM   31  C9  UNL     1      18.302   9.434  23.252  1.00  0.00     0.201 C 
BRANCH  31  32
HETATM   32  O1  UNL     1      19.560   9.575  23.790  1.00  0.00    -0.397 OA
ATOM     33  H1  UNL     1      19.755  10.488  23.964  1.00  0.00     0.209 HD
ENDBRANCH  31  32
ENDBRANCH   8  31
BRANCH  11  34
HETATM   34  O6  UNL     1      17.656   7.680  19.546  1.00  0.00    -0.394 OA
ATOM     35  H6  UNL     1      16.762   7.967  19.692  1.00  0.00     0.210 HD
ENDBRANCH  11  34
BRANCH  15  36
HETATM   36  C22 UNL     1      16.416   2.848  20.031  1.00  0.00     0.067 C 
BRANCH  36  37
HETATM   37  C23 UNL     1      15.754   1.613  19.521  1.00  0.00     0.032 C 
BRANCH  37  38
HETATM   38  C24 UNL     1      16.070   1.378  18.060  1.00  0.00     0.087 C 
BRANCH  38  39
HETATM   39  C25 UNL     1      17.127   2.421  17.659  1.00  0.00     0.025 C 
BRANCH  39  40
HETATM   40  C26 UNL     1      18.479   1.793  17.661  1.00  0.00     0.002 C 
BRANCH  40  41
HETATM   41  C27 UNL     1      19.572   2.804  17.608  1.00  0.00    -0.000 C 
BRANCH  41  42
HETATM   42  C28 UNL     1      19.053   4.198  17.604  1.00  0.00    -0.005 C 
HETATM   43  C29 UNL     1      19.774   5.084  16.606  1.00  0.00     0.005 C 
ENDBRANCH  41  42
ENDBRANCH  40  41
ENDBRANCH  39  40
ENDBRANCH  38  39
BRANCH  38  44
HETATM   44  N3  UNL     1      14.940   1.638  17.189  1.00  0.00    -0.352 N 
HETATM   45  C30 UNL     1      14.754   3.005  16.745  1.00  0.00     0.153 C 
HETATM   46  C31 UNL     1      14.017   0.660  16.757  1.00  0.00     0.219 C 
HETATM   47  O8  UNL     1      14.155  -0.518  17.130  1.00  0.00    -0.273 OA
BRANCH  46  48
HETATM   48  C32 UNL     1      12.897   1.022  15.870  1.00  0.00     0.098 C 
HETATM   49  C33 UNL     1      11.569   0.555  16.460  1.00  0.00     0.014 C 
ENDBRANCH  46  48
ENDBRANCH  38  44
ENDBRANCH  37  38
ENDBRANCH  36  37
ENDBRANCH  15  36
TORSDOF 20
ENDMDL
MODEL 3
REMARK VINA RESULT: -7.960284519      2.217      3.139
REMARK  20 active torsions:
REMARK  status: ('A' for Active; 'I' for Inactive)
REMARK    1  A    between atoms: C8_8  and  C9_9 
REMARK    2  A    between atoms: C9_9  and  O1_10 
REMARK    3  A    between atoms: C10_12  and  O2_13 
REMARK    4  A    between atoms: O2_13  and  C11_14 
REMARK       I    between atoms: C11_14  and  N1_16 
REMARK    5  A    between atoms: N1_16  and  C12_18 
REMARK    6  A    between atoms: C12_18  and  C13_19 
REMARK    7  A    between atoms: C13_19  and  C14_20 
REMARK    8  A    between atoms: C14_20  and  N2_21 
REMARK       I    between atoms: N2_21  and  C15_23 
REMARK    9  A    between atoms: C15_23  and  C16_25 
REMARK   10  A    between atoms: C16_25  and  O5_26 
REMARK   11  A    between atoms: C18_29  and  O6_30 
REMARK   12  A    between atoms: C21_35  and  C22_36 
REMARK   13  A    between atoms: C22_36  and  C23_37 
REMARK   14  A    between atoms: C23_37  and  C24_38 
REMARK   15  A    between atoms: C24_38  and  C25_39 
REMARK   16  A    between atoms: C24_38  and  N3_44 
REMARK   17  A    between atoms: C25_39  and  C26_40 
REMARK   18  A    between atoms: C26_40  and  C27_41 
REMARK   19  A    between atoms: C27_41  and  C28_42 
REMARK       I    between atoms: N3_44  and  C31_46 
REMARK   20  A    between atoms: C31_46  and  C32_48 
ROOT
HETATM    1  C1  UNL     1      18.278   9.595  24.300  1.00  0.00     0.021 C 
HETATM    2  C2  UNL     1      18.412   8.502  23.506  1.00  0.00    -0.038 C 
HETATM    3  C3  UNL     1      17.641   7.407  24.147  1.00  0.00     0.040 C 
HETATM    4  C4  UNL     1      16.232   7.292  23.541  1.00  0.00     0.011 C 
HETATM    5  C5  UNL     1      16.344   7.742  22.156  1.00  0.00     0.007 C 
HETATM    6  C6  UNL     1      15.206   7.773  21.201  1.00  0.00     0.041 C 
HETATM    7  C7  UNL     1      15.823   6.585  20.550  1.00  0.00    -0.059 C 
HETATM    8  C8  UNL     1      15.640   5.570  19.726  1.00  0.00    -0.024 C 
HETATM    9  C10 UNL     1      16.714   4.529  19.460  1.00  0.00     0.167 C 
HETATM   10  C17 UNL     1      17.938   4.797  20.256  1.00  0.00     0.070 C 
HETATM   11  C18 UNL     1      17.680   5.575  21.562  1.00  0.00     0.136 C 
HETATM   12  C19 UNL     1      17.126   6.885  21.234  1.00  0.00     0.035 C 
HETATM   13  C20 UNL     1      18.149   7.719  20.499  1.00  0.00     0.192 C 
HETATM   14  O7  UNL     1      18.601   8.814  21.129  1.00  0.00    -0.354 OA
HETATM   15  C21 UNL     1      19.270   8.790  22.304  1.00  0.00     0.052 C 
ENDROOT
BRANCH   9  16
HETATM   16  O2  UNL     1      16.242   3.253  19.818  1.00  0.00    -0.294 OA
BRANCH  16  17
HETATM   17  C11 UNL     1      16.250   2.112  19.061  1.00  0.00     0.361 C 
HETATM   18  O3  UNL     1      15.293   1.911  18.296  1.00  0.00    -0.238 OA
HETATM   19  N1  UNL     1      17.295   1.149  19.106  1.00  0.00    -0.337 N 
ATOM     20  H1  UNL     1      18.090   1.301  19.726  1.00  0.00     0.164 HD
BRANCH  19  21
HETATM   21  C12 UNL     1      17.249  -0.036  18.293  1.00  0.00     0.126 C 
BRANCH  21  22
HETATM   22  C13 UNL     1      18.090   0.129  17.033  1.00  0.00     0.039 C 
BRANCH  22  23
HETATM   23  C14 UNL     1      19.543   0.234  17.340  1.00  0.00     0.124 C 
BRANCH  23  24
HETATM   24  N2  UNL     1      20.093   1.420  16.750  1.00  0.00    -0.359 N 
HETATM   25  C15 UNL     1      20.124   2.643  17.454  1.00  0.00     0.241 C 
HETATM   26  O4  UNL     1      19.706   2.823  18.612  1.00  0.00    -0.271 OA
ATOM     27  H2  UNL     1      20.469   1.379  15.802  1.00  0.00     0.162 HD
BRANCH  25  28
HETATM   28  C16 UNL     1      20.709   3.862  16.775  1.00  0.00     0.266 C 
BRANCH  28  29
HETATM   29  O5  UNL     1      22.077   3.817  16.709  1.00  0.00    -0.392 OA
ATOM     30  H5  UNL     1      22.400   3.921  15.822  1.00  0.00     0.210 HD
ENDBRANCH  28  29
ENDBRANCH  25  28
ENDBRANCH  23  24
ENDBRANCH  22  23
ENDBRANCH  21  22
ENDBRANCH  19  21
ENDBRANCH  16  17
ENDBRANCH   9  16
BRANCH   8  31
HETATM   31  C9  UNL     1      14.305   5.394  19.082  1.00  0.00     0.201 C 
BRANCH  31  32
HETATM   32  O1  UNL     1      14.423   4.759  17.867  1.00  0.00    -0.397 OA
ATOM     33  H1  UNL     1      13.913   3.958  17.851  1.00  0.00     0.209 HD
ENDBRANCH  31  32
ENDBRANCH   8  31
BRANCH  11  34
HETATM   34  O6  UNL     1      16.848   4.738  22.295  1.00  0.00    -0.394 OA
ATOM     35  H6  UNL     1      16.184   5.321  22.643  1.00  0.00     0.210 HD
ENDBRANCH  11  34
BRANCH  15  36
HETATM   36  C22 UNL     1      20.588   8.074  22.344  1.00  0.00     0.067 C 
BRANCH  36  37
HETATM   37  C23 UNL     1      21.411   8.326  21.127  1.00  0.00     0.032 C 
BRANCH  37  38
HETATM   38  C24 UNL     1      22.804   8.795  21.486  1.00  0.00     0.087 C 
BRANCH  38  39
HETATM   39  C25 UNL     1      22.732  10.323  21.645  1.00  0.00     0.025 C 
BRANCH  39  40
HETATM   40  C26 UNL     1      23.200  10.709  23.008  1.00  0.00     0.002 C 
BRANCH  40  41
HETATM   41  C27 UNL     1      22.585  11.982  23.477  1.00  0.00    -0.000 C 
BRANCH  41  42
HETATM   42  C28 UNL     1      21.151  11.817  23.840  1.00  0.00    -0.005 C 
HETATM   43  C29 UNL     1      20.600  13.014  24.593  1.00  0.00     0.005 C 
ENDBRANCH  41  42
ENDBRANCH  40  41
ENDBRANCH  39  40
ENDBRANCH  38  39
BRANCH  38  44
HETATM   44  N3  UNL     1      23.767   8.576  20.424  1.00  0.00    -0.352 N 
HETATM   45  C30 UNL     1      24.093   9.715  19.589  1.00  0.00     0.153 C 
HETATM   46  C31 UNL     1      24.392   7.341  20.149  1.00  0.00     0.219 C 
HETATM   47  O8  UNL     1      24.123   6.349  20.850  1.00  0.00    -0.273 OA
BRANCH  46  48
HETATM   48  C32 UNL     1      25.359   7.216  19.043  1.00  0.00     0.098 C 
HETATM   49  C33 UNL     1      24.705   6.568  17.826  1.00  0.00     0.014 C 
ENDBRANCH  46  48
ENDBRANCH  38  44
ENDBRANCH  37  38
ENDBRANCH  36  37
ENDBRANCH  15  36
TORSDOF 20
ENDMDL
MODEL 4
REMARK VINA RESULT: -7.929158264      3.897      8.935
REMARK  20 active torsions:
REMARK  status: ('A' for Active; 'I' for Inactive)
REMARK    1  A    between atoms: C8_8  and  C9_9 
REMARK    2  A    between atoms: C9_9  and  O1_10 
REMARK    3  A    between atoms: C10_12  and  O2_13 
REMARK    4  A    between atoms: O2_13  and  C11_14 
REMARK       I    between atoms: C11_14  and  N1_16 
REMARK    5  A    between atoms: N1_16  and  C12_18 
REMARK    6  A    between atoms: C12_18  and  C13_19 
REMARK    7  A    between atoms: C13_19  and  C14_20 
REMARK    8  A    between atoms: C14_20  and  N2_21 
REMARK       I    between atoms: N2_21  and  C15_23 
REMARK    9  A    between atoms: C15_23  and  C16_25 
REMARK   10  A    between atoms: C16_25  and  O5_26 
REMARK   11  A    between atoms: C18_29  and  O6_30 
REMARK   12  A    between atoms: C21_35  and  C22_36 
REMARK   13  A    between atoms: C22_36  and  C23_37 
REMARK   14  A    between atoms: C23_37  and  C24_38 
REMARK   15  A    between atoms: C24_38  and  C25_39 
REMARK   16  A    between atoms: C24_38  and  N3_44 
REMARK   17  A    between atoms: C25_39  and  C26_40 
REMARK   18  A    between atoms: C26_40  and  C27_41 
REMARK   19  A    between atoms: C27_41  and  C28_42 
REMARK       I    between atoms: N3_44  and  C31_46 
REMARK   20  A    between atoms: C31_46  and  C32_48 
ROOT
HETATM    1  C1  UNL     1      15.240   5.497  18.997  1.00  0.00     0.021 C 
HETATM    2  C2  UNL     1      16.071   5.975  19.958  1.00  0.00    -0.038 C 
HETATM    3  C3  UNL     1      15.846   7.441  20.033  1.00  0.00     0.040 C 
HETATM    4  C4  UNL     1      14.853   7.793  21.153  1.00  0.00     0.011 C 
HETATM    5  C5  UNL     1      15.009   6.764  22.177  1.00  0.00     0.007 C 
HETATM    6  C6  UNL     1      14.241   6.739  23.449  1.00  0.00     0.041 C 
HETATM    7  C7  UNL     1      15.495   7.176  24.123  1.00  0.00    -0.059 C 
HETATM    8  C8  UNL     1      16.028   7.696  25.212  1.00  0.00    -0.024 C 
HETATM    9  C10 UNL     1      17.510   8.013  25.326  1.00  0.00     0.167 C 
HETATM   10  C17 UNL     1      18.231   7.692  24.070  1.00  0.00     0.070 C 
HETATM   11  C18 UNL     1      17.348   7.747  22.806  1.00  0.00     0.136 C 
HETATM   12  C19 UNL     1      16.289   6.748  22.922  1.00  0.00     0.035 C 
HETATM   13  C20 UNL     1      16.877   5.356  22.907  1.00  0.00     0.192 C 
HETATM   14  O7  UNL     1      16.569   4.583  21.855  1.00  0.00    -0.354 OA
HETATM   15  C21 UNL     1      16.895   4.878  20.575  1.00  0.00     0.052 C 
ENDROOT
BRANCH   9  16
HETATM   16  O2  UNL     1      17.685   9.386  25.581  1.00  0.00    -0.294 OA
BRANCH  16  17
HETATM   17  C11 UNL     1      18.234   9.969  26.692  1.00  0.00     0.361 C 
HETATM   18  O3  UNL     1      18.274   9.306  27.742  1.00  0.00    -0.238 OA
HETATM   19  N1  UNL     1      18.758  11.290  26.707  1.00  0.00    -0.337 N 
ATOM     20  H1  UNL     1      18.737  11.847  25.852  1.00  0.00     0.164 HD
BRANCH  19  21
HETATM   21  C12 UNL     1      19.317  11.855  27.905  1.00  0.00     0.126 C 
BRANCH  21  22
HETATM   22  C13 UNL     1      20.416  12.859  27.578  1.00  0.00     0.039 C 
BRANCH  22  23
HETATM   23  C14 UNL     1      20.271  13.423  26.208  1.00  0.00     0.124 C 
BRANCH  23  24
HETATM   24  N2  UNL     1      21.265  12.872  25.333  1.00  0.00    -0.359 N 
HETATM   25  C15 UNL     1      20.904  12.155  24.173  1.00  0.00     0.241 C 
HETATM   26  O4  UNL     1      19.740  11.935  23.788  1.00  0.00    -0.271 OA
ATOM     27  H2  UNL     1      22.253  13.001  25.554  1.00  0.00     0.162 HD
BRANCH  25  28
HETATM   28  C16 UNL     1      21.998  11.591  23.293  1.00  0.00     0.266 C 
BRANCH  28  29
HETATM   29  O5  UNL     1      21.958  12.095  22.020  1.00  0.00    -0.392 OA
ATOM     30  H5  UNL     1      22.683  12.680  21.839  1.00  0.00     0.210 HD
ENDBRANCH  28  29
ENDBRANCH  25  28
ENDBRANCH  23  24
ENDBRANCH  22  23
ENDBRANCH  21  22
ENDBRANCH  19  21
ENDBRANCH  16  17
ENDBRANCH   9  16
BRANCH   8  31
HETATM   31  C9  UNL     1      15.135   8.053  26.354  1.00  0.00     0.201 C 
BRANCH  31  32
HETATM   32  O1  UNL     1      15.753   7.809  27.559  1.00  0.00    -0.397 OA
ATOM     33  H1  UNL     1      16.398   7.116  27.476  1.00  0.00     0.209 HD
ENDBRANCH  31  32
ENDBRANCH   8  31
BRANCH  11  34
HETATM   34  O6  UNL     1      16.922   9.068  22.749  1.00  0.00    -0.394 OA
ATOM     35  H6  UNL     1      16.257   9.067  22.070  1.00  0.00     0.210 HD
ENDBRANCH  11  34
BRANCH  15  36
HETATM   36  C22 UNL     1      18.352   4.978  20.230  1.00  0.00     0.067 C 
BRANCH  36  37
HETATM   37  C23 UNL     1      18.698   6.279  19.590  1.00  0.00     0.032 C 
BRANCH  37  38
HETATM   38  C24 UNL     1      20.186   6.551  19.654  1.00  0.00     0.087 C 
BRANCH  38  39
HETATM   39  C25 UNL     1      20.353   8.025  20.060  1.00  0.00     0.025 C 
BRANCH  39  40
HETATM   40  C26 UNL     1      20.884   8.107  21.451  1.00  0.00     0.002 C 
BRANCH  40  41
HETATM   41  C27 UNL     1      22.371   8.032  21.493  1.00  0.00    -0.000 C 
BRANCH  41  42
HETATM   42  C28 UNL     1      23.014   9.078  20.652  1.00  0.00    -0.005 C 
HETATM   43  C29 UNL     1      24.229   8.559  19.906  1.00  0.00     0.005 C 
ENDBRANCH  41  42
ENDBRANCH  40  41
ENDBRANCH  39  40
ENDBRANCH  38  39
BRANCH  38  44
HETATM   44  N3  UNL     1      20.837   6.443  18.363  1.00  0.00    -0.352 N 
HETATM   45  C30 UNL     1      20.082   6.887  17.209  1.00  0.00     0.153 C 
HETATM   46  C31 UNL     1      22.137   5.933  18.159  1.00  0.00     0.219 C 
HETATM   47  O8  UNL     1      22.801   5.541  19.136  1.00  0.00    -0.273 OA
BRANCH  46  48
HETATM   48  C32 UNL     1      22.714   5.862  16.804  1.00  0.00     0.098 C 
HETATM   49  C33 UNL     1      24.147   5.339  16.855  1.00  0.00     0.014 C 
ENDBRANCH  46  48
ENDBRANCH  38  44
ENDBRANCH  37  38
ENDBRANCH  36  37
ENDBRANCH  15  36
TORSDOF 20
ENDMDL
MODEL 5
REMARK VINA RESULT: -7.914682870      2.672      9.024
REMARK  20 active torsions:
REMARK  status: ('A' for Active; 'I' for Inactive)
REMARK    1  A    between atoms: C8_8  and  C9_9 
REMARK    2  A    between atoms: C9_9  and  O1_10 
REMARK    3  A    between atoms: C10_12  and  O2_13 
REMARK    4  A    between atoms: O2_13  and  C11_14 
REMARK       I    between atoms: C11_14  and  N1_16 
REMARK    5  A    between atoms: N1_16  and  C12_18 
REMARK    6  A    between atoms: C12_18  and  C13_19 
REMARK    7  A    between atoms: C13_19  and  C14_20 
REMARK    8  A    between atoms: C14_20  and  N2_21 
REMARK       I    between atoms: N2_21  and  C15_23 
REMARK    9  A    between atoms: C15_23  and  C16_25 
REMARK   10  A    between atoms: C16_25  and  O5_26 
REMARK   11  A    between atoms: C18_29  and  O6_30 
REMARK   12  A    between atoms: C21_35  and  C22_36 
REMARK   13  A    between atoms: C22_36  and  C23_37 
REMARK   14  A    between atoms: C23_37  and  C24_38 
REMARK   15  A    between atoms: C24_38  and  C25_39 
REMARK   16  A    between atoms: C24_38  and  N3_44 
REMARK   17  A    between atoms: C25_39  and  C26_40 
REMARK   18  A    between atoms: C26_40  and  C27_41 
REMARK   19  A    between atoms: C27_41  and  C28_42 
REMARK       I    between atoms: N3_44  and  C31_46 
REMARK   20  A    between atoms: C31_46  and  C32_48 
ROOT
HETATM    1  C1  UNL     1      13.675   4.797  20.560  1.00  0.00     0.021 C 
HETATM    2  C2  UNL     1      14.975   5.160  20.418  1.00  0.00    -0.038 C 
HETATM    3  C3  UNL     1      14.980   6.532  19.852  1.00  0.00     0.040 C 
HETATM    4  C4  UNL     1      15.129   7.588  20.960  1.00  0.00     0.011 C 
HETATM    5  C5  UNL     1      15.900   6.957  22.027  1.00  0.00     0.007 C 
HETATM    6  C6  UNL     1      16.286   7.644  23.287  1.00  0.00     0.041 C 
HETATM    7  C7  UNL     1      17.668   7.709  22.735  1.00  0.00    -0.059 C 
HETATM    8  C8  UNL     1      18.858   8.270  22.829  1.00  0.00    -0.024 C 
HETATM    9  C10 UNL     1      19.985   7.967  21.855  1.00  0.00     0.167 C 
HETATM   10  C17 UNL     1      19.552   7.008  20.808  1.00  0.00     0.070 C 
HETATM   11  C18 UNL     1      18.037   7.029  20.522  1.00  0.00     0.136 C 
HETATM   12  C19 UNL     1      17.319   6.645  21.734  1.00  0.00     0.035 C 
HETATM   13  C20 UNL     1      17.612   5.204  22.083  1.00  0.00     0.192 C 
HETATM   14  O7  UNL     1      16.585   4.344  22.008  1.00  0.00    -0.354 OA
HETATM   15  C21 UNL     1      15.908   4.069  20.869  1.00  0.00     0.052 C 
ENDROOT
BRANCH   9  16
HETATM   16  O2  UNL     1      20.389   9.150  21.209  1.00  0.00    -0.294 OA
BRANCH  16  17
HETATM   17  C11 UNL     1      21.664   9.547  20.907  1.00  0.00     0.361 C 
HETATM   18  O3  UNL     1      21.979  10.727  21.132  1.00  0.00    -0.238 OA
HETATM   19  N1  UNL     1      22.644   8.680  20.351  1.00  0.00    -0.337 N 
ATOM     20  H1  UNL     1      22.404   7.707  20.164  1.00  0.00     0.164 HD
BRANCH  19  21
HETATM   21  C12 UNL     1      23.968   9.153  20.047  1.00  0.00     0.126 C 
BRANCH  21  22
HETATM   22  C13 UNL     1      24.871   8.009  19.601  1.00  0.00     0.039 C 
BRANCH  22  23
HETATM   23  C14 UNL     1      24.593   7.590  18.200  1.00  0.00     0.124 C 
BRANCH  23  24
HETATM   24  N2  UNL     1      23.854   6.360  18.184  1.00  0.00    -0.359 N 
HETATM   25  C15 UNL     1      22.735   6.187  17.341  1.00  0.00     0.241 C 
HETATM   26  O4  UNL     1      22.287   7.035  16.548  1.00  0.00    -0.271 OA
ATOM     27  H2  UNL     1      24.143   5.595  18.795  1.00  0.00     0.162 HD
BRANCH  25  28
HETATM   28  C16 UNL     1      21.992   4.870  17.376  1.00  0.00     0.266 C 
BRANCH  28  29
HETATM   29  O5  UNL     1      22.635   3.887  16.671  1.00  0.00    -0.392 OA
ATOM     30  H5  UNL     1      22.032   3.322  16.204  1.00  0.00     0.210 HD
ENDBRANCH  28  29
ENDBRANCH  25  28
ENDBRANCH  23  24
ENDBRANCH  22  23
ENDBRANCH  21  22
ENDBRANCH  19  21
ENDBRANCH  16  17
ENDBRANCH   9  16
BRANCH   8  31
HETATM   31  C9  UNL     1      19.092   9.296  23.888  1.00  0.00     0.201 C 
BRANCH  31  32
HETATM   32  O1  UNL     1      18.858  10.564  23.407  1.00  0.00    -0.397 OA
ATOM     33  H1  UNL     1      19.274  11.218  23.956  1.00  0.00     0.209 HD
ENDBRANCH  31  32
ENDBRANCH   8  31
BRANCH  11  34
HETATM   34  O6  UNL     1      17.798   8.320  20.067  1.00  0.00    -0.394 OA
ATOM     35  H6  UNL     1      17.194   8.682  20.706  1.00  0.00     0.210 HD
ENDBRANCH  11  34
BRANCH  15  36
HETATM   36  C22 UNL     1      16.670   3.448  19.736  1.00  0.00     0.067 C 
BRANCH  36  37
HETATM   37  C23 UNL     1      16.261   2.038  19.478  1.00  0.00     0.032 C 
BRANCH  37  38
HETATM   38  C24 UNL     1      16.556   1.626  18.052  1.00  0.00     0.087 C 
BRANCH  38  39
HETATM   39  C25 UNL     1      15.302   0.906  17.528  1.00  0.00     0.025 C 
BRANCH  39  40
HETATM   40  C26 UNL     1      14.127   1.821  17.607  1.00  0.00     0.002 C 
BRANCH  40  41
HETATM   41  C27 UNL     1      14.095   2.799  16.484  1.00  0.00    -0.000 C 
BRANCH  41  42
HETATM   42  C28 UNL     1      14.260   4.203  16.952  1.00  0.00    -0.005 C 
HETATM   43  C29 UNL     1      12.933   4.885  17.225  1.00  0.00     0.005 C 
ENDBRANCH  41  42
ENDBRANCH  40  41
ENDBRANCH  39  40
ENDBRANCH  38  39
BRANCH  38  44
HETATM   44  N3  UNL     1      17.618   0.644  17.955  1.00  0.00    -0.352 N 
HETATM   45  C30 UNL     1      17.245  -0.746  18.132  1.00  0.00     0.153 C 
HETATM   46  C31 UNL     1      18.975   0.948  17.709  1.00  0.00     0.219 C 
HETATM   47  O8  UNL     1      19.317   2.135  17.559  1.00  0.00    -0.273 OA
BRANCH  46  48
HETATM   48  C32 UNL     1      19.984  -0.123  17.629  1.00  0.00     0.098 C 
HETATM   49  C33 UNL     1      20.531  -0.243  16.209  1.00  0.00     0.014 C 
ENDBRANCH  46  48
ENDBRANCH  38  44
ENDBRANCH  37  38
ENDBRANCH  36  37
ENDBRANCH  15  36
TORSDOF 20
ENDMDL
