MODEL 1
REMARK VINA RESULT: -8.650524338      0.000      0.000
REMARK  20 active torsions:
REMARK  status: ('A' for Active; 'I' for Inactive)
REMARK    1  A    between atoms: C2_2  and  N1_3 
REMARK    2  A    between atoms: N1_3  and  C3_5 
REMARK    3  A    between atoms: C3_5  and  O1_7 
REMARK    4  A    between atoms: O1_7  and  C4_8 
REMARK    5  A    between atoms: C4_8  and  C5_9 
REMARK    6  A    between atoms: C5_9  and  C6_10 
REMARK    7  A    between atoms: C6_10  and  C7_11 
REMARK    8  A    between atoms: C7_11  and  C8_12 
REMARK    9  A    between atoms: C8_12  and  C9_13 
REMARK   10  A    between atoms: C9_13  and  C10_14 
REMARK   11  A    between atoms: C12_16  and  C13_17 
REMARK   12  A    between atoms: C16_22  and  O2_23 
REMARK   13  A    between atoms: C17_25  and  C18_26 
REMARK   14  A    between atoms: C18_26  and  C19_27 
REMARK   15  A    between atoms: C23_38  and  C24_39 
REMARK   16  A    between atoms: C24_39  and  C25_40 
REMARK   17  A    between atoms: C25_40  and  C26_41 
REMARK   18  A    between atoms: C26_41  and  C27_42 
REMARK   19  A    between atoms: C27_42  and  C28_43 
REMARK   20  A    between atoms: C28_43  and  C29_44 
ROOT
HETATM    1  C10 UNL     1      22.993  12.317  23.966  1.00  0.00     0.102 C 
HETATM    2  C11 UNL     1      21.734  12.010  24.572  1.00  0.00     0.012 C 
HETATM    3  C12 UNL     1      20.746  12.723  25.287  1.00  0.00     0.011 C 
HETATM    4  N2  UNL     1      19.505  12.333  25.107  1.00  0.00    -0.342 N 
ATOM      5  H2  UNL     1      18.810  12.861  25.635  1.00  0.00     0.167 HD
HETATM    6  C16 UNL     1      18.978  11.308  24.306  1.00  0.00     0.139 C 
HETATM    7  C17 UNL     1      19.292   9.858  24.332  1.00  0.00     0.165 C 
HETATM    8  N5  UNL     1      19.329   9.236  23.020  1.00  0.00    -0.347 N 
ATOM      9  H5  UNL     1      18.476   8.742  22.755  1.00  0.00     0.163 HD
HETATM   10  C22 UNL     1      20.341   9.206  22.067  1.00  0.00     0.241 C 
HETATM   11  O3  UNL     1      20.077   8.861  20.886  1.00  0.00    -0.271 OA
HETATM   12  C23 UNL     1      21.795   9.566  22.317  1.00  0.00     0.176 C 
HETATM   13  N6  UNL     1      22.089  10.920  21.943  1.00  0.00    -0.347 N 
ATOM     14  H6  UNL     1      21.597  11.240  21.109  1.00  0.00     0.163 HD
HETATM   15  C30 UNL     1      22.931  11.882  22.518  1.00  0.00     0.226 C 
HETATM   16  O6  UNL     1      23.782  12.514  21.781  1.00  0.00    -0.273 OA
ENDROOT
BRANCH   1  17
HETATM   17  C9  UNL     1      24.197  11.512  24.421  1.00  0.00     0.018 C 
BRANCH  17  18
HETATM   18  C8  UNL     1      24.981  12.012  25.545  1.00  0.00     0.001 C 
BRANCH  18  19
HETATM   19  C7  UNL     1      25.300  13.485  25.520  1.00  0.00     0.000 C 
BRANCH  19  20
HETATM   20  C6  UNL     1      26.667  13.765  26.123  1.00  0.00     0.002 C 
BRANCH  20  21
HETATM   21  C5  UNL     1      27.710  13.337  25.112  1.00  0.00     0.027 C 
BRANCH  21  22
HETATM   22  C4  UNL     1      28.839  14.307  24.972  1.00  0.00     0.178 C 
BRANCH  22  23
HETATM   23  O1  UNL     1      29.994  13.897  25.622  1.00  0.00    -0.327 OA
BRANCH  23  24
HETATM   24  C3  UNL     1      30.317  13.914  26.944  1.00  0.00     0.210 C 
HETATM   25  S1  UNL     1      30.244  12.576  27.860  1.00  0.00    -0.033 SA
BRANCH  24  26
HETATM   26  N1  UNL     1      30.738  15.112  27.600  1.00  0.00    -0.362 N 
ATOM     27  H1  UNL     1      31.582  15.597  27.297  1.00  0.00     0.162 HD
BRANCH  26  28
HETATM   28  C2  UNL     1      29.959  15.619  28.685  1.00  0.00     0.118 C 
HETATM   29  C1  UNL     1      28.613  16.130  28.249  1.00  0.00     0.026 C 
ENDBRANCH  26  28
ENDBRANCH  24  26
ENDBRANCH  23  24
ENDBRANCH  22  23
ENDBRANCH  21  22
ENDBRANCH  20  21
ENDBRANCH  19  20
ENDBRANCH  18  19
ENDBRANCH  17  18
ENDBRANCH   1  17
BRANCH   3  30
HETATM   30  C13 UNL     1      20.881  13.880  26.249  1.00  0.00     0.027 C 
HETATM   31  C14 UNL     1      21.949  14.848  25.825  1.00  0.00     0.016 C 
HETATM   32  C15 UNL     1      20.949  13.447  27.681  1.00  0.00     0.016 C 
ENDBRANCH   3  30
BRANCH  12  33
HETATM   33  C24 UNL     1      22.591   8.577  21.443  1.00  0.00     0.035 C 
BRANCH  33  34
HETATM   34  C25 UNL     1      23.539   9.253  20.517  1.00  0.00     0.002 C 
BRANCH  34  35
HETATM   35  C26 UNL     1      24.483   8.228  19.933  1.00  0.00     0.001 C 
BRANCH  35  36
HETATM   36  C27 UNL     1      23.755   7.269  19.051  1.00  0.00     0.010 C 
BRANCH  36  37
HETATM   37  C28 UNL     1      24.625   7.038  17.806  1.00  0.00     0.113 C 
BRANCH  37  38
HETATM   38  C29 UNL     1      24.281   5.754  17.187  1.00  0.00     0.172 C 
HETATM   39  O4  UNL     1      24.476   5.594  15.958  1.00  0.00    -0.648 OA
HETATM   40  O5  UNL     1      23.747   4.695  17.899  1.00  0.00    -0.648 OA
ENDBRANCH  37  38
ENDBRANCH  36  37
ENDBRANCH  35  36
ENDBRANCH  34  35
ENDBRANCH  33  34
ENDBRANCH  12  33
BRANCH   6  41
HETATM   41  O2  UNL     1      18.089  11.552  23.390  1.00  0.00    -0.348 OA
ATOM     42  H2  UNL     1      18.273  12.136  22.663  1.00  0.00     0.219 HD
ENDBRANCH   6  41
BRANCH   7  43
HETATM   43  C18 UNL     1      18.302   9.115  25.247  1.00  0.00     0.092 C 
BRANCH  43  44
HETATM   44  C19 UNL     1      18.058   9.745  26.527  1.00  0.00     0.028 A 
HETATM   45  C20 UNL     1      16.880  10.312  27.007  1.00  0.00     0.114 A 
HETATM   46  N3  UNL     1      17.120  10.781  28.246  1.00  0.00    -0.360 N 
HETATM   47  C21 UNL     1      18.396  10.536  28.568  1.00  0.00     0.180 A 
ATOM     48  H3  UNL     1      16.439  11.248  28.843  1.00  0.00     0.166 HD
HETATM   49  N4  UNL     1      18.944   9.913  27.524  1.00  0.00    -0.354 N 
ATOM     50  H4  UNL     1      19.915   9.602  27.488  1.00  0.00     0.166 HD
ENDBRANCH  43  44
ENDBRANCH   7  43
TORSDOF 20
ENDMDL
MODEL 2
REMARK VINA RESULT: -8.526867982      1.169      1.452
REMARK  20 active torsions:
REMARK  status: ('A' for Active; 'I' for Inactive)
REMARK    1  A    between atoms: C2_2  and  N1_3 
REMARK    2  A    between atoms: N1_3  and  C3_5 
REMARK    3  A    between atoms: C3_5  and  O1_7 
REMARK    4  A    between atoms: O1_7  and  C4_8 
REMARK    5  A    between atoms: C4_8  and  C5_9 
REMARK    6  A    between atoms: C5_9  and  C6_10 
REMARK    7  A    between atoms: C6_10  and  C7_11 
REMARK    8  A    between atoms: C7_11  and  C8_12 
REMARK    9  A    between atoms: C8_12  and  C9_13 
REMARK   10  A    between atoms: C9_13  and  C10_14 
REMARK   11  A    between atoms: C12_16  and  C13_17 
REMARK   12  A    between atoms: C16_22  and  O2_23 
REMARK   13  A    between atoms: C17_25  and  C18_26 
REMARK   14  A    between atoms: C18_26  and  C19_27 
REMARK   15  A    between atoms: C23_38  and  C24_39 
REMARK   16  A    between atoms: C24_39  and  C25_40 
REMARK   17  A    between atoms: C25_40  and  C26_41 
REMARK   18  A    between atoms: C26_41  and  C27_42 
REMARK   19  A    between atoms: C27_42  and  C28_43 
REMARK   20  A    between atoms: C28_43  and  C29_44 
ROOT
HETATM    1  C10 UNL     1      22.820  12.552  23.998  1.00  0.00     0.102 C 
HETATM    2  C11 UNL     1      21.578  12.168  24.594  1.00  0.00     0.012 C 
HETATM    3  C12 UNL     1      20.544  12.818  25.305  1.00  0.00     0.011 C 
HETATM    4  N2  UNL     1      19.330  12.354  25.115  1.00  0.00    -0.342 N 
ATOM      5  H2  UNL     1      18.601  12.838  25.640  1.00  0.00     0.167 HD
HETATM    6  C16 UNL     1      18.872  11.301  24.309  1.00  0.00     0.139 C 
HETATM    7  C17 UNL     1      19.272   9.873  24.333  1.00  0.00     0.165 C 
HETATM    8  N5  UNL     1      19.355   9.258  23.019  1.00  0.00    -0.347 N 
ATOM      9  H5  UNL     1      18.536   8.714  22.748  1.00  0.00     0.163 HD
HETATM   10  C22 UNL     1      20.374   9.292  22.074  1.00  0.00     0.241 C 
HETATM   11  O3  UNL     1      20.139   8.935  20.890  1.00  0.00    -0.271 OA
HETATM   12  C23 UNL     1      21.802   9.738  22.334  1.00  0.00     0.176 C 
HETATM   13  N6  UNL     1      22.015  11.109  21.965  1.00  0.00    -0.347 N 
ATOM     14  H6  UNL     1      21.510  11.401  21.129  1.00  0.00     0.163 HD
HETATM   15  C30 UNL     1      22.794  12.118  22.548  1.00  0.00     0.226 C 
HETATM   16  O6  UNL     1      23.611  12.803  21.819  1.00  0.00    -0.273 OA
ENDROOT
BRANCH   1  17
HETATM   17  C9  UNL     1      24.067  11.819  24.459  1.00  0.00     0.018 C 
BRANCH  17  18
HETATM   18  C8  UNL     1      24.425  11.881  25.872  1.00  0.00     0.001 C 
BRANCH  18  19
HETATM   19  C7  UNL     1      25.889  12.077  26.172  1.00  0.00     0.000 C 
BRANCH  19  20
HETATM   20  C6  UNL     1      26.710  12.152  24.895  1.00  0.00     0.002 C 
BRANCH  20  21
HETATM   21  C5  UNL     1      27.955  12.958  25.199  1.00  0.00     0.027 C 
BRANCH  21  22
HETATM   22  C4  UNL     1      27.689  14.416  25.398  1.00  0.00     0.178 C 
BRANCH  22  23
HETATM   23  O1  UNL     1      27.794  14.814  26.723  1.00  0.00    -0.327 OA
BRANCH  23  24
HETATM   24  C3  UNL     1      28.852  15.321  27.412  1.00  0.00     0.210 C 
HETATM   25  S1  UNL     1      28.652  16.319  28.676  1.00  0.00    -0.033 SA
BRANCH  24  26
HETATM   26  N1  UNL     1      30.200  15.004  27.058  1.00  0.00    -0.362 N 
ATOM     27  H1  UNL     1      30.615  15.382  26.207  1.00  0.00     0.162 HD
BRANCH  26  28
HETATM   28  C2  UNL     1      30.959  14.149  27.916  1.00  0.00     0.118 C 
HETATM   29  C1  UNL     1      30.439  12.737  27.942  1.00  0.00     0.026 C 
ENDBRANCH  26  28
ENDBRANCH  24  26
ENDBRANCH  23  24
ENDBRANCH  22  23
ENDBRANCH  21  22
ENDBRANCH  20  21
ENDBRANCH  19  20
ENDBRANCH  18  19
ENDBRANCH  17  18
ENDBRANCH   1  17
BRANCH   3  30
HETATM   30  C13 UNL     1      20.603  13.978  26.270  1.00  0.00     0.027 C 
HETATM   31  C14 UNL     1      21.911  14.714  26.194  1.00  0.00     0.016 C 
HETATM   32  C15 UNL     1      20.160  13.612  27.653  1.00  0.00     0.016 C 
ENDBRANCH   3  30
BRANCH  12  33
HETATM   33  C24 UNL     1      22.661   8.801  21.463  1.00  0.00     0.035 C 
BRANCH  33  34
HETATM   34  C25 UNL     1      23.838   9.486  20.861  1.00  0.00     0.002 C 
BRANCH  34  35
HETATM   35  C26 UNL     1      24.056   8.963  19.460  1.00  0.00     0.001 C 
BRANCH  35  36
HETATM   36  C27 UNL     1      25.236   8.052  19.406  1.00  0.00     0.010 C 
BRANCH  36  37
HETATM   37  C28 UNL     1      24.844   6.840  18.547  1.00  0.00     0.113 C 
BRANCH  37  38
HETATM   38  C29 UNL     1      23.915   5.981  19.287  1.00  0.00     0.172 C 
HETATM   39  O4  UNL     1      24.178   5.673  20.475  1.00  0.00    -0.648 OA
HETATM   40  O5  UNL     1      22.747   5.486  18.736  1.00  0.00    -0.648 OA
ENDBRANCH  37  38
ENDBRANCH  36  37
ENDBRANCH  35  36
ENDBRANCH  34  35
ENDBRANCH  33  34
ENDBRANCH  12  33
BRANCH   6  41
HETATM   41  O2  UNL     1      17.975  11.494  23.386  1.00  0.00    -0.348 OA
ATOM     42  H2  UNL     1      17.064  11.261  23.524  1.00  0.00     0.219 HD
ENDBRANCH   6  41
BRANCH   7  43
HETATM   43  C18 UNL     1      18.322   9.069  25.239  1.00  0.00     0.092 C 
BRANCH  43  44
HETATM   44  C19 UNL     1      18.043   9.673  26.525  1.00  0.00     0.028 A 
HETATM   45  C20 UNL     1      16.835  10.169  27.008  1.00  0.00     0.114 A 
HETATM   46  N3  UNL     1      17.048  10.640  28.251  1.00  0.00    -0.360 N 
HETATM   47  C21 UNL     1      18.335  10.463  28.572  1.00  0.00     0.180 A 
ATOM     48  H3  UNL     1      16.342  11.064  28.851  1.00  0.00     0.166 HD
HETATM   49  N4  UNL     1      18.917   9.881  27.524  1.00  0.00    -0.354 N 
ATOM     50  H4  UNL     1      19.904   9.624  27.486  1.00  0.00     0.166 HD
ENDBRANCH  43  44
ENDBRANCH   7  43
TORSDOF 20
ENDMDL
MODEL 3
REMARK VINA RESULT: -8.481850547      0.960      1.293
REMARK  20 active torsions:
REMARK  status: ('A' for Active; 'I' for Inactive)
REMARK    1  A    between atoms: C2_2  and  N1_3 
REMARK    2  A    between atoms: N1_3  and  C3_5 
REMARK    3  A    between atoms: C3_5  and  O1_7 
REMARK    4  A    between atoms: O1_7  and  C4_8 
REMARK    5  A    between atoms: C4_8  and  C5_9 
REMARK    6  A    between atoms: C5_9  and  C6_10 
REMARK    7  A    between atoms: C6_10  and  C7_11 
REMARK    8  A    between atoms: C7_11  and  C8_12 
REMARK    9  A    between atoms: C8_12  and  C9_13 
REMARK   10  A    between atoms: C9_13  and  C10_14 
REMARK   11  A    between atoms: C12_16  and  C13_17 
REMARK   12  A    between atoms: C16_22  and  O2_23 
REMARK   13  A    between atoms: C17_25  and  C18_26 
REMARK   14  A    between atoms: C18_26  and  C19_27 
REMARK   15  A    between atoms: C23_38  and  C24_39 
REMARK   16  A    between atoms: C24_39  and  C25_40 
REMARK   17  A    between atoms: C25_40  and  C26_41 
REMARK   18  A    between atoms: C26_41  and  C27_42 
REMARK   19  A    between atoms: C27_42  and  C28_43 
REMARK   20  A    between atoms: C28_43  and  C29_44 
ROOT
HETATM    1  C10 UNL     1      23.002  12.307  23.969  1.00  0.00     0.102 C 
HETATM    2  C11 UNL     1      21.743  12.005  24.578  1.00  0.00     0.012 C 
HETATM    3  C12 UNL     1      20.761  12.721  25.296  1.00  0.00     0.011 C 
HETATM    4  N2  UNL     1      19.517  12.336  25.118  1.00  0.00    -0.342 N 
ATOM      5  H2  UNL     1      18.826  12.867  25.648  1.00  0.00     0.167 HD
HETATM    6  C16 UNL     1      18.985  11.313  24.318  1.00  0.00     0.139 C 
HETATM    7  C17 UNL     1      19.293   9.862  24.343  1.00  0.00     0.165 C 
HETATM    8  N5  UNL     1      19.324   9.240  23.030  1.00  0.00    -0.347 N 
ATOM      9  H5  UNL     1      18.469   8.749  22.768  1.00  0.00     0.163 HD
HETATM   10  C22 UNL     1      20.334   9.207  22.076  1.00  0.00     0.241 C 
HETATM   11  O3  UNL     1      20.066   8.863  20.896  1.00  0.00    -0.271 OA
HETATM   12  C23 UNL     1      21.790   9.560  22.322  1.00  0.00     0.176 C 
HETATM   13  N6  UNL     1      22.088  10.914  21.948  1.00  0.00    -0.347 N 
ATOM     14  H6  UNL     1      21.596  11.236  21.115  1.00  0.00     0.163 HD
HETATM   15  C30 UNL     1      22.935  11.873  22.521  1.00  0.00     0.226 C 
HETATM   16  O6  UNL     1      23.788  12.501  21.782  1.00  0.00    -0.273 OA
ENDROOT
BRANCH   1  17
HETATM   17  C9  UNL     1      24.204  11.497  24.421  1.00  0.00     0.018 C 
BRANCH  17  18
HETATM   18  C8  UNL     1      25.396  12.212  24.866  1.00  0.00     0.001 C 
BRANCH  18  19
HETATM   19  C7  UNL     1      25.152  13.528  25.560  1.00  0.00     0.000 C 
BRANCH  19  20
HETATM   20  C6  UNL     1      24.930  13.334  27.051  1.00  0.00     0.002 C 
BRANCH  20  21
HETATM   21  C5  UNL     1      26.177  13.814  27.764  1.00  0.00     0.027 C 
BRANCH  21  22
HETATM   22  C4  UNL     1      27.109  12.709  28.147  1.00  0.00     0.178 C 
BRANCH  22  23
HETATM   23  O1  UNL     1      28.423  13.128  28.292  1.00  0.00    -0.327 OA
BRANCH  23  24
HETATM   24  C3  UNL     1      29.573  12.627  27.764  1.00  0.00     0.210 C 
HETATM   25  S1  UNL     1      30.257  11.270  28.335  1.00  0.00    -0.033 SA
BRANCH  24  26
HETATM   26  N1  UNL     1      30.244  13.269  26.678  1.00  0.00    -0.362 N 
ATOM     27  H1  UNL     1      31.106  12.878  26.298  1.00  0.00     0.162 HD
BRANCH  26  28
HETATM   28  C2  UNL     1      29.689  14.468  26.131  1.00  0.00     0.118 C 
HETATM   29  C1  UNL     1      28.753  14.208  24.983  1.00  0.00     0.026 C 
ENDBRANCH  26  28
ENDBRANCH  24  26
ENDBRANCH  23  24
ENDBRANCH  22  23
ENDBRANCH  21  22
ENDBRANCH  20  21
ENDBRANCH  19  20
ENDBRANCH  18  19
ENDBRANCH  17  18
ENDBRANCH   1  17
BRANCH   3  30
HETATM   30  C13 UNL     1      20.902  13.877  26.257  1.00  0.00     0.027 C 
HETATM   31  C14 UNL     1      21.843  14.930  25.744  1.00  0.00     0.016 C 
HETATM   32  C15 UNL     1      21.149  13.439  27.668  1.00  0.00     0.016 C 
ENDBRANCH   3  30
BRANCH  12  33
HETATM   33  C24 UNL     1      22.580   8.569  21.446  1.00  0.00     0.035 C 
BRANCH  33  34
HETATM   34  C25 UNL     1      23.544   9.240  20.533  1.00  0.00     0.002 C 
BRANCH  34  35
HETATM   35  C26 UNL     1      24.484   8.209  19.954  1.00  0.00     0.001 C 
BRANCH  35  36
HETATM   36  C27 UNL     1      23.756   7.260  19.062  1.00  0.00     0.010 C 
BRANCH  36  37
HETATM   37  C28 UNL     1      24.622   7.048  17.811  1.00  0.00     0.113 C 
BRANCH  37  38
HETATM   38  C29 UNL     1      24.289   5.766  17.183  1.00  0.00     0.172 C 
HETATM   39  O4  UNL     1      24.500   5.610  15.956  1.00  0.00    -0.648 OA
HETATM   40  O5  UNL     1      23.746   4.703  17.884  1.00  0.00    -0.648 OA
ENDBRANCH  37  38
ENDBRANCH  36  37
ENDBRANCH  35  36
ENDBRANCH  34  35
ENDBRANCH  33  34
ENDBRANCH  12  33
BRANCH   6  41
HETATM   41  O2  UNL     1      18.094  11.561  23.404  1.00  0.00    -0.348 OA
ATOM     42  H2  UNL     1      17.384  10.955  23.226  1.00  0.00     0.219 HD
ENDBRANCH   6  41
BRANCH   7  43
HETATM   43  C18 UNL     1      18.302   9.122  25.260  1.00  0.00     0.092 C 
BRANCH  43  44
HETATM   44  C19 UNL     1      18.063   9.753  26.541  1.00  0.00     0.028 A 
HETATM   45  C20 UNL     1      16.888  10.327  27.022  1.00  0.00     0.114 A 
HETATM   46  N3  UNL     1      17.133  10.794  28.260  1.00  0.00    -0.360 N 
HETATM   47  C21 UNL     1      18.407  10.542  28.581  1.00  0.00     0.180 A 
ATOM     48  H3  UNL     1      16.455  11.266  28.858  1.00  0.00     0.166 HD
HETATM   49  N4  UNL     1      18.951   9.917  27.537  1.00  0.00    -0.354 N 
ATOM     50  H4  UNL     1      19.920   9.600  27.499  1.00  0.00     0.166 HD
ENDBRANCH  43  44
ENDBRANCH   7  43
TORSDOF 20
ENDMDL
MODEL 4
REMARK VINA RESULT: -8.456719075      1.643      2.321
REMARK  20 active torsions:
REMARK  status: ('A' for Active; 'I' for Inactive)
REMARK    1  A    between atoms: C2_2  and  N1_3 
REMARK    2  A    between atoms: N1_3  and  C3_5 
REMARK    3  A    between atoms: C3_5  and  O1_7 
REMARK    4  A    between atoms: O1_7  and  C4_8 
REMARK    5  A    between atoms: C4_8  and  C5_9 
REMARK    6  A    between atoms: C5_9  and  C6_10 
REMARK    7  A    between atoms: C6_10  and  C7_11 
REMARK    8  A    between atoms: C7_11  and  C8_12 
REMARK    9  A    between atoms: C8_12  and  C9_13 
REMARK   10  A    between atoms: C9_13  and  C10_14 
REMARK   11  A    between atoms: C12_16  and  C13_17 
REMARK   12  A    between atoms: C16_22  and  O2_23 
REMARK   13  A    between atoms: C17_25  and  C18_26 
REMARK   14  A    between atoms: C18_26  and  C19_27 
REMARK   15  A    between atoms: C23_38  and  C24_39 
REMARK   16  A    between atoms: C24_39  and  C25_40 
REMARK   17  A    between atoms: C25_40  and  C26_41 
REMARK   18  A    between atoms: C26_41  and  C27_42 
REMARK   19  A    between atoms: C27_42  and  C28_43 
REMARK   20  A    between atoms: C28_43  and  C29_44 
ROOT
HETATM    1  C10 UNL     1      22.879  12.454  23.858  1.00  0.00     0.102 C 
HETATM    2  C11 UNL     1      21.640  12.099  24.479  1.00  0.00     0.012 C 
HETATM    3  C12 UNL     1      20.623  12.779  25.185  1.00  0.00     0.011 C 
HETATM    4  N2  UNL     1      19.401  12.324  25.022  1.00  0.00    -0.342 N 
ATOM      5  H2  UNL     1      18.684  12.830  25.543  1.00  0.00     0.167 HD
HETATM    6  C16 UNL     1      18.921  11.257  24.248  1.00  0.00     0.139 C 
HETATM    7  C17 UNL     1      19.305   9.825  24.304  1.00  0.00     0.165 C 
HETATM    8  N5  UNL     1      19.365   9.176  23.005  1.00  0.00    -0.347 N 
ATOM      9  H5  UNL     1      18.536   8.635  22.758  1.00  0.00     0.163 HD
HETATM   10  C22 UNL     1      20.372   9.175  22.047  1.00  0.00     0.241 C 
HETATM   11  O3  UNL     1      20.119   8.790  20.876  1.00  0.00    -0.271 OA
HETATM   12  C23 UNL     1      21.808   9.610  22.279  1.00  0.00     0.176 C 
HETATM   13  N6  UNL     1      22.033  10.969  21.872  1.00  0.00    -0.347 N 
ATOM     14  H6  UNL     1      21.521  11.245  21.035  1.00  0.00     0.163 HD
HETATM   15  C30 UNL     1      22.830  11.984  22.420  1.00  0.00     0.226 C 
HETATM   16  O6  UNL     1      23.645  12.640  21.663  1.00  0.00    -0.273 OA
ENDROOT
BRANCH   1  17
HETATM   17  C9  UNL     1      24.123  11.719  24.322  1.00  0.00     0.018 C 
BRANCH  17  18
HETATM   18  C8  UNL     1      25.262  12.506  24.784  1.00  0.00     0.001 C 
BRANCH  18  19
HETATM   19  C7  UNL     1      26.561  11.757  24.935  1.00  0.00     0.000 C 
BRANCH  19  20
HETATM   20  C6  UNL     1      27.702  12.695  25.292  1.00  0.00     0.002 C 
BRANCH  20  21
HETATM   21  C5  UNL     1      27.091  13.991  25.783  1.00  0.00     0.027 C 
BRANCH  21  22
HETATM   22  C4  UNL     1      27.300  14.234  27.244  1.00  0.00     0.178 C 
BRANCH  22  23
HETATM   23  O1  UNL     1      26.227  13.827  28.024  1.00  0.00    -0.327 OA
BRANCH  23  24
HETATM   24  C3  UNL     1      26.080  12.736  28.823  1.00  0.00     0.210 C 
HETATM   25  S1  UNL     1      26.169  12.841  30.440  1.00  0.00    -0.033 SA
BRANCH  24  26
HETATM   26  N1  UNL     1      25.839  11.435  28.282  1.00  0.00    -0.362 N 
ATOM     27  H1  UNL     1      26.573  10.941  27.776  1.00  0.00     0.162 HD
BRANCH  26  28
HETATM   28  C2  UNL     1      24.553  10.837  28.461  1.00  0.00     0.118 C 
HETATM   29  C1  UNL     1      23.431  11.704  27.960  1.00  0.00     0.026 C 
ENDBRANCH  26  28
ENDBRANCH  24  26
ENDBRANCH  23  24
ENDBRANCH  22  23
ENDBRANCH  21  22
ENDBRANCH  20  21
ENDBRANCH  19  20
ENDBRANCH  18  19
ENDBRANCH  17  18
ENDBRANCH   1  17
BRANCH   3  30
HETATM   30  C13 UNL     1      20.706  13.962  26.120  1.00  0.00     0.027 C 
HETATM   31  C14 UNL     1      22.035  14.659  26.035  1.00  0.00     0.016 C 
HETATM   32  C15 UNL     1      20.242  13.647  27.508  1.00  0.00     0.016 C 
ENDBRANCH   3  30
BRANCH  12  33
HETATM   33  C24 UNL     1      22.646   8.642  21.422  1.00  0.00     0.035 C 
BRANCH  33  34
HETATM   34  C25 UNL     1      23.546   9.343  20.466  1.00  0.00     0.002 C 
BRANCH  34  35
HETATM   35  C26 UNL     1      24.535   8.353  19.895  1.00  0.00     0.001 C 
BRANCH  35  36
HETATM   36  C27 UNL     1      23.836   7.274  19.137  1.00  0.00     0.010 C 
BRANCH  36  37
HETATM   37  C28 UNL     1      24.636   7.022  17.850  1.00  0.00     0.113 C 
BRANCH  37  38
HETATM   38  C29 UNL     1      24.228   5.749  17.248  1.00  0.00     0.172 C 
HETATM   39  O4  UNL     1      23.719   4.862  17.974  1.00  0.00    -0.648 OA
HETATM   40  O5  UNL     1      24.378   5.473  15.900  1.00  0.00    -0.648 OA
ENDBRANCH  37  38
ENDBRANCH  36  37
ENDBRANCH  35  36
ENDBRANCH  34  35
ENDBRANCH  33  34
ENDBRANCH  12  33
BRANCH   6  41
HETATM   41  O2  UNL     1      18.015  11.437  23.332  1.00  0.00    -0.348 OA
ATOM     42  H2  UNL     1      18.015  10.930  22.528  1.00  0.00     0.219 HD
ENDBRANCH   6  41
BRANCH   7  43
HETATM   43  C18 UNL     1      18.358   9.055  25.241  1.00  0.00     0.092 C 
BRANCH  43  44
HETATM   44  C19 UNL     1      18.087   9.704  26.507  1.00  0.00     0.028 A 
HETATM   45  C20 UNL     1      16.889  10.242  26.970  1.00  0.00     0.114 A 
HETATM   46  N3  UNL     1      17.107  10.744  28.199  1.00  0.00    -0.360 N 
HETATM   47  C21 UNL     1      18.388  10.548  28.532  1.00  0.00     0.180 A 
ATOM     48  H3  UNL     1      16.408  11.202  28.783  1.00  0.00     0.166 HD
HETATM   49  N4  UNL     1      18.962   9.922  27.505  1.00  0.00    -0.354 N 
ATOM     50  H4  UNL     1      19.942   9.642  27.479  1.00  0.00     0.166 HD
ENDBRANCH  43  44
ENDBRANCH   7  43
TORSDOF 20
ENDMDL
MODEL 5
REMARK VINA RESULT: -8.452023119      0.977      1.128
REMARK  20 active torsions:
REMARK  status: ('A' for Active; 'I' for Inactive)
REMARK    1  A    between atoms: C2_2  and  N1_3 
REMARK    2  A    between atoms: N1_3  and  C3_5 
REMARK    3  A    between atoms: C3_5  and  O1_7 
REMARK    4  A    between atoms: O1_7  and  C4_8 
REMARK    5  A    between atoms: C4_8  and  C5_9 
REMARK    6  A    between atoms: C5_9  and  C6_10 
REMARK    7  A    between atoms: C6_10  and  C7_11 
REMARK    8  A    between atoms: C7_11  and  C8_12 
REMARK    9  A    between atoms: C8_12  and  C9_13 
REMARK   10  A    between atoms: C9_13  and  C10_14 
REMARK   11  A    between atoms: C12_16  and  C13_17 
REMARK   12  A    between atoms: C16_22  and  O2_23 
REMARK   13  A    between atoms: C17_25  and  C18_26 
REMARK   14  A    between atoms: C18_26  and  C19_27 
REMARK   15  A    between atoms: C23_38  and  C24_39 
REMARK   16  A    between atoms: C24_39  and  C25_40 
REMARK   17  A    between atoms: C25_40  and  C26_41 
REMARK   18  A    between atoms: C26_41  and  C27_42 
REMARK   19  A    between atoms: C27_42  and  C28_43 
REMARK   20  A    between atoms: C28_43  and  C29_44 
ROOT
HETATM    1  C10 UNL     1      22.984  12.287  23.902  1.00  0.00     0.102 C 
HETATM    2  C11 UNL     1      21.732  11.990  24.526  1.00  0.00     0.012 C 
HETATM    3  C12 UNL     1      20.756  12.712  25.249  1.00  0.00     0.011 C 
HETATM    4  N2  UNL     1      19.511  12.325  25.088  1.00  0.00    -0.342 N 
ATOM      5  H2  UNL     1      18.826  12.860  25.621  1.00  0.00     0.167 HD
HETATM    6  C16 UNL     1      18.971  11.296  24.303  1.00  0.00     0.139 C 
HETATM    7  C17 UNL     1      19.279   9.845  24.336  1.00  0.00     0.165 C 
HETATM    8  N5  UNL     1      19.296   9.212  23.028  1.00  0.00    -0.347 N 
ATOM      9  H5  UNL     1      18.439   8.719  22.779  1.00  0.00     0.163 HD
HETATM   10  C22 UNL     1      20.296   9.171  22.063  1.00  0.00     0.241 C 
HETATM   11  O3  UNL     1      20.015   8.818  20.888  1.00  0.00    -0.271 OA
HETATM   12  C23 UNL     1      21.755   9.527  22.291  1.00  0.00     0.176 C 
HETATM   13  N6  UNL     1      22.048  10.878  21.902  1.00  0.00    -0.347 N 
ATOM     14  H6  UNL     1      21.546  11.193  21.072  1.00  0.00     0.163 HD
HETATM   15  C30 UNL     1      22.901  11.841  22.458  1.00  0.00     0.226 C 
HETATM   16  O6  UNL     1      23.745  12.464  21.705  1.00  0.00    -0.273 OA
ENDROOT
BRANCH   1  17
HETATM   17  C9  UNL     1      24.191  11.481  24.348  1.00  0.00     0.018 C 
BRANCH  17  18
HETATM   18  C8  UNL     1      24.910  11.911  25.542  1.00  0.00     0.001 C 
BRANCH  18  19
HETATM   19  C7  UNL     1      25.600  13.247  25.448  1.00  0.00     0.000 C 
BRANCH  19  20
HETATM   20  C6  UNL     1      27.010  13.104  24.899  1.00  0.00     0.002 C 
BRANCH  20  21
HETATM   21  C5  UNL     1      27.752  14.389  25.202  1.00  0.00     0.027 C 
BRANCH  21  22
HETATM   22  C4  UNL     1      29.228  14.292  24.984  1.00  0.00     0.178 C 
BRANCH  22  23
HETATM   23  O1  UNL     1      29.969  14.659  26.098  1.00  0.00    -0.327 OA
BRANCH  23  24
HETATM   24  C3  UNL     1      30.359  13.930  27.179  1.00  0.00     0.210 C 
HETATM   25  S1  UNL     1      31.117  14.612  28.442  1.00  0.00    -0.033 SA
BRANCH  24  26
HETATM   26  N1  UNL     1      30.123  12.523  27.262  1.00  0.00    -0.362 N 
ATOM     27  H1  UNL     1      30.467  11.897  26.533  1.00  0.00     0.162 HD
BRANCH  26  28
HETATM   28  C2  UNL     1      29.399  12.006  28.380  1.00  0.00     0.118 C 
HETATM   29  C1  UNL     1      27.969  12.472  28.416  1.00  0.00     0.026 C 
ENDBRANCH  26  28
ENDBRANCH  24  26
ENDBRANCH  23  24
ENDBRANCH  22  23
ENDBRANCH  21  22
ENDBRANCH  20  21
ENDBRANCH  19  20
ENDBRANCH  18  19
ENDBRANCH  17  18
ENDBRANCH   1  17
BRANCH   3  30
HETATM   30  C13 UNL     1      20.908  13.876  26.199  1.00  0.00     0.027 C 
HETATM   31  C14 UNL     1      22.067  14.760  25.834  1.00  0.00     0.016 C 
HETATM   32  C15 UNL     1      20.850  13.468  27.639  1.00  0.00     0.016 C 
ENDBRANCH   3  30
BRANCH  12  33
HETATM   33  C24 UNL     1      22.535   8.528  21.414  1.00  0.00     0.035 C 
BRANCH  33  34
HETATM   34  C25 UNL     1      23.505   9.191  20.502  1.00  0.00     0.002 C 
BRANCH  34  35
HETATM   35  C26 UNL     1      24.445   8.153  19.934  1.00  0.00     0.001 C 
BRANCH  35  36
HETATM   36  C27 UNL     1      24.520   8.255  18.447  1.00  0.00     0.010 C 
BRANCH  36  37
HETATM   37  C28 UNL     1      24.622   6.826  17.892  1.00  0.00     0.113 C 
BRANCH  37  38
HETATM   38  C29 UNL     1      23.281   6.274  17.679  1.00  0.00     0.172 C 
HETATM   39  O4  UNL     1      22.619   6.640  16.677  1.00  0.00    -0.648 OA
HETATM   40  O5  UNL     1      22.699   5.358  18.537  1.00  0.00    -0.648 OA
ENDBRANCH  37  38
ENDBRANCH  36  37
ENDBRANCH  35  36
ENDBRANCH  34  35
ENDBRANCH  33  34
ENDBRANCH  12  33
BRANCH   6  41
HETATM   41  O2  UNL     1      18.070  11.536  23.396  1.00  0.00    -0.348 OA
ATOM     42  H2  UNL     1      18.305  11.662  22.484  1.00  0.00     0.219 HD
ENDBRANCH   6  41
BRANCH   7  43
HETATM   43  C18 UNL     1      18.298   9.113  25.269  1.00  0.00     0.092 C 
BRANCH  43  44
HETATM   44  C19 UNL     1      18.070   9.756  26.546  1.00  0.00     0.028 A 
HETATM   45  C20 UNL     1      16.904  10.347  27.026  1.00  0.00     0.114 A 
HETATM   46  N3  UNL     1      17.156  10.821  28.260  1.00  0.00    -0.360 N 
HETATM   47  C21 UNL     1      18.429  10.557  28.579  1.00  0.00     0.180 A 
ATOM     48  H3  UNL     1      16.486  11.304  28.856  1.00  0.00     0.166 HD
HETATM   49  N4  UNL     1      18.962   9.917  27.538  1.00  0.00    -0.354 N 
ATOM     50  H4  UNL     1      19.928   9.589  27.501  1.00  0.00     0.166 HD
ENDBRANCH  43  44
ENDBRANCH   7  43
TORSDOF 20
ENDMDL
