MODEL 1
REMARK VINA RESULT: -9.204853172      0.000      0.000
REMARK  19 active torsions:
REMARK  status: ('A' for Active; 'I' for Inactive)
REMARK    1  A    between atoms: C4_4  and  C5_5 
REMARK    2  A    between atoms: C5_5  and  C6_6 
REMARK    3  A    between atoms: C6_6  and  N1_7 
REMARK    4  A    between atoms: N1_7  and  C7_9 
REMARK    5  A    between atoms: C7_9  and  C8_10 
REMARK    6  A    between atoms: C8_10  and  C9_11 
REMARK    7  A    between atoms: C9_11  and  C10_12 
REMARK    8  A    between atoms: C10_12  and  N2_13 
REMARK    9  A    between atoms: N2_13  and  C11_15 
REMARK   10  A    between atoms: C11_15  and  O1_16 
REMARK   11  A    between atoms: N3_18  and  C12_20 
REMARK   12  A    between atoms: C19_28  and  O3_29 
REMARK   13  A    between atoms: O3_29  and  C20_30 
REMARK   14  A    between atoms: C20_30  and  C21_31 
REMARK       I    between atoms: C21_31  and  N4_33 
REMARK   15  A    between atoms: N4_33  and  C22_34 
REMARK   16  A    between atoms: C25_37  and  C26_38 
REMARK   17  A    between atoms: C26_38  and  C27_39 
REMARK   18  A    between atoms: C30_50  and  C31_51 
REMARK   19  A    between atoms: C31_51  and  C32_52 
ROOT
HETATM    1  C1  UNL     1      19.360  13.416  28.129  1.00  0.00     0.018 C 
HETATM    2  C2  UNL     1      19.514  12.639  27.242  1.00  0.00    -0.077 C 
HETATM    3  C3  UNL     1      19.682  11.709  26.070  1.00  0.00     0.032 A 
HETATM    4  C4  UNL     1      18.757  10.702  26.105  1.00  0.00    -0.034 A 
HETATM    5  C17 UNL     1      18.643   9.957  24.975  1.00  0.00     0.012 A 
HETATM    6  C18 UNL     1      19.471  10.242  23.857  1.00  0.00     0.038 A 
HETATM    7  C19 UNL     1      20.383  11.229  23.845  1.00  0.00     0.077 A 
HETATM    8  C30 UNL     1      20.487  12.067  25.127  1.00  0.00    -0.005 A 
ENDROOT
BRANCH   4   9
HETATM    9  C5  UNL     1      18.149  10.270  27.418  1.00  0.00     0.084 C 
BRANCH   9  10
HETATM   10  C6  UNL     1      16.656  10.165  27.016  1.00  0.00     0.060 C 
BRANCH  10  11
HETATM   11  N1  UNL     1      15.955   9.114  27.542  1.00  0.00    -0.402 N 
ATOM     12  H1  UNL     1      15.439   9.235  28.413  1.00  0.00     0.158 HD
BRANCH  11  13
HETATM   13  C7  UNL     1      15.942   7.820  26.863  1.00  0.00     0.118 C 
BRANCH  13  14
HETATM   14  C8  UNL     1      15.208   7.834  25.574  1.00  0.00     0.021 C 
BRANCH  14  15
HETATM   15  C9  UNL     1      16.046   7.304  24.378  1.00  0.00     0.021 C 
BRANCH  15  16
HETATM   16  C10 UNL     1      15.145   6.959  23.309  1.00  0.00     0.123 C 
BRANCH  16  17
HETATM   17  N2  UNL     1      14.977   7.767  22.148  1.00  0.00    -0.357 N 
ATOM     18  H2  UNL     1      14.262   8.490  22.078  1.00  0.00     0.163 HD
BRANCH  17  19
HETATM   19  C11 UNL     1      15.910   7.472  21.073  1.00  0.00     0.212 C 
HETATM   20  N3  UNL     1      17.011   6.802  20.847  1.00  0.00    -0.352 N 
ATOM     21  H3  UNL     1      17.238   6.101  21.552  1.00  0.00     0.163 HD
BRANCH  19  22
HETATM   22  O1  UNL     1      15.455   8.187  19.983  1.00  0.00    -0.333 OA
ATOM     23  H1  UNL     1      14.529   7.984  19.915  1.00  0.00     0.220 HD
ENDBRANCH  19  22
BRANCH  20  24
HETATM   24  C12 UNL     1      17.973   6.900  19.738  1.00  0.00     0.089 C 
HETATM   25  C13 UNL     1      19.356   7.211  20.211  1.00  0.00     0.051 C 
HETATM   26  C14 UNL     1      20.384   6.900  19.088  1.00  0.00     0.169 C 
HETATM   27  O2  UNL     1      20.395   5.580  18.740  1.00  0.00    -0.391 OA
HETATM   28  C15 UNL     1      19.316   4.880  19.217  1.00  0.00     0.169 C 
HETATM   29  C16 UNL     1      17.999   5.542  18.972  1.00  0.00     0.051 C 
ENDBRANCH  20  24
ENDBRANCH  17  19
ENDBRANCH  16  17
ENDBRANCH  15  16
ENDBRANCH  14  15
ENDBRANCH  13  14
ENDBRANCH  11  13
ENDBRANCH  10  11
ENDBRANCH   9  10
ENDBRANCH   4   9
BRANCH   8  30
HETATM   30  C31 UNL     1      21.349  13.206  24.992  1.00  0.00     0.042 C 
BRANCH  30  31
HETATM   31  C32 UNL     1      22.689  13.088  25.706  1.00  0.00     0.000 C 
HETATM   32  C33 UNL     1      23.802  13.692  24.880  1.00  0.00     0.005 C 
ENDBRANCH  30  31
ENDBRANCH   8  30
BRANCH   7  33
HETATM   33  O3  UNL     1      21.224  11.607  22.928  1.00  0.00    -0.340 OA
BRANCH  33  34
HETATM   34  C20 UNL     1      21.962  11.440  21.857  1.00  0.00     0.294 C 
BRANCH  34  35
HETATM   35  C21 UNL     1      23.091  10.390  22.326  1.00  0.00     0.316 C 
HETATM   36  O4  UNL     1      23.575  10.408  23.428  1.00  0.00    -0.255 OA
HETATM   37  N4  UNL     1      23.355   9.537  21.210  1.00  0.00    -0.369 NA
BRANCH  37  38
HETATM   38  C22 UNL     1      23.672   8.722  20.268  1.00  0.00     0.111 A 
HETATM   39  C23 UNL     1      24.117   9.166  19.004  1.00  0.00     0.045 A 
HETATM   40  C24 UNL     1      24.513   8.288  18.104  1.00  0.00     0.011 A 
HETATM   41  C25 UNL     1      24.511   6.904  18.332  1.00  0.00    -0.051 A 
HETATM   42  C28 UNL     1      24.099   6.411  19.533  1.00  0.00     0.011 A 
HETATM   43  C29 UNL     1      23.667   7.351  20.538  1.00  0.00     0.045 A 
BRANCH  41  44
HETATM   44  C26 UNL     1      24.917   5.978  17.198  1.00  0.00     0.118 C 
BRANCH  44  45
HETATM   45  C27 UNL     1      23.640   5.239  16.911  1.00  0.00     0.117 A 
HETATM   46  N5  UNL     1      22.474   5.782  16.442  1.00  0.00    -0.272 N 
HETATM   47  N6  UNL     1      21.561   4.810  16.316  1.00  0.00    -0.227 N 
ATOM     48  H5  UNL     1      22.325   6.767  16.223  1.00  0.00     0.190 HD
HETATM   49  N7  UNL     1      22.160   3.705  16.698  1.00  0.00    -0.227 N 
ATOM     50  H6  UNL     1      20.600   4.907  15.991  1.00  0.00     0.210 HD
HETATM   51  N8  UNL     1      23.417   3.930  17.064  1.00  0.00    -0.272 N 
ATOM     52  H7  UNL     1      21.715   2.787  16.711  1.00  0.00     0.210 HD
ATOM     53  H8  UNL     1      24.085   3.236  17.398  1.00  0.00     0.190 HD
ENDBRANCH  44  45
ENDBRANCH  41  44
ENDBRANCH  37  38
ENDBRANCH  34  35
ENDBRANCH  33  34
ENDBRANCH   7  33
TORSDOF 19
ENDMDL
MODEL 2
REMARK VINA RESULT: -9.069664735      1.738      2.697
REMARK  19 active torsions:
REMARK  status: ('A' for Active; 'I' for Inactive)
REMARK    1  A    between atoms: C4_4  and  C5_5 
REMARK    2  A    between atoms: C5_5  and  C6_6 
REMARK    3  A    between atoms: C6_6  and  N1_7 
REMARK    4  A    between atoms: N1_7  and  C7_9 
REMARK    5  A    between atoms: C7_9  and  C8_10 
REMARK    6  A    between atoms: C8_10  and  C9_11 
REMARK    7  A    between atoms: C9_11  and  C10_12 
REMARK    8  A    between atoms: C10_12  and  N2_13 
REMARK    9  A    between atoms: N2_13  and  C11_15 
REMARK   10  A    between atoms: C11_15  and  O1_16 
REMARK   11  A    between atoms: N3_18  and  C12_20 
REMARK   12  A    between atoms: C19_28  and  O3_29 
REMARK   13  A    between atoms: O3_29  and  C20_30 
REMARK   14  A    between atoms: C20_30  and  C21_31 
REMARK       I    between atoms: C21_31  and  N4_33 
REMARK   15  A    between atoms: N4_33  and  C22_34 
REMARK   16  A    between atoms: C25_37  and  C26_38 
REMARK   17  A    between atoms: C26_38  and  C27_39 
REMARK   18  A    between atoms: C30_50  and  C31_51 
REMARK   19  A    between atoms: C31_51  and  C32_52 
ROOT
HETATM    1  C1  UNL     1      23.247  14.479  28.472  1.00  0.00     0.018 C 
HETATM    2  C2  UNL     1      22.727  13.995  27.518  1.00  0.00    -0.077 C 
HETATM    3  C3  UNL     1      22.092  13.444  26.270  1.00  0.00     0.032 A 
HETATM    4  C4  UNL     1      20.727  13.496  26.349  1.00  0.00    -0.034 A 
HETATM    5  C17 UNL     1      20.053  13.270  25.191  1.00  0.00     0.012 A 
HETATM    6  C18 UNL     1      20.773  12.988  24.001  1.00  0.00     0.038 A 
HETATM    7  C19 UNL     1      22.115  12.931  23.944  1.00  0.00     0.077 A 
HETATM    8  C30 UNL     1      22.858  13.200  25.260  1.00  0.00    -0.005 A 
ENDROOT
BRANCH   4   9
HETATM    9  C5  UNL     1      20.040  13.490  27.693  1.00  0.00     0.084 C 
BRANCH   9  10
HETATM   10  C6  UNL     1      19.532  12.027  27.744  1.00  0.00     0.060 C 
BRANCH  10  11
HETATM   11  N1  UNL     1      18.184  11.844  27.598  1.00  0.00    -0.402 N 
ATOM     12  H1  UNL     1      17.537  12.319  28.228  1.00  0.00     0.158 HD
BRANCH  11  13
HETATM   13  C7  UNL     1      17.665  10.973  26.546  1.00  0.00     0.118 C 
BRANCH  13  14
HETATM   14  C8  UNL     1      18.602   9.892  26.156  1.00  0.00     0.021 C 
BRANCH  14  15
HETATM   15  C9  UNL     1      18.233   9.207  24.812  1.00  0.00     0.021 C 
BRANCH  15  16
HETATM   16  C10 UNL     1      19.139   9.677  23.796  1.00  0.00     0.123 C 
BRANCH  16  17
HETATM   17  N2  UNL     1      19.933   8.801  23.003  1.00  0.00    -0.357 N 
ATOM     18  H2  UNL     1      20.859   8.484  23.287  1.00  0.00     0.163 HD
BRANCH  17  19
HETATM   19  C11 UNL     1      19.311   8.397  21.752  1.00  0.00     0.212 C 
HETATM   20  N3  UNL     1      18.269   7.741  21.309  1.00  0.00    -0.352 N 
ATOM     21  H3  UNL     1      17.527   7.601  21.995  1.00  0.00     0.163 HD
BRANCH  19  22
HETATM   22  O1  UNL     1      20.158   8.843  20.758  1.00  0.00    -0.333 OA
ATOM     23  H1  UNL     1      20.798   8.151  20.639  1.00  0.00     0.220 HD
ENDBRANCH  19  22
BRANCH  20  24
HETATM   24  C12 UNL     1      17.997   7.174  19.978  1.00  0.00     0.089 C 
HETATM   25  C13 UNL     1      18.542   5.791  19.828  1.00  0.00     0.051 C 
HETATM   26  C14 UNL     1      17.891   5.094  18.601  1.00  0.00     0.169 C 
HETATM   27  O2  UNL     1      16.541   4.952  18.736  1.00  0.00    -0.391 OA
HETATM   28  C15 UNL     1      16.011   5.706  19.751  1.00  0.00     0.169 C 
HETATM   29  C16 UNL     1      16.456   7.132  19.753  1.00  0.00     0.051 C 
ENDBRANCH  20  24
ENDBRANCH  17  19
ENDBRANCH  16  17
ENDBRANCH  15  16
ENDBRANCH  14  15
ENDBRANCH  13  14
ENDBRANCH  11  13
ENDBRANCH  10  11
ENDBRANCH   9  10
ENDBRANCH   4   9
BRANCH   8  30
HETATM   30  C31 UNL     1      24.281  13.295  25.099  1.00  0.00     0.042 C 
BRANCH  30  31
HETATM   31  C32 UNL     1      25.060  12.056  25.519  1.00  0.00     0.000 C 
HETATM   32  C33 UNL     1      26.492  12.124  25.040  1.00  0.00     0.005 C 
ENDBRANCH  30  31
ENDBRANCH   8  30
BRANCH   7  33
HETATM   33  O3  UNL     1      22.920  12.669  22.957  1.00  0.00    -0.340 OA
BRANCH  33  34
HETATM   34  C20 UNL     1      23.336  11.987  21.916  1.00  0.00     0.294 C 
BRANCH  34  35
HETATM   35  C21 UNL     1      23.036  10.454  22.315  1.00  0.00     0.316 C 
HETATM   36  O4  UNL     1      22.602  10.137  23.392  1.00  0.00    -0.255 OA
HETATM   37  N4  UNL     1      23.398   9.653  21.187  1.00  0.00    -0.369 NA
BRANCH  37  38
HETATM   38  C22 UNL     1      23.698   8.843  20.236  1.00  0.00     0.111 A 
HETATM   39  C23 UNL     1      24.065   9.294  18.949  1.00  0.00     0.045 A 
HETATM   40  C24 UNL     1      24.448   8.424  18.035  1.00  0.00     0.011 A 
HETATM   41  C25 UNL     1      24.508   7.043  18.271  1.00  0.00    -0.051 A 
HETATM   42  C28 UNL     1      24.173   6.544  19.494  1.00  0.00     0.011 A 
HETATM   43  C29 UNL     1      23.756   7.475  20.514  1.00  0.00     0.045 A 
BRANCH  41  44
HETATM   44  C26 UNL     1      24.892   6.124  17.124  1.00  0.00     0.118 C 
BRANCH  44  45
HETATM   45  C27 UNL     1      23.620   5.361  16.881  1.00  0.00     0.117 A 
HETATM   46  N5  UNL     1      22.419   5.886  16.483  1.00  0.00    -0.272 N 
HETATM   47  N6  UNL     1      21.525   4.895  16.377  1.00  0.00    -0.227 N 
ATOM     48  H5  UNL     1      22.237   6.872  16.297  1.00  0.00     0.190 HD
HETATM   49  N7  UNL     1      22.168   3.796  16.701  1.00  0.00    -0.227 N 
ATOM     50  H6  UNL     1      20.546   4.977  16.102  1.00  0.00     0.210 HD
HETATM   51  N8  UNL     1      23.436   4.043  17.011  1.00  0.00    -0.272 N 
ATOM     52  H7  UNL     1      21.746   2.867  16.713  1.00  0.00     0.210 HD
ATOM     53  H8  UNL     1      24.136   3.358  17.294  1.00  0.00     0.190 HD
ENDBRANCH  44  45
ENDBRANCH  41  44
ENDBRANCH  37  38
ENDBRANCH  34  35
ENDBRANCH  33  34
ENDBRANCH   7  33
TORSDOF 19
ENDMDL
MODEL 3
REMARK VINA RESULT: -8.794978120      2.607      8.799
REMARK  19 active torsions:
REMARK  status: ('A' for Active; 'I' for Inactive)
REMARK    1  A    between atoms: C4_4  and  C5_5 
REMARK    2  A    between atoms: C5_5  and  C6_6 
REMARK    3  A    between atoms: C6_6  and  N1_7 
REMARK    4  A    between atoms: N1_7  and  C7_9 
REMARK    5  A    between atoms: C7_9  and  C8_10 
REMARK    6  A    between atoms: C8_10  and  C9_11 
REMARK    7  A    between atoms: C9_11  and  C10_12 
REMARK    8  A    between atoms: C10_12  and  N2_13 
REMARK    9  A    between atoms: N2_13  and  C11_15 
REMARK   10  A    between atoms: C11_15  and  O1_16 
REMARK   11  A    between atoms: N3_18  and  C12_20 
REMARK   12  A    between atoms: C19_28  and  O3_29 
REMARK   13  A    between atoms: O3_29  and  C20_30 
REMARK   14  A    between atoms: C20_30  and  C21_31 
REMARK       I    between atoms: C21_31  and  N4_33 
REMARK   15  A    between atoms: N4_33  and  C22_34 
REMARK   16  A    between atoms: C25_37  and  C26_38 
REMARK   17  A    between atoms: C26_38  and  C27_39 
REMARK   18  A    between atoms: C30_50  and  C31_51 
REMARK   19  A    between atoms: C31_51  and  C32_52 
ROOT
HETATM    1  C1  UNL     1      14.854   6.350  20.585  1.00  0.00     0.018 C 
HETATM    2  C2  UNL     1      15.745   6.696  21.293  1.00  0.00    -0.077 C 
HETATM    3  C3  UNL     1      16.825   7.185  22.220  1.00  0.00     0.032 A 
HETATM    4  C4  UNL     1      17.775   7.895  21.538  1.00  0.00    -0.034 A 
HETATM    5  C17 UNL     1      18.653   8.600  22.297  1.00  0.00     0.012 A 
HETATM    6  C18 UNL     1      18.554   8.556  23.713  1.00  0.00     0.038 A 
HETATM    7  C19 UNL     1      17.620   7.844  24.366  1.00  0.00     0.077 A 
HETATM    8  C30 UNL     1      16.630   7.064  23.490  1.00  0.00    -0.005 A 
ENDROOT
BRANCH   4   9
HETATM    9  C5  UNL     1      18.005   7.643  20.067  1.00  0.00     0.084 C 
BRANCH   9  10
HETATM   10  C6  UNL     1      19.483   7.178  20.088  1.00  0.00     0.060 C 
BRANCH  10  11
HETATM   11  N1  UNL     1      19.722   5.888  19.702  1.00  0.00    -0.402 N 
ATOM     12  H1  UNL     1      20.676   5.526  19.705  1.00  0.00     0.158 HD
BRANCH  11  13
HETATM   13  C7  UNL     1      18.620   5.024  19.285  1.00  0.00     0.118 C 
BRANCH  13  14
HETATM   14  C8  UNL     1      18.763   4.509  17.901  1.00  0.00     0.021 C 
BRANCH  14  15
HETATM   15  C9  UNL     1      19.958   3.533  17.723  1.00  0.00     0.021 C 
BRANCH  15  16
HETATM   16  C10 UNL     1      20.902   4.129  16.814  1.00  0.00     0.123 C 
BRANCH  16  17
HETATM   17  N2  UNL     1      22.259   3.707  16.721  1.00  0.00    -0.357 N 
ATOM     18  H2  UNL     1      22.526   2.768  16.425  1.00  0.00     0.163 HD
BRANCH  17  19
HETATM   19  C11 UNL     1      23.230   4.726  17.084  1.00  0.00     0.212 C 
HETATM   20  N3  UNL     1      23.577   5.472  18.102  1.00  0.00    -0.352 N 
ATOM     21  H3  UNL     1      23.214   5.163  19.004  1.00  0.00     0.163 HD
BRANCH  19  22
HETATM   22  O1  UNL     1      23.960   4.965  15.938  1.00  0.00    -0.333 OA
ATOM     23  H1  UNL     1      23.550   5.718  15.528  1.00  0.00     0.220 HD
ENDBRANCH  19  22
BRANCH  20  24
HETATM   24  C12 UNL     1      24.408   6.686  18.152  1.00  0.00     0.089 C 
HETATM   25  C13 UNL     1      23.670   7.898  17.684  1.00  0.00     0.051 C 
HETATM   26  C14 UNL     1      24.421   9.182  18.133  1.00  0.00     0.169 C 
HETATM   27  O2  UNL     1      24.500   9.293  19.491  1.00  0.00    -0.391 OA
HETATM   28  C15 UNL     1      24.186   8.134  20.153  1.00  0.00     0.169 C 
HETATM   29  C16 UNL     1      24.873   6.919  19.621  1.00  0.00     0.051 C 
ENDBRANCH  20  24
ENDBRANCH  17  19
ENDBRANCH  16  17
ENDBRANCH  15  16
ENDBRANCH  14  15
ENDBRANCH  13  14
ENDBRANCH  11  13
ENDBRANCH  10  11
ENDBRANCH   9  10
ENDBRANCH   4   9
BRANCH   8  30
HETATM   30  C31 UNL     1      15.559   6.467  24.236  1.00  0.00     0.042 C 
BRANCH  30  31
HETATM   31  C32 UNL     1      14.340   7.359  24.436  1.00  0.00     0.000 C 
HETATM   32  C33 UNL     1      13.082   6.678  23.948  1.00  0.00     0.005 C 
ENDBRANCH  30  31
ENDBRANCH   8  30
BRANCH   7  33
HETATM   33  O3  UNL     1      17.403   7.679  25.638  1.00  0.00    -0.340 OA
BRANCH  33  34
HETATM   34  C20 UNL     1      17.461   8.019  26.903  1.00  0.00     0.294 C 
BRANCH  34  35
HETATM   35  C21 UNL     1      16.777   9.479  26.941  1.00  0.00     0.316 C 
HETATM   36  O4  UNL     1      15.596   9.637  27.106  1.00  0.00    -0.255 OA
HETATM   37  N4  UNL     1      17.821  10.432  26.730  1.00  0.00    -0.369 NA
BRANCH  37  38
HETATM   38  C22 UNL     1      18.681  11.368  26.542  1.00  0.00     0.111 A 
HETATM   39  C23 UNL     1      19.243  11.633  25.274  1.00  0.00     0.045 A 
HETATM   40  C24 UNL     1      20.054  12.661  25.119  1.00  0.00     0.011 A 
HETATM   41  C25 UNL     1      20.404  13.524  26.167  1.00  0.00    -0.051 A 
HETATM   42  C28 UNL     1      19.891  13.327  27.414  1.00  0.00     0.011 A 
HETATM   43  C29 UNL     1      18.996  12.214  27.609  1.00  0.00     0.045 A 
BRANCH  41  44
HETATM   44  C26 UNL     1      21.405  14.634  25.893  1.00  0.00     0.118 C 
BRANCH  44  45
HETATM   45  C27 UNL     1      22.405  13.953  24.999  1.00  0.00     0.117 A 
HETATM   46  N5  UNL     1      22.680  14.272  23.696  1.00  0.00    -0.272 N 
HETATM   47  N6  UNL     1      23.623  13.441  23.235  1.00  0.00    -0.227 N 
ATOM     48  H5  UNL     1      22.238  15.021  23.163  1.00  0.00     0.190 HD
HETATM   49  N7  UNL     1      23.915  12.640  24.234  1.00  0.00    -0.227 N 
ATOM     50  H6  UNL     1      24.032  13.432  22.300  1.00  0.00     0.210 HD
HETATM   51  N8  UNL     1      23.195  12.923  25.315  1.00  0.00    -0.272 N 
ATOM     52  H7  UNL     1      24.607  11.893  24.187  1.00  0.00     0.210 HD
ATOM     53  H8  UNL     1      23.239  12.445  26.215  1.00  0.00     0.190 HD
ENDBRANCH  44  45
ENDBRANCH  41  44
ENDBRANCH  37  38
ENDBRANCH  34  35
ENDBRANCH  33  34
ENDBRANCH   7  33
TORSDOF 19
ENDMDL
MODEL 4
REMARK VINA RESULT: -8.789715890      1.720      2.902
REMARK  19 active torsions:
REMARK  status: ('A' for Active; 'I' for Inactive)
REMARK    1  A    between atoms: C4_4  and  C5_5 
REMARK    2  A    between atoms: C5_5  and  C6_6 
REMARK    3  A    between atoms: C6_6  and  N1_7 
REMARK    4  A    between atoms: N1_7  and  C7_9 
REMARK    5  A    between atoms: C7_9  and  C8_10 
REMARK    6  A    between atoms: C8_10  and  C9_11 
REMARK    7  A    between atoms: C9_11  and  C10_12 
REMARK    8  A    between atoms: C10_12  and  N2_13 
REMARK    9  A    between atoms: N2_13  and  C11_15 
REMARK   10  A    between atoms: C11_15  and  O1_16 
REMARK   11  A    between atoms: N3_18  and  C12_20 
REMARK   12  A    between atoms: C19_28  and  O3_29 
REMARK   13  A    between atoms: O3_29  and  C20_30 
REMARK   14  A    between atoms: C20_30  and  C21_31 
REMARK       I    between atoms: C21_31  and  N4_33 
REMARK   15  A    between atoms: N4_33  and  C22_34 
REMARK   16  A    between atoms: C25_37  and  C26_38 
REMARK   17  A    between atoms: C26_38  and  C27_39 
REMARK   18  A    between atoms: C30_50  and  C31_51 
REMARK   19  A    between atoms: C31_51  and  C32_52 
ROOT
HETATM    1  C1  UNL     1      16.697  11.003  27.264  1.00  0.00     0.018 C 
HETATM    2  C2  UNL     1      17.490  10.593  26.479  1.00  0.00    -0.077 C 
HETATM    3  C3  UNL     1      18.472  10.128  25.437  1.00  0.00     0.032 A 
HETATM    4  C4  UNL     1      18.083   8.937  24.890  1.00  0.00    -0.034 A 
HETATM    5  C17 UNL     1      18.744   8.550  23.768  1.00  0.00     0.012 A 
HETATM    6  C18 UNL     1      19.780   9.368  23.245  1.00  0.00     0.038 A 
HETATM    7  C19 UNL     1      20.157  10.531  23.802  1.00  0.00     0.077 A 
HETATM    8  C30 UNL     1      19.389  10.955  25.062  1.00  0.00    -0.005 A 
ENDROOT
BRANCH   4   9
HETATM    9  C5  UNL     1      17.203   7.990  25.672  1.00  0.00     0.084 C 
BRANCH   9  10
HETATM   10  C6  UNL     1      16.962   6.888  24.610  1.00  0.00     0.060 C 
BRANCH  10  11
HETATM   11  N1  UNL     1      15.693   6.384  24.532  1.00  0.00    -0.402 N 
ATOM     12  H1  UNL     1      15.468   5.502  24.993  1.00  0.00     0.158 HD
BRANCH  11  13
HETATM   13  C7  UNL     1      14.656   7.101  23.792  1.00  0.00     0.118 C 
BRANCH  13  14
HETATM   14  C8  UNL     1      14.730   6.900  22.324  1.00  0.00     0.021 C 
BRANCH  14  15
HETATM   15  C9  UNL     1      15.461   8.049  21.577  1.00  0.00     0.021 C 
BRANCH  15  16
HETATM   16  C10 UNL     1      15.931   7.544  20.313  1.00  0.00     0.123 C 
BRANCH  16  17
HETATM   17  N2  UNL     1      17.288   7.649  19.895  1.00  0.00    -0.357 N 
ATOM     18  H2  UNL     1      17.809   8.524  19.923  1.00  0.00     0.163 HD
BRANCH  17  19
HETATM   19  C11 UNL     1      17.867   6.401  19.424  1.00  0.00     0.212 C 
HETATM   20  N3  UNL     1      17.688   5.108  19.514  1.00  0.00    -0.352 N 
ATOM     21  H3  UNL     1      16.770   4.825  19.856  1.00  0.00     0.163 HD
BRANCH  19  22
HETATM   22  O1  UNL     1      18.976   6.764  18.686  1.00  0.00    -0.333 OA
ATOM     23  H1  UNL     1      19.707   6.308  19.086  1.00  0.00     0.220 HD
ENDBRANCH  19  22
BRANCH  20  24
HETATM   24  C12 UNL     1      18.602   3.997  19.202  1.00  0.00     0.089 C 
HETATM   25  C13 UNL     1      18.512   2.889  20.201  1.00  0.00     0.051 C 
HETATM   26  C14 UNL     1      19.161   1.601  19.624  1.00  0.00     0.169 C 
HETATM   27  O2  UNL     1      18.523   1.149  18.506  1.00  0.00    -0.391 OA
HETATM   28  C15 UNL     1      17.662   2.067  17.960  1.00  0.00     0.169 C 
HETATM   29  C16 UNL     1      18.245   3.432  17.794  1.00  0.00     0.051 C 
ENDBRANCH  20  24
ENDBRANCH  17  19
ENDBRANCH  16  17
ENDBRANCH  15  16
ENDBRANCH  14  15
ENDBRANCH  13  14
ENDBRANCH  11  13
ENDBRANCH  10  11
ENDBRANCH   9  10
ENDBRANCH   4   9
BRANCH   8  30
HETATM   30  C31 UNL     1      19.718  12.280  25.507  1.00  0.00     0.042 C 
BRANCH  30  31
HETATM   31  C32 UNL     1      20.497  12.345  26.814  1.00  0.00     0.000 C 
HETATM   32  C33 UNL     1      19.806  13.240  27.816  1.00  0.00     0.005 C 
ENDBRANCH  30  31
ENDBRANCH   8  30
BRANCH   7  33
HETATM   33  O3  UNL     1      21.085  11.379  23.469  1.00  0.00    -0.340 OA
BRANCH  33  34
HETATM   34  C20 UNL     1      21.997  11.885  22.674  1.00  0.00     0.294 C 
BRANCH  34  35
HETATM   35  C21 UNL     1      23.250  10.883  22.836  1.00  0.00     0.316 C 
HETATM   36  O4  UNL     1      24.048  10.983  23.731  1.00  0.00    -0.255 OA
HETATM   37  N4  UNL     1      23.184   9.957  21.749  1.00  0.00    -0.369 NA
BRANCH  37  38
HETATM   38  C22 UNL     1      23.222   9.082  20.809  1.00  0.00     0.111 A 
HETATM   39  C23 UNL     1      22.259   8.056  20.694  1.00  0.00     0.045 A 
HETATM   40  C24 UNL     1      22.294   7.238  19.661  1.00  0.00     0.011 A 
HETATM   41  C25 UNL     1      23.260   7.326  18.648  1.00  0.00    -0.051 A 
HETATM   42  C28 UNL     1      24.213   8.298  18.696  1.00  0.00     0.011 A 
HETATM   43  C29 UNL     1      24.194   9.210  19.812  1.00  0.00     0.045 A 
BRANCH  41  44
HETATM   44  C26 UNL     1      23.252   6.285  17.541  1.00  0.00     0.118 C 
BRANCH  44  45
HETATM   45  C27 UNL     1      21.912   6.508  16.897  1.00  0.00     0.117 A 
HETATM   46  N5  UNL     1      21.034   5.540  16.489  1.00  0.00    -0.272 N 
HETATM   47  N6  UNL     1      19.952   6.128  15.961  1.00  0.00    -0.227 N 
ATOM     48  H5  UNL     1      21.180   4.535  16.573  1.00  0.00     0.190 HD
HETATM   49  N7  UNL     1      20.169   7.421  16.049  1.00  0.00    -0.227 N 
ATOM     50  H6  UNL     1      19.130   5.668  15.571  1.00  0.00     0.210 HD
HETATM   51  N8  UNL     1      21.344   7.684  16.610  1.00  0.00    -0.272 N 
ATOM     52  H7  UNL     1      19.515   8.135  15.727  1.00  0.00     0.210 HD
ATOM     53  H8  UNL     1      21.738   8.607  16.788  1.00  0.00     0.190 HD
ENDBRANCH  44  45
ENDBRANCH  41  44
ENDBRANCH  37  38
ENDBRANCH  34  35
ENDBRANCH  33  34
ENDBRANCH   7  33
TORSDOF 19
ENDMDL
MODEL 5
REMARK VINA RESULT: -8.715873335      2.819      8.523
REMARK  19 active torsions:
REMARK  status: ('A' for Active; 'I' for Inactive)
REMARK    1  A    between atoms: C4_4  and  C5_5 
REMARK    2  A    between atoms: C5_5  and  C6_6 
REMARK    3  A    between atoms: C6_6  and  N1_7 
REMARK    4  A    between atoms: N1_7  and  C7_9 
REMARK    5  A    between atoms: C7_9  and  C8_10 
REMARK    6  A    between atoms: C8_10  and  C9_11 
REMARK    7  A    between atoms: C9_11  and  C10_12 
REMARK    8  A    between atoms: C10_12  and  N2_13 
REMARK    9  A    between atoms: N2_13  and  C11_15 
REMARK   10  A    between atoms: C11_15  and  O1_16 
REMARK   11  A    between atoms: N3_18  and  C12_20 
REMARK   12  A    between atoms: C19_28  and  O3_29 
REMARK   13  A    between atoms: O3_29  and  C20_30 
REMARK   14  A    between atoms: C20_30  and  C21_31 
REMARK       I    between atoms: C21_31  and  N4_33 
REMARK   15  A    between atoms: N4_33  and  C22_34 
REMARK   16  A    between atoms: C25_37  and  C26_38 
REMARK   17  A    between atoms: C26_38  and  C27_39 
REMARK   18  A    between atoms: C30_50  and  C31_51 
REMARK   19  A    between atoms: C31_51  and  C32_52 
ROOT
HETATM    1  C1  UNL     1      20.154   8.351  21.372  1.00  0.00     0.018 C 
HETATM    2  C2  UNL     1      19.198   8.209  22.066  1.00  0.00    -0.077 C 
HETATM    3  C3  UNL     1      18.033   8.000  22.996  1.00  0.00     0.032 A 
HETATM    4  C4  UNL     1      17.230   6.983  22.558  1.00  0.00    -0.034 A 
HETATM    5  C17 UNL     1      16.301   6.534  23.440  1.00  0.00     0.012 A 
HETATM    6  C18 UNL     1      16.204   7.130  24.726  1.00  0.00     0.038 A 
HETATM    7  C19 UNL     1      16.996   8.135  25.136  1.00  0.00     0.077 A 
HETATM    8  C30 UNL     1      18.047   8.621  24.127  1.00  0.00    -0.005 A 
ENDROOT
BRANCH   4   9
HETATM    9  C5  UNL     1      17.187   6.624  21.092  1.00  0.00     0.084 C 
BRANCH   9  10
HETATM   10  C6  UNL     1      17.816   5.208  21.131  1.00  0.00     0.060 C 
BRANCH  10  11
HETATM   11  N1  UNL     1      18.825   4.965  20.240  1.00  0.00    -0.402 N 
ATOM     12  H1  UNL     1      19.669   4.481  20.549  1.00  0.00     0.158 HD
BRANCH  11  13
HETATM   13  C7  UNL     1      18.703   5.393  18.848  1.00  0.00     0.118 C 
BRANCH  13  14
HETATM   14  C8  UNL     1      19.954   5.962  18.291  1.00  0.00     0.021 C 
BRANCH  14  15
HETATM   15  C9  UNL     1      20.331   5.387  16.899  1.00  0.00     0.021 C 
BRANCH  15  16
HETATM   16  C10 UNL     1      20.958   4.104  17.090  1.00  0.00     0.123 C 
BRANCH  16  17
HETATM   17  N2  UNL     1      22.289   3.824  16.669  1.00  0.00    -0.357 N 
ATOM     18  H2  UNL     1      22.541   2.979  16.157  1.00  0.00     0.163 HD
BRANCH  17  19
HETATM   19  C11 UNL     1      23.259   4.845  17.032  1.00  0.00     0.212 C 
HETATM   20  N3  UNL     1      23.674   5.516  18.076  1.00  0.00    -0.352 N 
ATOM     21  H3  UNL     1      23.402   5.122  18.976  1.00  0.00     0.163 HD
BRANCH  19  22
HETATM   22  O1  UNL     1      23.877   5.203  15.851  1.00  0.00    -0.333 OA
ATOM     23  H1  UNL     1      23.267   5.783  15.411  1.00  0.00     0.220 HD
ENDBRANCH  19  22
BRANCH  20  24
HETATM   24  C12 UNL     1      24.471   6.751  18.156  1.00  0.00     0.089 C 
HETATM   25  C13 UNL     1      23.702   7.953  17.712  1.00  0.00     0.051 C 
HETATM   26  C14 UNL     1      24.416   9.247  18.194  1.00  0.00     0.169 C 
HETATM   27  O2  UNL     1      24.487   9.329  19.554  1.00  0.00    -0.391 OA
HETATM   28  C15 UNL     1      24.202   8.147  20.188  1.00  0.00     0.169 C 
HETATM   29  C16 UNL     1      24.924   6.964  19.632  1.00  0.00     0.051 C 
ENDBRANCH  20  24
ENDBRANCH  17  19
ENDBRANCH  16  17
ENDBRANCH  15  16
ENDBRANCH  14  15
ENDBRANCH  13  14
ENDBRANCH  11  13
ENDBRANCH  10  11
ENDBRANCH   9  10
ENDBRANCH   4   9
BRANCH   8  30
HETATM   30  C31 UNL     1      18.968   9.572  24.682  1.00  0.00     0.042 C 
BRANCH  30  31
HETATM   31  C32 UNL     1      18.739  11.015  24.253  1.00  0.00     0.000 C 
HETATM   32  C33 UNL     1      20.049  11.750  24.092  1.00  0.00     0.005 C 
ENDBRANCH  30  31
ENDBRANCH   8  30
BRANCH   7  33
HETATM   33  O3  UNL     1      17.028   8.800  26.254  1.00  0.00    -0.340 OA
BRANCH  33  34
HETATM   34  C20 UNL     1      16.493   9.419  27.279  1.00  0.00     0.294 C 
BRANCH  34  35
HETATM   35  C21 UNL     1      17.653   9.384  28.398  1.00  0.00     0.316 C 
HETATM   36  O4  UNL     1      17.669   8.577  29.290  1.00  0.00    -0.255 OA
HETATM   37  N4  UNL     1      18.550  10.458  28.100  1.00  0.00    -0.369 NA
BRANCH  37  38
HETATM   38  C22 UNL     1      19.411  11.395  27.926  1.00  0.00     0.111 A 
HETATM   39  C23 UNL     1      20.800  11.179  28.061  1.00  0.00     0.045 A 
HETATM   40  C24 UNL     1      21.644  12.153  27.785  1.00  0.00     0.011 A 
HETATM   41  C25 UNL     1      21.233  13.425  27.361  1.00  0.00    -0.051 A 
HETATM   42  C28 UNL     1      19.907  13.696  27.204  1.00  0.00     0.011 A 
HETATM   43  C29 UNL     1      18.962  12.646  27.493  1.00  0.00     0.045 A 
BRANCH  41  44
HETATM   44  C26 UNL     1      22.287  14.496  27.142  1.00  0.00     0.118 C 
BRANCH  44  45
HETATM   45  C27 UNL     1      22.782  14.185  25.757  1.00  0.00     0.117 A 
HETATM   46  N5  UNL     1      22.179  14.537  24.579  1.00  0.00    -0.272 N 
HETATM   47  N6  UNL     1      22.916  14.079  23.559  1.00  0.00    -0.227 N 
ATOM     48  H5  UNL     1      21.309  15.063  24.494  1.00  0.00     0.190 HD
HETATM   49  N7  UNL     1      23.942  13.466  24.105  1.00  0.00    -0.227 N 
ATOM     50  H6  UNL     1      22.721  14.184  22.564  1.00  0.00     0.210 HD
HETATM   51  N8  UNL     1      23.891  13.512  25.432  1.00  0.00    -0.272 N 
ATOM     52  H7  UNL     1      24.686  13.011  23.576  1.00  0.00     0.210 HD
ATOM     53  H8  UNL     1      24.568  13.110  26.079  1.00  0.00     0.190 HD
ENDBRANCH  44  45
ENDBRANCH  41  44
ENDBRANCH  37  38
ENDBRANCH  34  35
ENDBRANCH  33  34
ENDBRANCH   7  33
TORSDOF 19
ENDMDL
