MODEL 1
REMARK VINA RESULT: -7.878366429      0.000      0.000
REMARK  4 active torsions:
REMARK  status: ('A' for Active; 'I' for Inactive)
REMARK    1  A    between atoms: O1_2  and  C2_3 
REMARK    2  A    between atoms: C8_10  and  O2_11 
REMARK    3  A    between atoms: N3_19  and  O5_20 
REMARK    4  A    between atoms: O5_20  and  N4_21 
ROOT
HETATM    1  C2  UNL     1      90.352  65.379  19.911  1.00  0.00     0.103 A 
HETATM    2  C3  UNL     1      89.552  64.437  19.312  1.00  0.00     0.064 A 
HETATM    3  C4  UNL     1      88.630  64.730  18.305  1.00  0.00     0.077 A 
HETATM    4  C5  UNL     1      87.832  63.675  17.737  1.00  0.00     0.102 C 
HETATM    5  N1  UNL     1      87.198  62.790  17.295  1.00  0.00    -0.191 NA
HETATM    6  C6  UNL     1      88.519  66.009  17.895  1.00  0.00     0.109 A 
HETATM    7  C7  UNL     1      89.308  66.982  18.474  1.00  0.00     0.099 A 
HETATM    8  C8  UNL     1      90.204  66.671  19.460  1.00  0.00     0.117 A 
HETATM    9  C9  UNL     1      89.210  68.301  18.070  1.00  0.00     0.265 A 
HETATM   10  O3  UNL     1      89.943  69.196  18.609  1.00  0.00    -0.267 OA
HETATM   11  N2  UNL     1      88.334  68.591  17.109  1.00  0.00    -0.273 N 
ATOM     12  H2  UNL     1      88.236  69.554  16.788  1.00  0.00     0.173 HD
HETATM   13  C10 UNL     1      87.582  67.633  16.565  1.00  0.00     0.356 A 
HETATM   14  O4  UNL     1      86.770  68.005  15.651  1.00  0.00    -0.244 OA
HETATM   15  N3  UNL     1      87.651  66.341  16.935  1.00  0.00    -0.143 N 
ENDROOT
BRANCH   1  16
HETATM   16  O1  UNL     1      91.230  65.024  20.889  1.00  0.00    -0.353 OA
HETATM   17  C1  UNL     1      92.457  64.396  20.724  1.00  0.00     0.210 C 
ENDBRANCH   1  16
BRANCH  15  18
HETATM   18  O5  UNL     1      86.833  65.481  16.300  1.00  0.00    -0.152 OA
BRANCH  18  19
HETATM   19  N4  UNL     1      86.976  65.107  14.996  1.00  0.00    -0.285 N 
ATOM     20  H42 UNL     1      86.153  65.194  14.400  1.00  0.00     0.186 HD
ATOM     21  H41 UNL     1      87.842  64.752  14.593  1.00  0.00     0.186 HD
ENDBRANCH  18  19
ENDBRANCH  15  18
BRANCH   8  22
HETATM   22  O2  UNL     1      90.977  67.674  20.016  1.00  0.00    -0.357 OA
ATOM     23  H2  UNL     1      90.668  68.121  20.795  1.00  0.00     0.217 HD
ENDBRANCH   8  22
TORSDOF 4
ENDMDL
MODEL 2
REMARK VINA RESULT: -7.426425125      2.256      4.385
REMARK  4 active torsions:
REMARK  status: ('A' for Active; 'I' for Inactive)
REMARK    1  A    between atoms: O1_2  and  C2_3 
REMARK    2  A    between atoms: C8_10  and  O2_11 
REMARK    3  A    between atoms: N3_19  and  O5_20 
REMARK    4  A    between atoms: O5_20  and  N4_21 
ROOT
HETATM    1  C2  UNL     1      87.772  64.589  17.749  1.00  0.00     0.103 A 
HETATM    2  C3  UNL     1      88.712  64.273  18.698  1.00  0.00     0.064 A 
HETATM    3  C4  UNL     1      89.670  65.173  19.171  1.00  0.00     0.077 A 
HETATM    4  C5  UNL     1      90.617  64.750  20.168  1.00  0.00     0.102 C 
HETATM    5  N1  UNL     1      91.376  64.372  20.982  1.00  0.00    -0.191 NA
HETATM    6  C6  UNL     1      89.672  66.424  18.669  1.00  0.00     0.109 A 
HETATM    7  C7  UNL     1      88.740  66.777  17.713  1.00  0.00     0.099 A 
HETATM    8  C8  UNL     1      87.812  65.878  17.265  1.00  0.00     0.117 A 
HETATM    9  C9  UNL     1      88.723  68.055  17.184  1.00  0.00     0.265 A 
HETATM   10  O3  UNL     1      87.859  68.374  16.301  1.00  0.00    -0.267 OA
HETATM   11  N2  UNL     1      89.633  68.921  17.628  1.00  0.00    -0.273 N 
ATOM     12  H2  UNL     1      89.649  69.871  17.258  1.00  0.00     0.173 HD
HETATM   13  C10 UNL     1      90.523  68.556  18.552  1.00  0.00     0.356 A 
HETATM   14  O4  UNL     1      91.356  69.453  18.918  1.00  0.00    -0.244 OA
HETATM   15  N3  UNL     1      90.567  67.322  19.088  1.00  0.00    -0.143 N 
ENDROOT
BRANCH   1  16
HETATM   16  O1  UNL     1      86.866  63.661  17.332  1.00  0.00    -0.353 OA
HETATM   17  C1  UNL     1      87.128  62.361  16.923  1.00  0.00     0.210 C 
ENDBRANCH   1  16
BRANCH  15  18
HETATM   18  O5  UNL     1      91.520  67.092  20.011  1.00  0.00    -0.152 OA
BRANCH  18  19
HETATM   19  N4  UNL     1      92.859  67.141  19.760  1.00  0.00    -0.285 N 
ATOM     20  H42 UNL     1      93.381  67.903  20.195  1.00  0.00     0.186 HD
ATOM     21  H41 UNL     1      93.357  66.473  19.173  1.00  0.00     0.186 HD
ENDBRANCH  18  19
ENDBRANCH  15  18
BRANCH   8  22
HETATM   22  O2  UNL     1      86.894  66.269  16.307  1.00  0.00    -0.357 OA
ATOM     23  H2  UNL     1      86.189  66.856  16.552  1.00  0.00     0.217 HD
ENDBRANCH   8  22
TORSDOF 4
ENDMDL
MODEL 3
REMARK VINA RESULT: -7.249611261      1.978      4.450
REMARK  4 active torsions:
REMARK  status: ('A' for Active; 'I' for Inactive)
REMARK    1  A    between atoms: O1_2  and  C2_3 
REMARK    2  A    between atoms: C8_10  and  O2_11 
REMARK    3  A    between atoms: N3_19  and  O5_20 
REMARK    4  A    between atoms: O5_20  and  N4_21 
ROOT
HETATM    1  C2  UNL     1      87.384  64.048  17.050  1.00  0.00     0.103 A 
HETATM    2  C3  UNL     1      88.331  63.841  18.023  1.00  0.00     0.064 A 
HETATM    3  C4  UNL     1      89.084  64.866  18.602  1.00  0.00     0.077 A 
HETATM    4  C5  UNL     1      90.056  64.553  19.617  1.00  0.00     0.102 C 
HETATM    5  N1  UNL     1      90.841  64.263  20.442  1.00  0.00    -0.191 NA
HETATM    6  C6  UNL     1      88.869  66.129  18.184  1.00  0.00     0.109 A 
HETATM    7  C7  UNL     1      87.924  66.373  17.208  1.00  0.00     0.099 A 
HETATM    8  C8  UNL     1      87.199  65.354  16.655  1.00  0.00     0.117 A 
HETATM    9  C9  UNL     1      87.687  67.662  16.763  1.00  0.00     0.265 A 
HETATM   10  O3  UNL     1      86.813  67.880  15.861  1.00  0.00    -0.267 OA
HETATM   11  N2  UNL     1      88.400  68.646  17.309  1.00  0.00    -0.273 N 
ATOM     12  H2  UNL     1      88.251  69.608  17.004  1.00  0.00     0.173 HD
HETATM   13  C10 UNL     1      89.308  68.385  18.252  1.00  0.00     0.356 A 
HETATM   14  O4  UNL     1      89.942  69.391  18.717  1.00  0.00    -0.244 OA
HETATM   15  N3  UNL     1      89.563  67.144  18.707  1.00  0.00    -0.143 N 
ENDROOT
BRANCH   1  16
HETATM   16  O1  UNL     1      86.686  63.002  16.528  1.00  0.00    -0.353 OA
HETATM   17  C1  UNL     1      85.315  62.931  16.320  1.00  0.00     0.210 C 
ENDBRANCH   1  16
BRANCH  15  18
HETATM   18  O5  UNL     1      90.506  67.027  19.660  1.00  0.00    -0.152 OA
BRANCH  18  19
HETATM   19  N4  UNL     1      91.812  67.383  19.495  1.00  0.00    -0.285 N 
ATOM     20  H42 UNL     1      92.471  66.632  19.290  1.00  0.00     0.186 HD
ATOM     21  H41 UNL     1      92.159  68.339  19.565  1.00  0.00     0.186 HD
ENDBRANCH  18  19
ENDBRANCH  15  18
BRANCH   8  22
HETATM   22  O2  UNL     1      86.261  65.638  15.679  1.00  0.00    -0.357 OA
ATOM     23  H2  UNL     1      86.173  66.530  15.366  1.00  0.00     0.217 HD
ENDBRANCH   8  22
TORSDOF 4
ENDMDL
MODEL 4
REMARK VINA RESULT: -7.115835108      2.930      4.907
REMARK  4 active torsions:
REMARK  status: ('A' for Active; 'I' for Inactive)
REMARK    1  A    between atoms: O1_2  and  C2_3 
REMARK    2  A    between atoms: C8_10  and  O2_11 
REMARK    3  A    between atoms: N3_19  and  O5_20 
REMARK    4  A    between atoms: O5_20  and  N4_21 
ROOT
HETATM    1  C2  UNL     1      88.270  66.453  17.775  1.00  0.00     0.103 A 
HETATM    2  C3  UNL     1      88.901  65.607  18.654  1.00  0.00     0.064 A 
HETATM    3  C4  UNL     1      90.212  65.790  19.100  1.00  0.00     0.077 A 
HETATM    4  C5  UNL     1      90.791  64.848  20.023  1.00  0.00     0.102 C 
HETATM    5  N1  UNL     1      91.232  64.061  20.775  1.00  0.00    -0.191 NA
HETATM    6  C6  UNL     1      90.898  66.857  18.644  1.00  0.00     0.109 A 
HETATM    7  C7  UNL     1      90.295  67.728  17.760  1.00  0.00     0.099 A 
HETATM    8  C8  UNL     1      89.009  67.529  17.337  1.00  0.00     0.117 A 
HETATM    9  C9  UNL     1      90.979  68.829  17.279  1.00  0.00     0.265 A 
HETATM   10  O3  UNL     1      90.416  69.631  16.462  1.00  0.00    -0.267 OA
HETATM   11  N2  UNL     1      92.231  69.012  17.698  1.00  0.00    -0.273 N 
ATOM     12  H2  UNL     1      92.764  69.814  17.363  1.00  0.00     0.173 HD
HETATM   13  C10 UNL     1      92.792  68.156  18.553  1.00  0.00     0.356 A 
HETATM   14  O4  UNL     1      93.994  68.412  18.900  1.00  0.00    -0.244 OA
HETATM   15  N3  UNL     1      92.154  67.075  19.041  1.00  0.00    -0.143 N 
ENDROOT
BRANCH   1  16
HETATM   16  O1  UNL     1      86.988  66.215  17.381  1.00  0.00    -0.353 OA
HETATM   17  C1  UNL     1      86.572  65.401  16.337  1.00  0.00     0.210 C 
ENDBRANCH   1  16
BRANCH  15  18
HETATM   18  O5  UNL     1      92.843  66.296  19.896  1.00  0.00    -0.152 OA
BRANCH  18  19
HETATM   19  N4  UNL     1      93.255  66.694  21.133  1.00  0.00    -0.285 N 
ATOM     20  H42 UNL     1      93.675  67.621  21.203  1.00  0.00     0.186 HD
ATOM     21  H41 UNL     1      93.168  66.127  21.976  1.00  0.00     0.186 HD
ENDBRANCH  18  19
ENDBRANCH  15  18
BRANCH   8  22
HETATM   22  O2  UNL     1      88.439  68.424  16.450  1.00  0.00    -0.357 OA
ATOM     23  H2  UNL     1      88.984  68.834  15.788  1.00  0.00     0.217 HD
ENDBRANCH   8  22
TORSDOF 4
ENDMDL
MODEL 5
REMARK VINA RESULT: -7.050386633      1.828      2.221
REMARK  4 active torsions:
REMARK  status: ('A' for Active; 'I' for Inactive)
REMARK    1  A    between atoms: O1_2  and  C2_3 
REMARK    2  A    between atoms: C8_10  and  O2_11 
REMARK    3  A    between atoms: N3_19  and  O5_20 
REMARK    4  A    between atoms: O5_20  and  N4_21 
ROOT
HETATM    1  C2  UNL     1      92.056  65.197  20.352  1.00  0.00     0.103 A 
HETATM    2  C3  UNL     1      90.867  64.619  19.981  1.00  0.00     0.064 A 
HETATM    3  C4  UNL     1      89.974  65.197  19.075  1.00  0.00     0.077 A 
HETATM    4  C5  UNL     1      88.749  64.517  18.746  1.00  0.00     0.102 C 
HETATM    5  N1  UNL     1      87.758  63.935  18.500  1.00  0.00    -0.191 NA
HETATM    6  C6  UNL     1      90.297  66.388  18.533  1.00  0.00     0.109 A 
HETATM    7  C7  UNL     1      91.485  66.997  18.883  1.00  0.00     0.099 A 
HETATM    8  C8  UNL     1      92.344  66.412  19.773  1.00  0.00     0.117 A 
HETATM    9  C9  UNL     1      91.837  68.220  18.340  1.00  0.00     0.265 A 
HETATM   10  O3  UNL     1      92.937  68.777  18.668  1.00  0.00    -0.267 OA
HETATM   11  N2  UNL     1      90.992  68.779  17.475  1.00  0.00    -0.273 N 
ATOM     12  H2  UNL     1      91.221  69.680  17.056  1.00  0.00     0.173 HD
HETATM   13  C10 UNL     1      89.849  68.171  17.152  1.00  0.00     0.356 A 
HETATM   14  O4  UNL     1      89.103  68.781  16.315  1.00  0.00    -0.244 OA
HETATM   15  N3  UNL     1      89.477  66.982  17.662  1.00  0.00    -0.143 N 
ENDROOT
BRANCH   1  16
HETATM   16  O1  UNL     1      92.880  64.578  21.242  1.00  0.00    -0.353 OA
HETATM   17  C1  UNL     1      93.806  63.580  20.971  1.00  0.00     0.210 C 
ENDBRANCH   1  16
BRANCH  15  18
HETATM   18  O5  UNL     1      88.296  66.485  17.247  1.00  0.00    -0.152 OA
BRANCH  18  19
HETATM   19  N4  UNL     1      87.083  66.994  17.601  1.00  0.00    -0.285 N 
ATOM     20  H42 UNL     1      87.079  67.713  18.325  1.00  0.00     0.186 HD
ATOM     21  H41 UNL     1      86.196  66.702  17.191  1.00  0.00     0.186 HD
ENDBRANCH  18  19
ENDBRANCH  15  18
BRANCH   8  22
HETATM   22  O2  UNL     1      93.525  67.053  20.099  1.00  0.00    -0.357 OA
ATOM     23  H2  UNL     1      93.662  67.948  19.812  1.00  0.00     0.217 HD
ENDBRANCH   8  22
TORSDOF 4
ENDMDL
