MODEL 1
REMARK VINA RESULT: -7.737890879      0.000      0.000
REMARK  2 active torsions:
REMARK  status: ('A' for Active; 'I' for Inactive)
REMARK    1  A    between atoms: N1_1  and  C1_5 
REMARK    2  A    between atoms: C3_9  and  N3_10 
ROOT
HETATM    1  C1  UNL     1      92.801  69.431  17.668  1.00  0.00     0.368 C 
HETATM    2  N2  UNL     1      92.784  68.250  18.524  1.00  0.00    -0.349 N 
ATOM      3  H2  UNL     1      93.665  67.946  18.937  1.00  0.00     0.162 HD
HETATM    4  C2  UNL     1      91.625  67.505  18.814  1.00  0.00     0.101 A 
HETATM    5  C3  UNL     1      91.740  66.498  19.759  1.00  0.00     0.199 A 
HETATM    6  C4  UNL     1      90.605  65.747  20.056  1.00  0.00     0.281 A 
HETATM    7  O3  UNL     1      90.660  64.815  20.913  1.00  0.00    -0.265 OA
HETATM    8  N4  UNL     1      89.415  65.959  19.469  1.00  0.00    -0.315 N 
ATOM      9  H4  UNL     1      88.613  65.382  19.721  1.00  0.00     0.169 HD
HETATM   10  C5  UNL     1      89.281  66.932  18.551  1.00  0.00     0.137 A 
HETATM   11  C6  UNL     1      88.247  67.410  17.775  1.00  0.00     0.290 A 
HETATM   12  O4  UNL     1      87.080  66.946  17.804  1.00  0.00    -0.264 OA
HETATM   13  N5  UNL     1      88.759  68.408  17.046  1.00  0.00    -0.251 N 
ATOM     14  H5  UNL     1      88.239  68.966  16.369  1.00  0.00     0.191 HD
HETATM   15  N6  UNL     1      90.061  68.567  17.337  1.00  0.00    -0.218 N 
HETATM   16  C7  UNL     1      90.394  67.677  18.251  1.00  0.00     0.125 A 
HETATM   17  S1  UNL     1      91.298  69.677  16.745  1.00  0.00     0.025 SA
ENDROOT
BRANCH   1  18
HETATM   18  N1  UNL     1      93.060  70.604  18.507  1.00  0.00    -0.048 N 
ATOM     19  H13 UNL     1      92.253  70.868  19.072  1.00  0.00     0.277 HD
ATOM     20  H12 UNL     1      93.705  70.405  19.270  1.00  0.00     0.277 HD
ATOM     21  H11 UNL     1      93.384  71.362  17.906  1.00  0.00     0.277 HD
ENDBRANCH   1  18
BRANCH   5  22
HETATM   22  N3  UNL     1      92.967  66.216  20.423  1.00  0.00    -0.107 N 
HETATM   23  O1  UNL     1      93.779  65.502  19.784  1.00  0.00    -0.531 OA
HETATM   24  O2  UNL     1      93.217  66.692  21.675  1.00  0.00    -0.531 OA
ENDBRANCH   5  22
TORSDOF 2
ENDMDL
MODEL 2
REMARK VINA RESULT: -7.230203233      2.228      3.873
REMARK  2 active torsions:
REMARK  status: ('A' for Active; 'I' for Inactive)
REMARK    1  A    between atoms: N1_1  and  C1_5 
REMARK    2  A    between atoms: C3_9  and  N3_10 
ROOT
HETATM    1  C1  UNL     1      87.976  64.900  18.405  1.00  0.00     0.368 C 
HETATM    2  N2  UNL     1      89.194  64.976  19.203  1.00  0.00    -0.349 N 
ATOM      3  H2  UNL     1      89.352  64.253  19.905  1.00  0.00     0.162 HD
HETATM    4  C2  UNL     1      90.165  65.986  19.063  1.00  0.00     0.101 A 
HETATM    5  C3  UNL     1      91.337  65.842  19.787  1.00  0.00     0.199 A 
HETATM    6  C4  UNL     1      92.308  66.834  19.665  1.00  0.00     0.281 A 
HETATM    7  O3  UNL     1      93.397  66.747  20.308  1.00  0.00    -0.265 OA
HETATM    8  N4  UNL     1      92.155  67.912  18.878  1.00  0.00    -0.315 N 
ATOM      9  H4  UNL     1      92.896  68.611  18.822  1.00  0.00     0.169 HD
HETATM   10  C5  UNL     1      91.026  68.070  18.165  1.00  0.00     0.137 A 
HETATM   11  C6  UNL     1      90.547  69.021  17.289  1.00  0.00     0.290 A 
HETATM   12  O4  UNL     1      91.185  70.052  16.960  1.00  0.00    -0.264 OA
HETATM   13  N5  UNL     1      89.335  68.600  16.911  1.00  0.00    -0.251 N 
ATOM     14  H5  UNL     1      88.721  69.091  16.261  1.00  0.00     0.191 HD
HETATM   15  N6  UNL     1      89.045  67.435  17.514  1.00  0.00    -0.218 N 
HETATM   16  C7  UNL     1      90.064  67.099  18.280  1.00  0.00     0.125 A 
HETATM   17  S1  UNL     1      87.641  66.369  17.456  1.00  0.00     0.025 SA
ENDROOT
BRANCH   1  18
HETATM   18  N1  UNL     1      88.085  63.749  17.506  1.00  0.00    -0.048 N 
ATOM     19  H13 UNL     1      88.934  63.206  17.664  1.00  0.00     0.277 HD
ATOM     20  H12 UNL     1      87.409  63.017  17.723  1.00  0.00     0.277 HD
ATOM     21  H11 UNL     1      88.006  64.083  16.545  1.00  0.00     0.277 HD
ENDBRANCH   1  18
BRANCH   5  22
HETATM   22  N3  UNL     1      91.572  64.726  20.640  1.00  0.00    -0.107 N 
HETATM   23  O1  UNL     1      91.171  64.853  21.823  1.00  0.00    -0.531 OA
HETATM   24  O2  UNL     1      92.201  63.608  20.181  1.00  0.00    -0.531 OA
ENDBRANCH   5  22
TORSDOF 2
ENDMDL
MODEL 3
REMARK VINA RESULT: -6.954460678      2.845      4.788
REMARK  2 active torsions:
REMARK  status: ('A' for Active; 'I' for Inactive)
REMARK    1  A    between atoms: N1_1  and  C1_5 
REMARK    2  A    between atoms: C3_9  and  N3_10 
ROOT
HETATM    1  C1  UNL     1      87.633  67.560  15.880  1.00  0.00     0.368 C 
HETATM    2  N2  UNL     1      88.854  68.342  16.036  1.00  0.00    -0.349 N 
ATOM      3  H2  UNL     1      89.072  69.038  15.322  1.00  0.00     0.162 HD
HETATM    4  C2  UNL     1      89.751  68.196  17.111  1.00  0.00     0.101 A 
HETATM    5  C3  UNL     1      90.788  69.110  17.200  1.00  0.00     0.199 A 
HETATM    6  C4  UNL     1      91.688  68.978  18.255  1.00  0.00     0.281 A 
HETATM    7  O3  UNL     1      92.654  69.790  18.378  1.00  0.00    -0.265 OA
HETATM    8  N4  UNL     1      91.591  68.011  19.182  1.00  0.00    -0.315 N 
ATOM      9  H4  UNL     1      92.275  67.956  19.936  1.00  0.00     0.169 HD
HETATM   10  C5  UNL     1      90.590  67.114  19.116  1.00  0.00     0.137 A 
HETATM   11  C6  UNL     1      90.200  66.027  19.868  1.00  0.00     0.290 A 
HETATM   12  O4  UNL     1      90.804  65.636  20.897  1.00  0.00    -0.264 OA
HETATM   13  N5  UNL     1      89.107  65.537  19.272  1.00  0.00    -0.251 N 
ATOM     14  H5  UNL     1      88.579  64.725  19.593  1.00  0.00     0.191 HD
HETATM   15  N6  UNL     1      88.807  66.272  18.188  1.00  0.00    -0.218 N 
HETATM   16  C7  UNL     1      89.699  67.235  18.079  1.00  0.00     0.125 A 
HETATM   17  S1  UNL     1      87.522  66.167  16.984  1.00  0.00     0.025 SA
ENDROOT
BRANCH   1  18
HETATM   18  N1  UNL     1      86.488  68.447  16.091  1.00  0.00    -0.048 N 
ATOM     19  H13 UNL     1      85.603  67.942  16.139  1.00  0.00     0.277 HD
ATOM     20  H12 UNL     1      86.470  68.848  17.028  1.00  0.00     0.277 HD
ATOM     21  H11 UNL     1      86.493  69.159  15.360  1.00  0.00     0.277 HD
ENDBRANCH   1  18
BRANCH   5  22
HETATM   22  N3  UNL     1      90.956  70.163  16.257  1.00  0.00    -0.107 N 
HETATM   23  O1  UNL     1      91.035  69.808  15.055  1.00  0.00    -0.531 OA
HETATM   24  O2  UNL     1      91.031  71.463  16.657  1.00  0.00    -0.531 OA
ENDBRANCH   5  22
TORSDOF 2
ENDMDL
MODEL 4
REMARK VINA RESULT: -6.944514807      2.572      3.792
REMARK  2 active torsions:
REMARK  status: ('A' for Active; 'I' for Inactive)
REMARK    1  A    between atoms: N1_1  and  C1_5 
REMARK    2  A    between atoms: C3_9  and  N3_10 
ROOT
HETATM    1  C1  UNL     1      92.481  65.773  20.235  1.00  0.00     0.368 C 
HETATM    2  N2  UNL     1      92.580  67.066  19.566  1.00  0.00    -0.349 N 
ATOM      3  H2  UNL     1      93.428  67.615  19.708  1.00  0.00     0.162 HD
HETATM    4  C2  UNL     1      91.576  67.602  18.737  1.00  0.00     0.101 A 
HETATM    5  C3  UNL     1      91.875  68.770  18.055  1.00  0.00     0.199 A 
HETATM    6  C4  UNL     1      90.893  69.317  17.233  1.00  0.00     0.281 A 
HETATM    7  O3  UNL     1      91.118  70.385  16.589  1.00  0.00    -0.265 OA
HETATM    8  N4  UNL     1      89.679  68.762  17.076  1.00  0.00    -0.315 N 
ATOM      9  H4  UNL     1      88.993  69.201  16.462  1.00  0.00     0.169 HD
HETATM   10  C5  UNL     1      89.369  67.627  17.728  1.00  0.00     0.137 A 
HETATM   11  C6  UNL     1      88.259  66.813  17.800  1.00  0.00     0.290 A 
HETATM   12  O4  UNL     1      87.192  67.028  17.172  1.00  0.00    -0.264 OA
HETATM   13  N5  UNL     1      88.580  65.821  18.638  1.00  0.00    -0.251 N 
ATOM     14  H5  UNL     1      87.963  65.052  18.900  1.00  0.00     0.191 HD
HETATM   15  N6  UNL     1      89.837  65.987  19.085  1.00  0.00    -0.218 N 
HETATM   16  C7  UNL     1      90.330  67.081  18.540  1.00  0.00     0.125 A 
HETATM   17  S1  UNL     1      90.850  65.060  20.191  1.00  0.00     0.025 SA
ENDROOT
BRANCH   1  18
HETATM   18  N1  UNL     1      93.436  64.857  19.609  1.00  0.00    -0.048 N 
ATOM     19  H13 UNL     1      93.014  64.294  18.871  1.00  0.00     0.277 HD
ATOM     20  H12 UNL     1      94.127  65.341  19.037  1.00  0.00     0.277 HD
ATOM     21  H11 UNL     1      93.862  64.287  20.341  1.00  0.00     0.277 HD
ENDBRANCH   1  18
BRANCH   5  22
HETATM   22  N3  UNL     1      93.139  69.415  18.169  1.00  0.00    -0.107 N 
HETATM   23  O1  UNL     1      94.112  68.792  17.678  1.00  0.00    -0.531 OA
HETATM   24  O2  UNL     1      93.261  70.623  18.785  1.00  0.00    -0.531 OA
ENDBRANCH   5  22
TORSDOF 2
ENDMDL
MODEL 5
REMARK VINA RESULT: -6.689789968      1.608      4.332
REMARK  2 active torsions:
REMARK  status: ('A' for Active; 'I' for Inactive)
REMARK    1  A    between atoms: N1_1  and  C1_5 
REMARK    2  A    between atoms: C3_9  and  N3_10 
ROOT
HETATM    1  C1  UNL     1      90.499  69.327  16.907  1.00  0.00     0.368 C 
HETATM    2  N2  UNL     1      89.462  68.325  17.124  1.00  0.00    -0.349 N 
ATOM      3  H2  UNL     1      88.547  68.484  16.702  1.00  0.00     0.162 HD
HETATM    4  C2  UNL     1      89.647  67.151  17.879  1.00  0.00     0.101 A 
HETATM    5  C3  UNL     1      88.616  66.225  17.872  1.00  0.00     0.199 A 
HETATM    6  C4  UNL     1      88.780  65.059  18.617  1.00  0.00     0.281 A 
HETATM    7  O3  UNL     1      87.865  64.182  18.643  1.00  0.00    -0.265 OA
HETATM    8  N4  UNL     1      89.886  64.799  19.334  1.00  0.00    -0.315 N 
ATOM      9  H4  UNL     1      89.958  63.930  19.863  1.00  0.00     0.169 HD
HETATM   10  C5  UNL     1      90.898  65.684  19.353  1.00  0.00     0.137 A 
HETATM   11  C6  UNL     1      92.136  65.741  19.959  1.00  0.00     0.290 A 
HETATM   12  O4  UNL     1      92.591  64.840  20.704  1.00  0.00    -0.264 OA
HETATM   13  N5  UNL     1      92.679  66.905  19.582  1.00  0.00    -0.251 N 
ATOM     14  H5  UNL     1      93.599  67.241  19.867  1.00  0.00     0.191 HD
HETATM   15  N6  UNL     1      91.834  67.564  18.772  1.00  0.00    -0.218 N 
HETATM   16  C7  UNL     1      90.747  66.835  18.623  1.00  0.00     0.125 A 
HETATM   17  S1  UNL     1      91.932  69.120  17.945  1.00  0.00     0.025 SA
ENDROOT
BRANCH   1  18
HETATM   18  N1  UNL     1      90.901  69.277  15.500  1.00  0.00    -0.048 N 
ATOM     19  H13 UNL     1      90.174  69.619  14.872  1.00  0.00     0.277 HD
ATOM     20  H12 UNL     1      91.616  69.967  15.272  1.00  0.00     0.277 HD
ATOM     21  H11 UNL     1      91.191  68.324  15.282  1.00  0.00     0.277 HD
ENDBRANCH   1  18
BRANCH   5  22
HETATM   22  N3  UNL     1      87.415  66.429  17.136  1.00  0.00    -0.107 N 
HETATM   23  O1  UNL     1      87.413  65.976  15.964  1.00  0.00    -0.531 OA
HETATM   24  O2  UNL     1      86.355  67.085  17.684  1.00  0.00    -0.531 OA
ENDBRANCH   5  22
TORSDOF 2
ENDMDL
