MODEL 1
REMARK VINA RESULT: -7.746783619      0.000      0.000
REMARK  5 active torsions:
REMARK  status: ('A' for Active; 'I' for Inactive)
REMARK    1  A    between atoms: N1_1  and  C1_4 
REMARK    2  A    between atoms: C2_7  and  N3_8 
REMARK    3  A    between atoms: N4_11  and  N5_12 
REMARK    4  A    between atoms: N5_12  and  O1_14 
REMARK    5  A    between atoms: C7_19  and  O3_20 
ROOT
HETATM    1  C1  UNL     1      88.266  64.785  18.201  1.00  0.00     0.679 A 
HETATM    2  N2  UNL     1      89.450  64.505  18.744  1.00  0.00    -0.175 N 
ATOM      3  H2  UNL     1      89.696  63.544  18.982  1.00  0.00     0.186 HD
HETATM    4  C2  UNL     1      90.330  65.528  18.978  1.00  0.00     0.145 A 
HETATM    5  C6  UNL     1      89.980  66.832  18.646  1.00  0.00     0.107 A 
HETATM    6  C7  UNL     1      90.612  68.045  18.743  1.00  0.00     0.173 A 
HETATM    7  N6  UNL     1      89.761  68.974  18.252  1.00  0.00    -0.278 N 
ATOM      8  H6  UNL     1      89.958  69.973  18.195  1.00  0.00     0.189 HD
HETATM    9  N7  UNL     1      88.642  68.402  17.857  1.00  0.00    -0.282 N 
ATOM     10  H7  UNL     1      87.841  68.884  17.448  1.00  0.00     0.188 HD
HETATM   11  C8  UNL     1      88.729  67.061  18.083  1.00  0.00     0.154 A 
HETATM   12  N8  UNL     1      87.891  66.037  17.869  1.00  0.00    -0.174 N 
ATOM     13  H8  UNL     1      86.973  66.203  17.457  1.00  0.00     0.186 HD
ENDROOT
BRANCH   4  14
HETATM   14  N3  UNL     1      91.590  65.247  19.564  1.00  0.00    -0.281 N 
HETATM   15  C3  UNL     1      92.812  64.989  18.822  1.00  0.00     0.157 C 
HETATM   16  C4  UNL     1      93.896  64.809  19.871  1.00  0.00     0.176 C 
HETATM   17  N4  UNL     1      93.279  65.191  21.113  1.00  0.00    -0.221 N 
HETATM   18  C5  UNL     1      91.858  65.155  20.950  1.00  0.00     0.346 C 
HETATM   19  O2  UNL     1      91.025  65.056  21.917  1.00  0.00    -0.245 OA
BRANCH  17  20
HETATM   20  N5  UNL     1      93.961  65.533  22.277  1.00  0.00    -0.204 N 
ATOM     21  H5  UNL     1      94.816  65.024  22.508  1.00  0.00     0.216 HD
BRANCH  20  22
HETATM   22  O1  UNL     1      93.574  66.436  23.056  1.00  0.00    -0.274 OA
ATOM     23  H1  UNL     1      93.119  66.257  23.871  1.00  0.00     0.246 HD
ENDBRANCH  20  22
ENDBRANCH  17  20
ENDBRANCH   4  14
BRANCH   1  24
HETATM   24  N1  UNL     1      87.397  63.828  17.960  1.00  0.00    -0.234 N 
ATOM     25  H12 UNL     1      87.352  63.070  18.642  1.00  0.00     0.174 HD
ATOM     26  H11 UNL     1      86.808  63.860  17.129  1.00  0.00     0.174 HD
ENDBRANCH   1  24
BRANCH   6  27
HETATM   27  O3  UNL     1      91.884  68.240  19.255  1.00  0.00    -0.344 OA
ATOM     28  H3  UNL     1      92.243  67.786  20.009  1.00  0.00     0.219 HD
ENDBRANCH   6  27
TORSDOF 5
ENDMDL
MODEL 2
REMARK VINA RESULT: -7.645883699      1.173      1.494
REMARK  5 active torsions:
REMARK  status: ('A' for Active; 'I' for Inactive)
REMARK    1  A    between atoms: N1_1  and  C1_4 
REMARK    2  A    between atoms: C2_7  and  N3_8 
REMARK    3  A    between atoms: N4_11  and  N5_12 
REMARK    4  A    between atoms: N5_12  and  O1_14 
REMARK    5  A    between atoms: C7_19  and  O3_20 
ROOT
HETATM    1  C1  UNL     1      88.497  66.476  18.163  1.00  0.00     0.679 A 
HETATM    2  N2  UNL     1      89.393  65.601  18.616  1.00  0.00    -0.175 N 
ATOM      3  H2  UNL     1      89.134  64.627  18.772  1.00  0.00     0.186 HD
HETATM    4  C2  UNL     1      90.669  66.031  18.869  1.00  0.00     0.145 A 
HETATM    5  C6  UNL     1      91.008  67.361  18.649  1.00  0.00     0.107 A 
HETATM    6  C7  UNL     1      92.161  68.090  18.793  1.00  0.00     0.173 A 
HETATM    7  N6  UNL     1      91.876  69.357  18.417  1.00  0.00    -0.278 N 
ATOM      8  H6  UNL     1      92.542  70.129  18.419  1.00  0.00     0.189 HD
HETATM    9  N7  UNL     1      90.614  69.451  18.049  1.00  0.00    -0.282 N 
ATOM     10  H7  UNL     1      90.152  70.299  17.722  1.00  0.00     0.188 HD
HETATM   11  C8  UNL     1      90.027  68.227  18.176  1.00  0.00     0.154 A 
HETATM   12  N8  UNL     1      88.788  67.774  17.941  1.00  0.00    -0.174 N 
ATOM     13  H8  UNL     1      88.068  68.407  17.595  1.00  0.00     0.186 HD
ENDROOT
BRANCH   4  14
HETATM   14  N3  UNL     1      91.632  65.114  19.360  1.00  0.00    -0.281 N 
HETATM   15  C3  UNL     1      92.534  64.333  18.532  1.00  0.00     0.157 C 
HETATM   16  C4  UNL     1      93.410  63.557  19.500  1.00  0.00     0.176 C 
HETATM   17  N4  UNL     1      93.108  64.104  20.795  1.00  0.00    -0.221 N 
HETATM   18  C5  UNL     1      91.858  64.798  20.721  1.00  0.00     0.346 C 
HETATM   19  O2  UNL     1      91.118  65.059  21.732  1.00  0.00    -0.245 OA
BRANCH  17  20
HETATM   20  N5  UNL     1      93.903  63.971  21.930  1.00  0.00    -0.204 N 
ATOM     21  H5  UNL     1      94.628  63.253  21.934  1.00  0.00     0.216 HD
BRANCH  20  22
HETATM   22  O1  UNL     1      93.769  64.693  22.947  1.00  0.00    -0.274 OA
ATOM     23  H1  UNL     1      94.505  65.029  23.444  1.00  0.00     0.246 HD
ENDBRANCH  20  22
ENDBRANCH  17  20
ENDBRANCH   4  14
BRANCH   1  24
HETATM   24  N1  UNL     1      87.264  66.098  17.906  1.00  0.00    -0.234 N 
ATOM     25  H12 UNL     1      87.145  65.160  17.522  1.00  0.00     0.174 HD
ATOM     26  H11 UNL     1      86.481  66.725  18.091  1.00  0.00     0.174 HD
ENDBRANCH   1  24
BRANCH   6  27
HETATM   27  O3  UNL     1      93.369  67.585  19.243  1.00  0.00    -0.344 OA
ATOM     28  H3  UNL     1      93.908  66.961  18.772  1.00  0.00     0.219 HD
ENDBRANCH   6  27
TORSDOF 5
ENDMDL
MODEL 3
REMARK VINA RESULT: -7.602034986      1.645      3.153
REMARK  5 active torsions:
REMARK  status: ('A' for Active; 'I' for Inactive)
REMARK    1  A    between atoms: N1_1  and  C1_4 
REMARK    2  A    between atoms: C2_7  and  N3_8 
REMARK    3  A    between atoms: N4_11  and  N5_12 
REMARK    4  A    between atoms: N5_12  and  O1_14 
REMARK    5  A    between atoms: C7_19  and  O3_20 
ROOT
HETATM    1  C1  UNL     1      91.888  69.035  18.412  1.00  0.00     0.679 A 
HETATM    2  N2  UNL     1      92.444  67.919  18.879  1.00  0.00    -0.175 N 
ATOM      3  H2  UNL     1      93.433  67.897  19.127  1.00  0.00     0.186 HD
HETATM    4  C2  UNL     1      91.666  66.801  19.021  1.00  0.00     0.145 A 
HETATM    5  C6  UNL     1      90.318  66.847  18.681  1.00  0.00     0.107 A 
HETATM    6  C7  UNL     1      89.295  65.935  18.707  1.00  0.00     0.173 A 
HETATM    7  N6  UNL     1      88.191  66.568  18.250  1.00  0.00    -0.278 N 
ATOM      8  H6  UNL     1      87.270  66.140  18.155  1.00  0.00     0.189 HD
HETATM    9  N7  UNL     1      88.476  67.818  17.945  1.00  0.00    -0.282 N 
ATOM     10  H7  UNL     1      87.817  68.506  17.581  1.00  0.00     0.188 HD
HETATM   11  C8  UNL     1      89.797  68.042  18.198  1.00  0.00     0.154 A 
HETATM   12  N8  UNL     1      90.587  69.117  18.069  1.00  0.00    -0.174 N 
ATOM     13  H8  UNL     1      90.205  69.994  17.714  1.00  0.00     0.186 HD
ENDROOT
BRANCH   4  14
HETATM   14  N3  UNL     1      92.245  65.602  19.509  1.00  0.00    -0.281 N 
HETATM   15  C3  UNL     1      92.703  64.502  18.679  1.00  0.00     0.157 C 
HETATM   16  C4  UNL     1      93.298  63.486  19.639  1.00  0.00     0.176 C 
HETATM   17  N4  UNL     1      93.345  64.158  20.909  1.00  0.00    -0.221 N 
HETATM   18  C5  UNL     1      92.455  65.277  20.870  1.00  0.00     0.346 C 
HETATM   19  O2  UNL     1      91.965  65.844  21.909  1.00  0.00    -0.245 OA
BRANCH  17  20
HETATM   20  N5  UNL     1      94.128  63.773  21.994  1.00  0.00    -0.204 N 
ATOM     21  H5  UNL     1      94.714  62.942  21.901  1.00  0.00     0.216 HD
BRANCH  20  22
HETATM   22  O1  UNL     1      94.145  64.399  23.081  1.00  0.00    -0.274 OA
ATOM     23  H1  UNL     1      93.783  65.272  23.181  1.00  0.00     0.246 HD
ENDBRANCH  20  22
ENDBRANCH  17  20
ENDBRANCH   4  14
BRANCH   1  24
HETATM   24  N1  UNL     1      92.604  70.129  18.266  1.00  0.00    -0.234 N 
ATOM     25  H12 UNL     1      92.600  70.784  19.048  1.00  0.00     0.174 HD
ATOM     26  H11 UNL     1      93.130  70.293  17.408  1.00  0.00     0.174 HD
ENDBRANCH   1  24
BRANCH   6  27
HETATM   27  O3  UNL     1      89.411  64.622  19.128  1.00  0.00    -0.344 OA
ATOM     28  H3  UNL     1      89.352  63.861  18.563  1.00  0.00     0.219 HD
ENDBRANCH   6  27
TORSDOF 5
ENDMDL
MODEL 4
REMARK VINA RESULT: -7.382197745      2.428      3.530
REMARK  5 active torsions:
REMARK  status: ('A' for Active; 'I' for Inactive)
REMARK    1  A    between atoms: N1_1  and  C1_4 
REMARK    2  A    between atoms: C2_7  and  N3_8 
REMARK    3  A    between atoms: N4_11  and  N5_12 
REMARK    4  A    between atoms: N5_12  and  O1_14 
REMARK    5  A    between atoms: C7_19  and  O3_20 
ROOT
HETATM    1  C1  UNL     1      93.565  68.235  16.605  1.00  0.00     0.679 A 
HETATM    2  N2  UNL     1      93.625  67.207  17.450  1.00  0.00    -0.175 N 
ATOM      3  H2  UNL     1      94.429  66.580  17.446  1.00  0.00     0.186 HD
HETATM    4  C2  UNL     1      92.589  67.006  18.322  1.00  0.00     0.145 A 
HETATM    5  C6  UNL     1      91.500  67.872  18.317  1.00  0.00     0.107 A 
HETATM    6  C7  UNL     1      90.339  67.951  19.041  1.00  0.00     0.173 A 
HETATM    7  N6  UNL     1      89.658  69.024  18.579  1.00  0.00    -0.278 N 
ATOM      8  H6  UNL     1      88.752  69.334  18.928  1.00  0.00     0.189 HD
HETATM    9  N7  UNL     1      90.335  69.611  17.612  1.00  0.00    -0.282 N 
ATOM     10  H7  UNL     1      90.038  70.441  17.099  1.00  0.00     0.188 HD
HETATM   11  C8  UNL     1      91.496  68.927  17.410  1.00  0.00     0.154 A 
HETATM   12  N8  UNL     1      92.526  69.093  16.568  1.00  0.00    -0.174 N 
ATOM     13  H8  UNL     1      92.523  69.866  15.903  1.00  0.00     0.186 HD
ENDROOT
BRANCH   4  14
HETATM   14  N3  UNL     1      92.634  65.911  19.222  1.00  0.00    -0.281 N 
HETATM   15  C3  UNL     1      92.104  64.588  18.947  1.00  0.00     0.157 C 
HETATM   16  C4  UNL     1      92.442  63.750  20.169  1.00  0.00     0.176 C 
HETATM   17  N4  UNL     1      93.323  64.574  20.951  1.00  0.00    -0.221 N 
HETATM   18  C5  UNL     1      93.180  65.933  20.527  1.00  0.00     0.346 C 
HETATM   19  O2  UNL     1      93.502  66.947  21.239  1.00  0.00    -0.245 OA
BRANCH  17  20
HETATM   20  N5  UNL     1      94.169  64.116  21.958  1.00  0.00    -0.204 N 
ATOM     21  H5  UNL     1      94.869  63.412  21.723  1.00  0.00     0.216 HD
BRANCH  20  22
HETATM   22  O1  UNL     1      94.109  64.529  23.141  1.00  0.00    -0.274 OA
ATOM     23  H1  UNL     1      94.219  63.961  23.894  1.00  0.00     0.246 HD
ENDBRANCH  20  22
ENDBRANCH  17  20
ENDBRANCH   4  14
BRANCH   1  24
HETATM   24  N1  UNL     1      94.543  68.461  15.755  1.00  0.00    -0.234 N 
ATOM     25  H12 UNL     1      95.053  69.338  15.868  1.00  0.00     0.174 HD
ATOM     26  H11 UNL     1      94.765  67.780  15.029  1.00  0.00     0.174 HD
ENDBRANCH   1  24
BRANCH   6  27
HETATM   27  O3  UNL     1      89.969  67.076  20.048  1.00  0.00    -0.344 OA
ATOM     28  H3  UNL     1      89.172  67.140  20.560  1.00  0.00     0.219 HD
ENDBRANCH   6  27
TORSDOF 5
ENDMDL
MODEL 5
REMARK VINA RESULT: -7.272702354      2.019      3.562
REMARK  5 active torsions:
REMARK  status: ('A' for Active; 'I' for Inactive)
REMARK    1  A    between atoms: N1_1  and  C1_4 
REMARK    2  A    between atoms: C2_7  and  N3_8 
REMARK    3  A    between atoms: N4_11  and  N5_12 
REMARK    4  A    between atoms: N5_12  and  O1_14 
REMARK    5  A    between atoms: C7_19  and  O3_20 
ROOT
HETATM    1  C1  UNL     1      93.232  69.223  18.373  1.00  0.00     0.679 A 
HETATM    2  N2  UNL     1      93.511  68.024  18.883  1.00  0.00    -0.175 N 
ATOM      3  H2  UNL     1      94.476  67.750  19.064  1.00  0.00     0.186 HD
HETATM    4  C2  UNL     1      92.479  67.167  19.160  1.00  0.00     0.145 A 
HETATM    5  C6  UNL     1      91.168  67.557  18.911  1.00  0.00     0.107 A 
HETATM    6  C7  UNL     1      89.945  66.958  19.074  1.00  0.00     0.173 A 
HETATM    7  N6  UNL     1      89.014  67.839  18.648  1.00  0.00    -0.278 N 
ATOM      8  H6  UNL     1      88.008  67.671  18.648  1.00  0.00     0.189 HD
HETATM    9  N7  UNL     1      89.592  68.948  18.232  1.00  0.00    -0.282 N 
ATOM     10  H7  UNL     1      89.110  69.767  17.863  1.00  0.00     0.188 HD
HETATM   11  C8  UNL     1      90.942  68.820  18.376  1.00  0.00     0.154 A 
HETATM   12  N8  UNL     1      91.974  69.634  18.115  1.00  0.00    -0.174 N 
ATOM     13  H8  UNL     1      91.810  70.561  17.722  1.00  0.00     0.186 HD
ENDROOT
BRANCH   4  14
HETATM   14  N3  UNL     1      92.760  65.884  19.696  1.00  0.00    -0.281 N 
HETATM   15  C3  UNL     1      92.853  64.661  18.919  1.00  0.00     0.157 C 
HETATM   16  C4  UNL     1      93.232  63.574  19.911  1.00  0.00     0.176 C 
HETATM   17  N4  UNL     1      93.545  64.274  21.127  1.00  0.00    -0.221 N 
HETATM   18  C5  UNL     1      92.976  65.586  21.062  1.00  0.00     0.346 C 
HETATM   19  O2  UNL     1      92.728  66.314  22.085  1.00  0.00    -0.245 OA
BRANCH  17  20
HETATM   20  N5  UNL     1      94.277  63.752  22.190  1.00  0.00    -0.204 N 
ATOM     21  H5  UNL     1      94.742  62.852  22.065  1.00  0.00     0.216 HD
BRANCH  20  22
HETATM   22  O1  UNL     1      94.390  64.336  23.294  1.00  0.00    -0.274 OA
ATOM     23  H1  UNL     1      94.763  63.921  24.063  1.00  0.00     0.246 HD
ENDBRANCH  20  22
ENDBRANCH  17  20
ENDBRANCH   4  14
BRANCH   1  24
HETATM   24  N1  UNL     1      94.197  70.073  18.097  1.00  0.00    -0.234 N 
ATOM     25  H12 UNL     1      94.286  70.878  18.718  1.00  0.00     0.174 HD
ATOM     26  H11 UNL     1      94.814  69.916  17.300  1.00  0.00     0.174 HD
ENDBRANCH   1  24
BRANCH   6  27
HETATM   27  O3  UNL     1      89.746  65.686  19.583  1.00  0.00    -0.344 OA
ATOM     28  H3  UNL     1      89.577  64.910  19.062  1.00  0.00     0.219 HD
ENDBRANCH   6  27
TORSDOF 5
ENDMDL
