MODEL 1
REMARK VINA RESULT: -8.874181543      0.000      0.000
REMARK  13 active torsions:
REMARK  status: ('A' for Active; 'I' for Inactive)
REMARK    1  A    between atoms: C3_3  and  C4_4 
REMARK    2  A    between atoms: C4_4  and  C5_5 
REMARK    3  A    between atoms: C5_5  and  C6_6 
REMARK    4  A    between atoms: C7_7  and  C8_8 
REMARK    5  A    between atoms: C8_8  and  C9_9 
REMARK    6  A    between atoms: C13_15  and  O1_16 
REMARK    7  A    between atoms: C14_19  and  C15_20 
REMARK    8  A    between atoms: C16_23  and  C17_24 
REMARK    9  A    between atoms: C17_24  and  C18_25 
REMARK   10  A    between atoms: C23_30  and  C24_31 
REMARK   11  A    between atoms: C24_31  and  C25_33 
REMARK       I    between atoms: C25_33  and  N3_35 
REMARK   12  A    between atoms: N3_35  and  C26_37 
REMARK   13  A    between atoms: C26_37  and  C27_38 
ROOT
HETATM    1  C9  UNL     1      -9.876  16.124  32.929  1.00  0.00     0.081 C 
HETATM    2  C10 UNL     1      -8.703  16.868  32.295  1.00  0.00     0.016 C 
HETATM    3  C11 UNL     1      -9.104  17.906  31.276  1.00  0.00     0.020 C 
HETATM    4  C12 UNL     1      -8.212  17.666  30.059  1.00  0.00     0.123 C 
HETATM    5  N1  UNL     1      -8.769  18.167  28.853  1.00  0.00    -0.350 N 
ATOM      6  H1  UNL     1      -8.385  19.044  28.502  1.00  0.00     0.163 HD
HETATM    7  C13 UNL     1      -9.783  17.585  28.098  1.00  0.00     0.258 C 
HETATM    8  O2  UNL     1     -10.363  16.371  28.163  1.00  0.00    -0.301 OA
HETATM    9  C14 UNL     1      -9.941  15.073  28.117  1.00  0.00     0.229 C 
HETATM   10  C16 UNL     1     -11.053  14.085  28.217  1.00  0.00     0.047 C 
HETATM   11  C21 UNL     1     -11.435  13.805  29.679  1.00  0.00     0.014 C 
HETATM   12  C22 UNL     1     -11.981  15.022  30.338  1.00  0.00     0.034 C 
HETATM   13  C23 UNL     1     -12.185  14.642  31.867  1.00  0.00     0.164 C 
HETATM   14  N4  UNL     1     -10.968  13.921  32.153  1.00  0.00    -0.349 N 
ATOM     15  H4  UNL     1     -10.902  12.917  31.990  1.00  0.00     0.163 HD
HETATM   16  C31 UNL     1      -9.830  14.675  32.685  1.00  0.00     0.222 C 
HETATM   17  O7  UNL     1      -8.799  13.989  32.927  1.00  0.00    -0.273 OA
ENDROOT
BRANCH  13  18
HETATM   18  C24 UNL     1     -13.418  13.868  31.814  1.00  0.00     0.238 C 
HETATM   19  O4  UNL     1     -14.448  14.200  31.150  1.00  0.00    -0.285 OA
BRANCH  18  20
HETATM   20  C25 UNL     1     -13.550  12.613  32.557  1.00  0.00     0.289 C 
HETATM   21  O5  UNL     1     -13.706  12.617  33.814  1.00  0.00    -0.264 OA
HETATM   22  N3  UNL     1     -13.513  11.402  31.874  1.00  0.00    -0.352 N 
ATOM     23  H3  UNL     1     -13.468  11.393  30.855  1.00  0.00     0.162 HD
BRANCH  22  24
HETATM   24  C26 UNL     1     -13.538  10.141  32.617  1.00  0.00     0.155 C 
BRANCH  24  25
HETATM   25  C27 UNL     1     -13.193   8.998  31.781  1.00  0.00     0.139 C 
HETATM   26  C28 UNL     1     -13.062   7.724  32.639  1.00  0.00     0.035 C 
HETATM   27  C29 UNL     1     -12.801   6.788  31.448  1.00  0.00     0.029 C 
HETATM   28  C30 UNL     1     -12.084   7.686  30.454  1.00  0.00     0.168 C 
HETATM   29  O6  UNL     1     -12.058   9.007  31.053  1.00  0.00    -0.384 OA
ENDBRANCH  24  25
ENDBRANCH  22  24
ENDBRANCH  18  20
ENDBRANCH  13  18
BRANCH  10  30
HETATM   30  C17 UNL     1     -12.294  14.206  27.465  1.00  0.00    -0.017 C 
BRANCH  30  31
HETATM   31  C18 UNL     1     -13.532  13.516  27.836  1.00  0.00    -0.091 C 
HETATM   32  C19 UNL     1     -13.710  12.194  27.093  1.00  0.00     0.042 C 
HETATM   33  C20 UNL     1     -14.809  14.242  27.936  1.00  0.00     0.042 C 
ENDBRANCH  30  31
ENDBRANCH  10  30
BRANCH   1  34
HETATM   34  C8  UNL     1      -9.708  16.326  34.438  1.00  0.00     0.041 C 
BRANCH  34  35
HETATM   35  C7  UNL     1     -10.776  15.792  35.275  1.00  0.00    -0.025 C 
HETATM   36  C6  UNL     1     -10.749  14.553  35.669  1.00  0.00     0.004 C 
BRANCH  36  37
HETATM   37  C5  UNL     1     -11.779  13.877  36.505  1.00  0.00     0.055 C 
BRANCH  37  38
HETATM   38  C4  UNL     1     -11.945  12.744  36.856  1.00  0.00    -0.129 C 
BRANCH  38  39
HETATM   39  C3  UNL     1     -11.918  11.310  37.153  1.00  0.00     0.051 C 
HETATM   40  C2  UNL     1     -12.317  10.410  36.235  1.00  0.00    -0.023 C 
HETATM   41  C1  UNL     1     -12.244   8.966  36.659  1.00  0.00     0.036 C 
ENDBRANCH  38  39
ENDBRANCH  37  38
ENDBRANCH  36  37
ENDBRANCH  34  35
ENDBRANCH   1  34
BRANCH   9  42
HETATM   42  C15 UNL     1      -8.952  14.696  27.095  1.00  0.00     0.261 C 
HETATM   43  N2  UNL     1      -8.932  15.040  25.741  1.00  0.00    -0.060 NA
HETATM   44  O3  UNL     1      -7.973  13.948  27.490  1.00  0.00    -0.274 OA
ENDBRANCH   9  42
BRANCH   7  45
HETATM   45  O1  UNL     1     -10.268  18.348  27.161  1.00  0.00    -0.327 OA
ATOM     46  H1  UNL     1     -11.208  18.478  27.204  1.00  0.00     0.221 HD
ENDBRANCH   7  45
TORSDOF 13
ENDMDL
MODEL 2
REMARK VINA RESULT: -8.750839685      1.068      1.296
REMARK  13 active torsions:
REMARK  status: ('A' for Active; 'I' for Inactive)
REMARK    1  A    between atoms: C3_3  and  C4_4 
REMARK    2  A    between atoms: C4_4  and  C5_5 
REMARK    3  A    between atoms: C5_5  and  C6_6 
REMARK    4  A    between atoms: C7_7  and  C8_8 
REMARK    5  A    between atoms: C8_8  and  C9_9 
REMARK    6  A    between atoms: C13_15  and  O1_16 
REMARK    7  A    between atoms: C14_19  and  C15_20 
REMARK    8  A    between atoms: C16_23  and  C17_24 
REMARK    9  A    between atoms: C17_24  and  C18_25 
REMARK   10  A    between atoms: C23_30  and  C24_31 
REMARK   11  A    between atoms: C24_31  and  C25_33 
REMARK       I    between atoms: C25_33  and  N3_35 
REMARK   12  A    between atoms: N3_35  and  C26_37 
REMARK   13  A    between atoms: C26_37  and  C27_38 
ROOT
HETATM    1  C9  UNL     1      -9.836  16.125  32.957  1.00  0.00     0.081 C 
HETATM    2  C10 UNL     1      -8.670  16.875  32.318  1.00  0.00     0.016 C 
HETATM    3  C11 UNL     1      -9.080  17.912  31.302  1.00  0.00     0.020 C 
HETATM    4  C12 UNL     1      -8.193  17.676  30.079  1.00  0.00     0.123 C 
HETATM    5  N1  UNL     1      -8.759  18.174  28.876  1.00  0.00    -0.350 N 
ATOM      6  H1  UNL     1      -8.381  19.054  28.524  1.00  0.00     0.163 HD
HETATM    7  C13 UNL     1      -9.774  17.588  28.127  1.00  0.00     0.258 C 
HETATM    8  O2  UNL     1     -10.348  16.372  28.194  1.00  0.00    -0.301 OA
HETATM    9  C14 UNL     1      -9.920  15.075  28.146  1.00  0.00     0.229 C 
HETATM   10  C16 UNL     1     -11.028  14.083  28.251  1.00  0.00     0.047 C 
HETATM   11  C21 UNL     1     -11.401  13.800  29.715  1.00  0.00     0.014 C 
HETATM   12  C22 UNL     1     -11.949  15.015  30.377  1.00  0.00     0.034 C 
HETATM   13  C23 UNL     1     -12.143  14.634  31.907  1.00  0.00     0.164 C 
HETATM   14  N4  UNL     1     -10.922  13.918  32.187  1.00  0.00    -0.349 N 
ATOM     15  H4  UNL     1     -10.852  12.914  32.023  1.00  0.00     0.163 HD
HETATM   16  C31 UNL     1      -9.784  14.677  32.713  1.00  0.00     0.222 C 
HETATM   17  O7  UNL     1      -8.749  13.996  32.950  1.00  0.00    -0.273 OA
ENDROOT
BRANCH  13  18
HETATM   18  C24 UNL     1     -13.373  13.854  31.860  1.00  0.00     0.238 C 
HETATM   19  O4  UNL     1     -14.477  14.278  31.399  1.00  0.00    -0.285 OA
BRANCH  18  20
HETATM   20  C25 UNL     1     -13.412  12.480  32.367  1.00  0.00     0.289 C 
HETATM   21  O5  UNL     1     -13.346  12.246  33.610  1.00  0.00    -0.264 OA
HETATM   22  N3  UNL     1     -13.532  11.421  31.474  1.00  0.00    -0.352 N 
ATOM     23  H3  UNL     1     -13.667  11.604  30.480  1.00  0.00     0.162 HD
BRANCH  22  24
HETATM   24  C26 UNL     1     -13.466  10.042  31.962  1.00  0.00     0.155 C 
BRANCH  24  25
HETATM   25  C27 UNL     1     -14.616   9.251  31.542  1.00  0.00     0.139 C 
HETATM   26  C28 UNL     1     -15.921  10.048  31.745  1.00  0.00     0.035 C 
HETATM   27  C29 UNL     1     -16.831   8.970  31.134  1.00  0.00     0.029 C 
HETATM   28  C30 UNL     1     -16.110   7.677  31.472  1.00  0.00     0.168 C 
HETATM   29  O6  UNL     1     -14.876   8.065  32.129  1.00  0.00    -0.384 OA
ENDBRANCH  24  25
ENDBRANCH  22  24
ENDBRANCH  18  20
ENDBRANCH  13  18
BRANCH  10  30
HETATM   30  C17 UNL     1     -12.273  14.198  27.505  1.00  0.00    -0.017 C 
BRANCH  30  31
HETATM   31  C18 UNL     1     -13.511  13.518  27.894  1.00  0.00    -0.091 C 
HETATM   32  C19 UNL     1     -13.715  12.202  27.147  1.00  0.00     0.042 C 
HETATM   33  C20 UNL     1     -14.779  14.257  28.019  1.00  0.00     0.042 C 
ENDBRANCH  30  31
ENDBRANCH  10  30
BRANCH   1  34
HETATM   34  C8  UNL     1      -9.662  16.328  34.466  1.00  0.00     0.041 C 
BRANCH  34  35
HETATM   35  C7  UNL     1     -10.306  15.338  35.320  1.00  0.00    -0.025 C 
HETATM   36  C6  UNL     1     -11.603  15.276  35.398  1.00  0.00     0.004 C 
BRANCH  36  37
HETATM   37  C5  UNL     1     -12.386  14.333  36.243  1.00  0.00     0.055 C 
BRANCH  37  38
HETATM   38  C4  UNL     1     -12.188  13.220  36.639  1.00  0.00    -0.129 C 
BRANCH  38  39
HETATM   39  C3  UNL     1     -11.687  11.924  37.102  1.00  0.00     0.051 C 
HETATM   40  C2  UNL     1     -12.320  10.784  36.771  1.00  0.00    -0.023 C 
HETATM   41  C1  UNL     1     -11.708   9.516  37.308  1.00  0.00     0.036 C 
ENDBRANCH  38  39
ENDBRANCH  37  38
ENDBRANCH  36  37
ENDBRANCH  34  35
ENDBRANCH   1  34
BRANCH   9  42
HETATM   42  C15 UNL     1      -8.935  14.704  27.119  1.00  0.00     0.261 C 
HETATM   43  N2  UNL     1      -8.917  15.057  25.767  1.00  0.00    -0.060 NA
HETATM   44  O3  UNL     1      -7.958  13.950  27.505  1.00  0.00    -0.274 OA
ENDBRANCH   9  42
BRANCH   7  45
HETATM   45  O1  UNL     1     -10.267  18.349  27.192  1.00  0.00    -0.327 OA
ATOM     46  H1  UNL     1     -10.139  18.025  26.308  1.00  0.00     0.221 HD
ENDBRANCH   7  45
TORSDOF 13
ENDMDL
MODEL 3
REMARK VINA RESULT: -8.662912486      1.335      1.964
REMARK  13 active torsions:
REMARK  status: ('A' for Active; 'I' for Inactive)
REMARK    1  A    between atoms: C3_3  and  C4_4 
REMARK    2  A    between atoms: C4_4  and  C5_5 
REMARK    3  A    between atoms: C5_5  and  C6_6 
REMARK    4  A    between atoms: C7_7  and  C8_8 
REMARK    5  A    between atoms: C8_8  and  C9_9 
REMARK    6  A    between atoms: C13_15  and  O1_16 
REMARK    7  A    between atoms: C14_19  and  C15_20 
REMARK    8  A    between atoms: C16_23  and  C17_24 
REMARK    9  A    between atoms: C17_24  and  C18_25 
REMARK   10  A    between atoms: C23_30  and  C24_31 
REMARK   11  A    between atoms: C24_31  and  C25_33 
REMARK       I    between atoms: C25_33  and  N3_35 
REMARK   12  A    between atoms: N3_35  and  C26_37 
REMARK   13  A    between atoms: C26_37  and  C27_38 
ROOT
HETATM    1  C9  UNL     1      -9.829  16.155  32.790  1.00  0.00     0.081 C 
HETATM    2  C10 UNL     1      -8.675  16.913  32.139  1.00  0.00     0.016 C 
HETATM    3  C11 UNL     1      -9.103  17.935  31.114  1.00  0.00     0.020 C 
HETATM    4  C12 UNL     1      -8.218  17.700  29.890  1.00  0.00     0.123 C 
HETATM    5  N1  UNL     1      -8.795  18.179  28.685  1.00  0.00    -0.350 N 
ATOM      6  H1  UNL     1      -8.430  19.060  28.323  1.00  0.00     0.163 HD
HETATM    7  C13 UNL     1      -9.807  17.573  27.946  1.00  0.00     0.258 C 
HETATM    8  O2  UNL     1     -10.365  16.351  28.027  1.00  0.00    -0.301 OA
HETATM    9  C14 UNL     1      -9.921  15.059  27.989  1.00  0.00     0.229 C 
HETATM   10  C16 UNL     1     -11.016  14.054  28.108  1.00  0.00     0.047 C 
HETATM   11  C21 UNL     1     -11.379  13.780  29.577  1.00  0.00     0.014 C 
HETATM   12  C22 UNL     1     -11.939  14.994  30.230  1.00  0.00     0.034 C 
HETATM   13  C23 UNL     1     -12.122  14.625  31.764  1.00  0.00     0.164 C 
HETATM   14  N4  UNL     1     -10.890  13.927  32.045  1.00  0.00    -0.349 N 
ATOM     15  H4  UNL     1     -10.809  12.923  31.890  1.00  0.00     0.163 HD
HETATM   16  C31 UNL     1      -9.760  14.705  32.559  1.00  0.00     0.222 C 
HETATM   17  O7  UNL     1      -8.715  14.039  32.797  1.00  0.00    -0.273 OA
ENDROOT
BRANCH  13  18
HETATM   18  C24 UNL     1     -13.342  13.830  31.730  1.00  0.00     0.238 C 
HETATM   19  O4  UNL     1     -14.503  14.301  31.526  1.00  0.00    -0.285 OA
BRANCH  18  20
HETATM   20  C25 UNL     1     -13.301  12.381  31.941  1.00  0.00     0.289 C 
HETATM   21  O5  UNL     1     -13.126  11.589  30.969  1.00  0.00    -0.264 OA
HETATM   22  N3  UNL     1     -13.446  11.869  33.226  1.00  0.00    -0.352 N 
ATOM     23  H3  UNL     1     -13.507  12.502  34.023  1.00  0.00     0.162 HD
BRANCH  22  24
HETATM   24  C26 UNL     1     -13.512  10.421  33.434  1.00  0.00     0.155 C 
BRANCH  24  25
HETATM   25  C27 UNL     1     -13.537  10.066  34.847  1.00  0.00     0.139 C 
HETATM   26  C28 UNL     1     -12.833   8.712  35.074  1.00  0.00     0.035 C 
HETATM   27  C29 UNL     1     -12.982   8.740  36.604  1.00  0.00     0.029 C 
HETATM   28  C30 UNL     1     -14.276   9.508  36.811  1.00  0.00     0.168 C 
HETATM   29  O6  UNL     1     -14.713   9.922  35.491  1.00  0.00    -0.384 OA
ENDBRANCH  24  25
ENDBRANCH  22  24
ENDBRANCH  18  20
ENDBRANCH  13  18
BRANCH  10  30
HETATM   30  C17 UNL     1     -12.265  14.147  27.367  1.00  0.00    -0.017 C 
BRANCH  30  31
HETATM   31  C18 UNL     1     -13.517  13.532  27.817  1.00  0.00    -0.091 C 
HETATM   32  C19 UNL     1     -13.813  12.217  27.099  1.00  0.00     0.042 C 
HETATM   33  C20 UNL     1     -14.743  14.331  27.981  1.00  0.00     0.042 C 
ENDBRANCH  30  31
ENDBRANCH  10  30
BRANCH   1  34
HETATM   34  C8  UNL     1      -9.650  16.374  34.295  1.00  0.00     0.041 C 
BRANCH  34  35
HETATM   35  C7  UNL     1     -10.313  15.408  35.163  1.00  0.00    -0.025 C 
HETATM   36  C6  UNL     1     -11.610  15.332  35.197  1.00  0.00     0.004 C 
BRANCH  36  37
HETATM   37  C5  UNL     1     -12.412  14.410  36.049  1.00  0.00     0.055 C 
BRANCH  37  38
HETATM   38  C4  UNL     1     -12.188  13.346  36.551  1.00  0.00    -0.129 C 
BRANCH  38  39
HETATM   39  C3  UNL     1     -11.803  12.189  37.364  1.00  0.00     0.051 C 
HETATM   40  C2  UNL     1     -12.155  12.111  38.660  1.00  0.00    -0.023 C 
HETATM   41  C1  UNL     1     -11.700  10.873  39.388  1.00  0.00     0.036 C 
ENDBRANCH  38  39
ENDBRANCH  37  38
ENDBRANCH  36  37
ENDBRANCH  34  35
ENDBRANCH   1  34
BRANCH   9  42
HETATM   42  C15 UNL     1      -8.936  14.691  26.961  1.00  0.00     0.261 C 
HETATM   43  N2  UNL     1      -8.924  15.037  25.607  1.00  0.00    -0.060 NA
HETATM   44  O3  UNL     1      -7.952  13.947  27.348  1.00  0.00    -0.274 OA
ENDBRANCH   9  42
BRANCH   7  45
HETATM   45  O1  UNL     1     -10.313  18.320  27.007  1.00  0.00    -0.327 OA
ATOM     46  H1  UNL     1     -11.253  18.233  26.896  1.00  0.00     0.221 HD
ENDBRANCH   7  45
TORSDOF 13
ENDMDL
MODEL 4
REMARK VINA RESULT: -8.430056015      2.271      8.128
REMARK  13 active torsions:
REMARK  status: ('A' for Active; 'I' for Inactive)
REMARK    1  A    between atoms: C3_3  and  C4_4 
REMARK    2  A    between atoms: C4_4  and  C5_5 
REMARK    3  A    between atoms: C5_5  and  C6_6 
REMARK    4  A    between atoms: C7_7  and  C8_8 
REMARK    5  A    between atoms: C8_8  and  C9_9 
REMARK    6  A    between atoms: C13_15  and  O1_16 
REMARK    7  A    between atoms: C14_19  and  C15_20 
REMARK    8  A    between atoms: C16_23  and  C17_24 
REMARK    9  A    between atoms: C17_24  and  C18_25 
REMARK   10  A    between atoms: C23_30  and  C24_31 
REMARK   11  A    between atoms: C24_31  and  C25_33 
REMARK       I    between atoms: C25_33  and  N3_35 
REMARK   12  A    between atoms: N3_35  and  C26_37 
REMARK   13  A    between atoms: C26_37  and  C27_38 
ROOT
HETATM    1  C9  UNL     1     -11.566  14.677  33.419  1.00  0.00     0.081 C 
HETATM    2  C10 UNL     1     -11.774  14.329  34.890  1.00  0.00     0.016 C 
HETATM    3  C11 UNL     1     -11.289  12.953  35.278  1.00  0.00     0.020 C 
HETATM    4  C12 UNL     1     -12.424  12.318  36.081  1.00  0.00     0.123 C 
HETATM    5  N1  UNL     1     -12.381  10.899  36.079  1.00  0.00    -0.350 N 
ATOM      6  H1  UNL     1     -12.025  10.452  36.924  1.00  0.00     0.163 HD
HETATM    7  C13 UNL     1     -12.774  10.054  35.046  1.00  0.00     0.258 C 
HETATM    8  O2  UNL     1     -13.446  10.290  33.903  1.00  0.00    -0.301 OA
HETATM    9  C14 UNL     1     -14.650  10.839  33.562  1.00  0.00     0.229 C 
HETATM   10  C16 UNL     1     -14.909  10.829  32.094  1.00  0.00     0.047 C 
HETATM   11  C21 UNL     1     -14.273  12.041  31.396  1.00  0.00     0.014 C 
HETATM   12  C22 UNL     1     -12.789  12.002  31.493  1.00  0.00     0.034 C 
HETATM   13  C23 UNL     1     -12.270  13.372  30.878  1.00  0.00     0.164 C 
HETATM   14  N4  UNL     1     -13.195  14.318  31.453  1.00  0.00    -0.349 N 
ATOM     15  H4  UNL     1     -14.080  14.533  30.994  1.00  0.00     0.163 HD
HETATM   16  C31 UNL     1     -12.826  14.961  32.717  1.00  0.00     0.222 C 
HETATM   17  O7  UNL     1     -13.668  15.788  33.164  1.00  0.00    -0.273 OA
ENDROOT
BRANCH  13  18
HETATM   18  C24 UNL     1     -12.388  13.113  29.449  1.00  0.00     0.238 C 
HETATM   19  O4  UNL     1     -12.341  11.960  28.920  1.00  0.00    -0.285 OA
BRANCH  18  20
HETATM   20  C25 UNL     1     -12.569  14.213  28.499  1.00  0.00     0.289 C 
HETATM   21  O5  UNL     1     -13.729  14.598  28.167  1.00  0.00    -0.264 OA
HETATM   22  N3  UNL     1     -11.455  14.849  27.962  1.00  0.00    -0.352 N 
ATOM     23  H3  UNL     1     -10.521  14.599  28.285  1.00  0.00     0.162 HD
BRANCH  22  24
HETATM   24  C26 UNL     1     -11.624  15.878  26.934  1.00  0.00     0.155 C 
BRANCH  24  25
HETATM   25  C27 UNL     1     -10.519  15.898  25.984  1.00  0.00     0.139 C 
HETATM   26  C28 UNL     1      -9.375  14.984  26.470  1.00  0.00     0.035 C 
HETATM   27  C29 UNL     1      -8.498  15.195  25.226  1.00  0.00     0.029 C 
HETATM   28  C30 UNL     1      -8.850  16.608  24.792  1.00  0.00     0.168 C 
HETATM   29  O6  UNL     1      -9.894  17.057  25.693  1.00  0.00    -0.384 OA
ENDBRANCH  24  25
ENDBRANCH  22  24
ENDBRANCH  18  20
ENDBRANCH  13  18
BRANCH  10  30
HETATM   30  C17 UNL     1     -14.663   9.668  31.251  1.00  0.00    -0.017 C 
BRANCH  30  31
HETATM   31  C18 UNL     1     -14.122   8.404  31.758  1.00  0.00    -0.091 C 
HETATM   32  C19 UNL     1     -12.676   8.172  31.327  1.00  0.00     0.042 C 
HETATM   33  C20 UNL     1     -14.901   7.157  31.683  1.00  0.00     0.042 C 
ENDBRANCH  30  31
ENDBRANCH  10  30
BRANCH   1  34
HETATM   34  C8  UNL     1     -10.759  15.978  33.427  1.00  0.00     0.041 C 
BRANCH  34  35
HETATM   35  C7  UNL     1      -9.987  16.258  32.222  1.00  0.00    -0.025 C 
HETATM   36  C6  UNL     1      -9.430  15.291  31.555  1.00  0.00     0.004 C 
BRANCH  36  37
HETATM   37  C5  UNL     1      -8.602  15.437  30.326  1.00  0.00     0.055 C 
BRANCH  37  38
HETATM   38  C4  UNL     1      -8.292  16.373  29.647  1.00  0.00    -0.129 C 
BRANCH  38  39
HETATM   39  C3  UNL     1      -8.176  17.543  28.772  1.00  0.00     0.051 C 
HETATM   40  C2  UNL     1      -7.122  17.684  27.948  1.00  0.00    -0.023 C 
HETATM   41  C1  UNL     1      -7.116  18.928  27.099  1.00  0.00     0.036 C 
ENDBRANCH  38  39
ENDBRANCH  37  38
ENDBRANCH  36  37
ENDBRANCH  34  35
ENDBRANCH   1  34
BRANCH   9  42
HETATM   42  C15 UNL     1     -15.837  10.454  34.341  1.00  0.00     0.261 C 
HETATM   43  N2  UNL     1     -16.565   9.263  34.280  1.00  0.00    -0.060 NA
HETATM   44  O3  UNL     1     -16.274  11.325  35.192  1.00  0.00    -0.274 OA
ENDBRANCH   9  42
BRANCH   7  45
HETATM   45  O1  UNL     1     -12.428   8.808  35.203  1.00  0.00    -0.327 OA
ATOM     46  H1  UNL     1     -12.900   8.194  34.652  1.00  0.00     0.221 HD
ENDBRANCH   7  45
TORSDOF 13
ENDMDL
MODEL 5
REMARK VINA RESULT: -8.390392196      6.530     11.109
REMARK  13 active torsions:
REMARK  status: ('A' for Active; 'I' for Inactive)
REMARK    1  A    between atoms: C3_3  and  C4_4 
REMARK    2  A    between atoms: C4_4  and  C5_5 
REMARK    3  A    between atoms: C5_5  and  C6_6 
REMARK    4  A    between atoms: C7_7  and  C8_8 
REMARK    5  A    between atoms: C8_8  and  C9_9 
REMARK    6  A    between atoms: C13_15  and  O1_16 
REMARK    7  A    between atoms: C14_19  and  C15_20 
REMARK    8  A    between atoms: C16_23  and  C17_24 
REMARK    9  A    between atoms: C17_24  and  C18_25 
REMARK   10  A    between atoms: C23_30  and  C24_31 
REMARK   11  A    between atoms: C24_31  and  C25_33 
REMARK       I    between atoms: C25_33  and  N3_35 
REMARK   12  A    between atoms: N3_35  and  C26_37 
REMARK   13  A    between atoms: C26_37  and  C27_38 
ROOT
HETATM    1  C9  UNL     1      -6.999  17.277  22.197  1.00  0.00     0.081 C 
HETATM    2  C10 UNL     1      -6.578  17.215  20.731  1.00  0.00     0.016 C 
HETATM    3  C11 UNL     1      -5.619  16.096  20.407  1.00  0.00     0.020 C 
HETATM    4  C12 UNL     1      -4.497  16.728  19.584  1.00  0.00     0.123 C 
HETATM    5  N1  UNL     1      -3.285  15.991  19.634  1.00  0.00    -0.350 N 
ATOM      6  H1  UNL     1      -3.064  15.421  18.818  1.00  0.00     0.163 HD
HETATM    7  C13 UNL     1      -2.367  15.965  20.679  1.00  0.00     0.258 C 
HETATM    8  O2  UNL     1      -2.252  16.721  21.788  1.00  0.00    -0.301 OA
HETATM    9  C14 UNL     1      -2.137  18.054  22.066  1.00  0.00     0.229 C 
HETATM   10  C16 UNL     1      -2.015  18.345  23.522  1.00  0.00     0.047 C 
HETATM   11  C21 UNL     1      -3.390  18.425  24.204  1.00  0.00     0.014 C 
HETATM   12  C22 UNL     1      -4.089  17.112  24.163  1.00  0.00     0.034 C 
HETATM   13  C23 UNL     1      -5.542  17.368  24.751  1.00  0.00     0.164 C 
HETATM   14  N4  UNL     1      -5.901  18.610  24.111  1.00  0.00    -0.349 N 
ATOM     15  H4  UNL     1      -5.656  19.507  24.530  1.00  0.00     0.163 HD
HETATM   16  C31 UNL     1      -6.630  18.545  22.842  1.00  0.00     0.222 C 
HETATM   17  O7  UNL     1      -6.927  19.663  22.337  1.00  0.00    -0.273 OA
ENDROOT
BRANCH  13  18
HETATM   18  C24 UNL     1      -5.274  17.412  26.183  1.00  0.00     0.238 C 
HETATM   19  O4  UNL     1      -4.252  16.905  26.739  1.00  0.00    -0.285 OA
BRANCH  18  20
HETATM   20  C25 UNL     1      -6.209  18.065  27.103  1.00  0.00     0.289 C 
HETATM   21  O5  UNL     1      -6.112  19.302  27.354  1.00  0.00    -0.264 OA
HETATM   22  N3  UNL     1      -7.219  17.319  27.700  1.00  0.00    -0.352 N 
ATOM     23  H3  UNL     1      -7.353  16.342  27.442  1.00  0.00     0.162 HD
BRANCH  22  24
HETATM   24  C26 UNL     1      -8.092  17.938  28.700  1.00  0.00     0.155 C 
BRANCH  24  25
HETATM   25  C27 UNL     1      -8.678  16.959  29.605  1.00  0.00     0.139 C 
HETATM   26  C28 UNL     1      -8.279  15.530  29.184  1.00  0.00     0.035 C 
HETATM   27  C29 UNL     1      -8.975  14.842  30.369  1.00  0.00     0.029 C 
HETATM   28  C30 UNL     1     -10.150  15.760  30.659  1.00  0.00     0.168 C 
HETATM   29  O6  UNL     1     -10.017  16.882  29.750  1.00  0.00    -0.384 OA
ENDBRANCH  24  25
ENDBRANCH  22  24
ENDBRANCH  18  20
ENDBRANCH  13  18
BRANCH  10  30
HETATM   30  C17 UNL     1      -1.136  17.599  24.412  1.00  0.00    -0.017 C 
BRANCH  30  31
HETATM   31  C18 UNL     1      -0.298  16.483  23.967  1.00  0.00    -0.091 C 
HETATM   32  C19 UNL     1      -0.820  15.131  24.447  1.00  0.00     0.042 C 
HETATM   33  C20 UNL     1       1.170  16.546  24.064  1.00  0.00     0.042 C 
ENDBRANCH  30  31
ENDBRANCH  10  30
BRANCH   1  34
HETATM   34  C8  UNL     1      -8.529  17.218  22.176  1.00  0.00     0.041 C 
BRANCH  34  35
HETATM   35  C7  UNL     1      -9.162  16.655  23.362  1.00  0.00    -0.025 C 
HETATM   36  C6  UNL     1      -8.532  15.789  24.099  1.00  0.00     0.004 C 
BRANCH  36  37
HETATM   37  C5  UNL     1      -9.066  15.122  25.319  1.00  0.00     0.055 C 
BRANCH  37  38
HETATM   38  C4  UNL     1     -10.059  15.270  25.972  1.00  0.00    -0.129 C 
BRANCH  38  39
HETATM   39  C3  UNL     1     -11.187  15.234  26.906  1.00  0.00     0.051 C 
HETATM   40  C2  UNL     1     -11.535  14.089  27.522  1.00  0.00    -0.023 C 
HETATM   41  C1  UNL     1     -12.712  14.180  28.457  1.00  0.00     0.036 C 
ENDBRANCH  38  39
ENDBRANCH  37  38
ENDBRANCH  36  37
ENDBRANCH  34  35
ENDBRANCH   1  34
BRANCH   9  42
HETATM   42  C15 UNL     1      -1.207  18.857  21.257  1.00  0.00     0.261 C 
HETATM   43  N2  UNL     1       0.177  18.982  21.396  1.00  0.00    -0.060 NA
HETATM   44  O3  UNL     1      -1.729  19.542  20.291  1.00  0.00    -0.274 OA
ENDBRANCH   9  42
BRANCH   7  45
HETATM   45  O1  UNL     1      -1.454  15.043  20.576  1.00  0.00    -0.327 OA
ATOM     46  H1  UNL     1      -0.641  15.238  21.029  1.00  0.00     0.221 HD
ENDBRANCH   7  45
TORSDOF 13
ENDMDL
