MODEL 1
REMARK VINA RESULT: -8.493810153      0.000      0.000
REMARK  15 active torsions:
REMARK  status: ('A' for Active; 'I' for Inactive)
REMARK    1  A    between atoms: C2_2  and  N1_3 
REMARK    2  A    between atoms: C2_2  and  C30_43 
REMARK    3  A    between atoms: N1_3  and  C3_5 
REMARK    4  A    between atoms: C3_5  and  C5_7 
REMARK    5  A    between atoms: C5_7  and  C6_8 
REMARK    6  A    between atoms: C5_7  and  N2_17 
REMARK    7  A    between atoms: C6_8  and  C7_9 
REMARK    8  A    between atoms: C7_9  and  C8_10 
REMARK    9  A    between atoms: C8_10  and  O2_12 
REMARK   10  A    between atoms: O2_12  and  C9_13 
REMARK       I    between atoms: N2_17  and  C13_19 
REMARK   11  A    between atoms: C13_19  and  C14_21 
REMARK   12  A    between atoms: C14_21  and  O4_22 
REMARK   13  A    between atoms: C14_21  and  N3_24 
REMARK       I    between atoms: N3_24  and  C15_25 
REMARK   14  A    between atoms: N3_24  and  C26_39 
REMARK       I    between atoms: C15_25  and  N4_27 
REMARK   15  A    between atoms: N4_27  and  C16_29 
ROOT
HETATM    1  N2  UNL     1     -12.761  13.390  33.113  1.00  0.00    -0.347 N 
ATOM      2  H2  UNL     1     -12.519  12.586  32.533  1.00  0.00     0.163 HD
HETATM    3  C13 UNL     1     -13.497  14.500  32.497  1.00  0.00     0.293 C 
HETATM    4  O3  UNL     1     -13.721  15.400  33.321  1.00  0.00    -0.264 OA
ENDROOT
BRANCH   3   5
HETATM    5  C14 UNL     1     -13.848  14.441  31.136  1.00  0.00     0.216 C 
BRANCH   5   6
HETATM    6  O4  UNL     1     -15.011  15.029  30.870  1.00  0.00    -0.342 OA
ATOM      7  H4  UNL     1     -15.419  14.707  30.074  1.00  0.00     0.219 HD
ENDBRANCH   5   6
BRANCH   5   8
HETATM    8  N3  UNL     1     -13.232  13.883  29.960  1.00  0.00    -0.267 N 
HETATM    9  C15 UNL     1     -12.254  14.574  29.273  1.00  0.00     0.325 C 
HETATM   10  O5  UNL     1     -12.154  15.848  29.512  1.00  0.00    -0.247 OA
HETATM   11  N4  UNL     1     -11.289  14.175  28.329  1.00  0.00    -0.333 N 
ATOM     12  H4  UNL     1     -11.250  13.187  28.076  1.00  0.00     0.165 HD
BRANCH  11  13
HETATM   13  C16 UNL     1     -10.337  15.087  27.685  1.00  0.00     0.035 C 
HETATM   14  C17 UNL     1     -10.331  14.749  26.173  1.00  0.00     0.035 C 
HETATM   15  C18 UNL     1      -9.419  15.668  25.431  1.00  0.00    -0.012 C 
HETATM   16  C19 UNL     1      -7.988  15.632  25.920  1.00  0.00     0.009 C 
HETATM   17  C23 UNL     1      -9.883  17.117  25.591  1.00  0.00     0.009 C 
HETATM   18  C20 UNL     1      -8.016  15.827  27.400  1.00  0.00    -0.012 C 
HETATM   19  C21 UNL     1      -8.468  17.264  27.670  1.00  0.00     0.009 C 
HETATM   20  C25 UNL     1      -8.921  14.847  28.128  1.00  0.00     0.035 C 
HETATM   21  C22 UNL     1      -9.838  17.426  27.058  1.00  0.00    -0.012 C 
HETATM   22  C24 UNL     1     -10.765  16.508  27.821  1.00  0.00     0.035 C 
ENDBRANCH  11  13
BRANCH   8  23
HETATM   23  C26 UNL     1     -13.615  12.483  29.670  1.00  0.00     0.033 C 
HETATM   24  C27 UNL     1     -13.884  12.341  28.203  1.00  0.00     0.038 C 
HETATM   25  C28 UNL     1     -12.378  11.597  29.968  1.00  0.00     0.038 C 
HETATM   26  C29 UNL     1     -14.702  11.901  30.474  1.00  0.00     0.038 C 
ENDBRANCH   8  23
ENDBRANCH   5   8
ENDBRANCH   3   5
BRANCH   1  27
HETATM   27  C5  UNL     1     -12.368  13.382  34.482  1.00  0.00     0.107 C 
BRANCH  27  28
HETATM   28  C3  UNL     1     -12.884  12.197  35.269  1.00  0.00     0.096 C 
HETATM   29  C4  UNL     1     -14.375  12.258  35.358  1.00  0.00     0.034 C 
BRANCH  28  30
HETATM   30  N1  UNL     1     -12.356  11.002  34.701  1.00  0.00    -0.403 N 
ATOM     31  H1  UNL     1     -11.389  10.957  34.378  1.00  0.00     0.154 HD
BRANCH  30  32
HETATM   32  C2  UNL     1     -13.215   9.871  34.598  1.00  0.00     0.174 C 
HETATM   33  C1  UNL     1     -13.260   9.146  33.303  1.00  0.00     0.043 C 
BRANCH  32  34
HETATM   34  C30 UNL     1     -12.717   8.876  35.619  1.00  0.00     0.195 C 
HETATM   35  O6  UNL     1     -11.689   9.024  36.282  1.00  0.00    -0.646 OA
HETATM   36  O7  UNL     1     -13.458   7.697  35.847  1.00  0.00    -0.646 OA
ENDBRANCH  32  34
ENDBRANCH  30  32
ENDBRANCH  28  30
ENDBRANCH  27  28
BRANCH  27  37
HETATM   37  C6  UNL     1     -10.867  13.561  34.591  1.00  0.00     0.037 C 
BRANCH  37  38
HETATM   38  C7  UNL     1     -10.463  14.791  35.374  1.00  0.00     0.113 C 
BRANCH  38  39
HETATM   39  C8  UNL     1     -10.586  15.936  34.432  1.00  0.00     0.259 C 
HETATM   40  O1  UNL     1     -10.806  17.113  34.889  1.00  0.00    -0.265 OA
BRANCH  39  41
HETATM   41  O2  UNL     1     -10.479  15.848  33.059  1.00  0.00    -0.311 OA
BRANCH  41  42
HETATM   42  C9  UNL     1      -9.239  16.002  32.382  1.00  0.00     0.060 C 
HETATM   43  C10 UNL     1      -8.930  14.643  31.778  1.00  0.00     0.045 C 
HETATM   44  C11 UNL     1      -9.385  16.954  31.205  1.00  0.00     0.045 C 
HETATM   45  C12 UNL     1      -8.111  16.430  33.255  1.00  0.00     0.045 C 
ENDBRANCH  41  42
ENDBRANCH  39  41
ENDBRANCH  38  39
ENDBRANCH  37  38
ENDBRANCH  27  37
ENDBRANCH   1  27
TORSDOF 15
ENDMDL
MODEL 2
REMARK VINA RESULT: -8.410791571      0.876      1.271
REMARK  15 active torsions:
REMARK  status: ('A' for Active; 'I' for Inactive)
REMARK    1  A    between atoms: C2_2  and  N1_3 
REMARK    2  A    between atoms: C2_2  and  C30_43 
REMARK    3  A    between atoms: N1_3  and  C3_5 
REMARK    4  A    between atoms: C3_5  and  C5_7 
REMARK    5  A    between atoms: C5_7  and  C6_8 
REMARK    6  A    between atoms: C5_7  and  N2_17 
REMARK    7  A    between atoms: C6_8  and  C7_9 
REMARK    8  A    between atoms: C7_9  and  C8_10 
REMARK    9  A    between atoms: C8_10  and  O2_12 
REMARK   10  A    between atoms: O2_12  and  C9_13 
REMARK       I    between atoms: N2_17  and  C13_19 
REMARK   11  A    between atoms: C13_19  and  C14_21 
REMARK   12  A    between atoms: C14_21  and  O4_22 
REMARK   13  A    between atoms: C14_21  and  N3_24 
REMARK       I    between atoms: N3_24  and  C15_25 
REMARK   14  A    between atoms: N3_24  and  C26_39 
REMARK       I    between atoms: C15_25  and  N4_27 
REMARK   15  A    between atoms: N4_27  and  C16_29 
ROOT
HETATM    1  N2  UNL     1     -12.698  13.425  33.123  1.00  0.00    -0.347 N 
ATOM      2  H2  UNL     1     -12.433  12.638  32.532  1.00  0.00     0.163 HD
HETATM    3  C13 UNL     1     -13.470  14.520  32.524  1.00  0.00     0.293 C 
HETATM    4  O3  UNL     1     -13.719  15.402  33.360  1.00  0.00    -0.264 OA
ENDROOT
BRANCH   3   5
HETATM    5  C14 UNL     1     -13.823  14.468  31.163  1.00  0.00     0.216 C 
BRANCH   5   6
HETATM    6  O4  UNL     1     -14.973  15.080  30.898  1.00  0.00    -0.342 OA
ATOM      7  H4  UNL     1     -14.860  15.977  30.606  1.00  0.00     0.219 HD
ENDBRANCH   5   6
BRANCH   5   8
HETATM    8  N3  UNL     1     -13.219  13.897  29.987  1.00  0.00    -0.267 N 
HETATM    9  C15 UNL     1     -12.238  14.575  29.290  1.00  0.00     0.325 C 
HETATM   10  O5  UNL     1     -12.124  15.848  29.521  1.00  0.00    -0.247 OA
HETATM   11  N4  UNL     1     -11.283  14.160  28.343  1.00  0.00    -0.333 N 
ATOM     12  H4  UNL     1     -11.255  13.171  28.096  1.00  0.00     0.165 HD
BRANCH  11  13
HETATM   13  C16 UNL     1     -10.326  15.058  27.688  1.00  0.00     0.035 C 
HETATM   14  C17 UNL     1     -10.392  14.770  26.168  1.00  0.00     0.035 C 
HETATM   15  C18 UNL     1      -9.479  15.680  25.417  1.00  0.00    -0.012 C 
HETATM   16  C19 UNL     1      -8.032  15.579  25.845  1.00  0.00     0.009 C 
HETATM   17  C23 UNL     1      -9.884  17.138  25.640  1.00  0.00     0.009 C 
HETATM   18  C20 UNL     1      -7.993  15.727  27.330  1.00  0.00    -0.012 C 
HETATM   19  C21 UNL     1      -8.382  17.170  27.663  1.00  0.00     0.009 C 
HETATM   20  C25 UNL     1      -8.903  14.756  28.065  1.00  0.00     0.035 C 
HETATM   21  C22 UNL     1      -9.769  17.398  27.113  1.00  0.00    -0.012 C 
HETATM   22  C24 UNL     1     -10.696  16.489  27.885  1.00  0.00     0.035 C 
ENDBRANCH  11  13
BRANCH   8  23
HETATM   23  C26 UNL     1     -13.617  12.499  29.708  1.00  0.00     0.033 C 
HETATM   24  C27 UNL     1     -13.923  12.358  28.247  1.00  0.00     0.038 C 
HETATM   25  C28 UNL     1     -12.378  11.606  29.975  1.00  0.00     0.038 C 
HETATM   26  C29 UNL     1     -14.688  11.924  30.538  1.00  0.00     0.038 C 
ENDBRANCH   8  23
ENDBRANCH   5   8
ENDBRANCH   3   5
BRANCH   1  27
HETATM   27  C5  UNL     1     -12.301  13.412  34.491  1.00  0.00     0.107 C 
BRANCH  27  28
HETATM   28  C3  UNL     1     -12.761  12.191  35.259  1.00  0.00     0.096 C 
HETATM   29  C4  UNL     1     -13.444  11.237  34.332  1.00  0.00     0.034 C 
BRANCH  28  30
HETATM   30  N1  UNL     1     -11.653  11.655  35.977  1.00  0.00    -0.403 N 
ATOM     31  H1  UNL     1     -10.780  11.427  35.501  1.00  0.00     0.154 HD
BRANCH  30  32
HETATM   32  C2  UNL     1     -11.800  11.447  37.378  1.00  0.00     0.174 C 
HETATM   33  C1  UNL     1     -12.968  12.063  38.056  1.00  0.00     0.043 C 
BRANCH  32  34
HETATM   34  C30 UNL     1     -11.947   9.955  37.563  1.00  0.00     0.195 C 
HETATM   35  O6  UNL     1     -11.369   9.114  36.874  1.00  0.00    -0.646 OA
HETATM   36  O7  UNL     1     -12.792   9.470  38.584  1.00  0.00    -0.646 OA
ENDBRANCH  32  34
ENDBRANCH  30  32
ENDBRANCH  28  30
ENDBRANCH  27  28
BRANCH  27  37
HETATM   37  C6  UNL     1     -10.809  13.657  34.600  1.00  0.00     0.037 C 
BRANCH  37  38
HETATM   38  C7  UNL     1     -10.459  14.897  35.392  1.00  0.00     0.113 C 
BRANCH  38  39
HETATM   39  C8  UNL     1     -10.518  16.029  34.428  1.00  0.00     0.259 C 
HETATM   40  O1  UNL     1     -10.648  17.227  34.864  1.00  0.00    -0.265 OA
BRANCH  39  41
HETATM   41  O2  UNL     1     -10.439  15.907  33.056  1.00  0.00    -0.311 OA
BRANCH  41  42
HETATM   42  C9  UNL     1      -9.210  16.025  32.352  1.00  0.00     0.060 C 
HETATM   43  C10 UNL     1      -8.998  14.685  31.670  1.00  0.00     0.045 C 
HETATM   44  C11 UNL     1      -9.330  17.045  31.230  1.00  0.00     0.045 C 
HETATM   45  C12 UNL     1      -8.036  16.341  33.213  1.00  0.00     0.045 C 
ENDBRANCH  41  42
ENDBRANCH  39  41
ENDBRANCH  38  39
ENDBRANCH  37  38
ENDBRANCH  27  37
ENDBRANCH   1  27
TORSDOF 15
ENDMDL
MODEL 3
REMARK VINA RESULT: -8.311313703      0.302      1.274
REMARK  15 active torsions:
REMARK  status: ('A' for Active; 'I' for Inactive)
REMARK    1  A    between atoms: C2_2  and  N1_3 
REMARK    2  A    between atoms: C2_2  and  C30_43 
REMARK    3  A    between atoms: N1_3  and  C3_5 
REMARK    4  A    between atoms: C3_5  and  C5_7 
REMARK    5  A    between atoms: C5_7  and  C6_8 
REMARK    6  A    between atoms: C5_7  and  N2_17 
REMARK    7  A    between atoms: C6_8  and  C7_9 
REMARK    8  A    between atoms: C7_9  and  C8_10 
REMARK    9  A    between atoms: C8_10  and  O2_12 
REMARK   10  A    between atoms: O2_12  and  C9_13 
REMARK       I    between atoms: N2_17  and  C13_19 
REMARK   11  A    between atoms: C13_19  and  C14_21 
REMARK   12  A    between atoms: C14_21  and  O4_22 
REMARK   13  A    between atoms: C14_21  and  N3_24 
REMARK       I    between atoms: N3_24  and  C15_25 
REMARK   14  A    between atoms: N3_24  and  C26_39 
REMARK       I    between atoms: C15_25  and  N4_27 
REMARK   15  A    between atoms: N4_27  and  C16_29 
ROOT
HETATM    1  N2  UNL     1     -12.780  13.416  33.044  1.00  0.00    -0.347 N 
ATOM      2  H2  UNL     1     -12.535  12.607  32.474  1.00  0.00     0.163 HD
HETATM    3  C13 UNL     1     -13.520  14.516  32.415  1.00  0.00     0.293 C 
HETATM    4  O3  UNL     1     -13.748  15.425  33.228  1.00  0.00    -0.264 OA
ENDROOT
BRANCH   3   5
HETATM    5  C14 UNL     1     -13.870  14.439  31.055  1.00  0.00     0.216 C 
BRANCH   5   6
HETATM    6  O4  UNL     1     -15.043  15.005  30.784  1.00  0.00    -0.342 OA
ATOM      7  H4  UNL     1     -15.784  14.498  31.098  1.00  0.00     0.219 HD
ENDBRANCH   5   6
BRANCH   5   8
HETATM    8  N3  UNL     1     -13.245  13.882  29.884  1.00  0.00    -0.267 N 
HETATM    9  C15 UNL     1     -12.281  14.586  29.189  1.00  0.00     0.325 C 
HETATM   10  O5  UNL     1     -12.206  15.864  29.415  1.00  0.00    -0.247 OA
HETATM   11  N4  UNL     1     -11.310  14.197  28.247  1.00  0.00    -0.333 N 
ATOM     12  H4  UNL     1     -11.251  13.208  28.004  1.00  0.00     0.165 HD
BRANCH  11  13
HETATM   13  C16 UNL     1     -10.376  15.121  27.593  1.00  0.00     0.035 C 
HETATM   14  C17 UNL     1      -8.944  14.626  27.911  1.00  0.00     0.035 C 
HETATM   15  C18 UNL     1      -7.926  15.487  27.239  1.00  0.00    -0.012 C 
HETATM   16  C19 UNL     1      -8.010  16.945  27.631  1.00  0.00     0.009 C 
HETATM   17  C23 UNL     1      -8.116  15.446  25.722  1.00  0.00     0.009 C 
HETATM   18  C20 UNL     1      -9.426  17.378  27.446  1.00  0.00    -0.012 C 
HETATM   19  C21 UNL     1      -9.720  17.376  25.943  1.00  0.00     0.009 C 
HETATM   20  C25 UNL     1     -10.432  16.504  28.177  1.00  0.00     0.035 C 
HETATM   21  C22 UNL     1      -9.494  15.969  25.445  1.00  0.00    -0.012 C 
HETATM   22  C24 UNL     1     -10.535  15.100  26.111  1.00  0.00     0.035 C 
ENDBRANCH  11  13
BRANCH   8  23
HETATM   23  C26 UNL     1     -13.600  12.472  29.608  1.00  0.00     0.033 C 
HETATM   24  C27 UNL     1     -13.856  12.309  28.140  1.00  0.00     0.038 C 
HETATM   25  C28 UNL     1     -12.349  11.613  29.925  1.00  0.00     0.038 C 
HETATM   26  C29 UNL     1     -14.682  11.880  30.410  1.00  0.00     0.038 C 
ENDBRANCH   8  23
ENDBRANCH   5   8
ENDBRANCH   3   5
BRANCH   1  27
HETATM   27  C5  UNL     1     -12.388  13.426  34.414  1.00  0.00     0.107 C 
BRANCH  27  28
HETATM   28  C3  UNL     1     -12.840  12.213  35.198  1.00  0.00     0.096 C 
HETATM   29  C4  UNL     1     -14.311  12.292  35.450  1.00  0.00     0.034 C 
BRANCH  28  30
HETATM   30  N1  UNL     1     -12.399  11.039  34.523  1.00  0.00    -0.403 N 
ATOM     31  H1  UNL     1     -11.433  10.945  34.210  1.00  0.00     0.154 HD
BRANCH  30  32
HETATM   32  C2  UNL     1     -13.346   9.999  34.299  1.00  0.00     0.174 C 
HETATM   33  C1  UNL     1     -13.469   9.454  32.923  1.00  0.00     0.043 C 
BRANCH  32  34
HETATM   34  C30 UNL     1     -12.909   8.844  35.169  1.00  0.00     0.195 C 
HETATM   35  O6  UNL     1     -12.009   8.914  36.007  1.00  0.00    -0.646 OA
HETATM   36  O7  UNL     1     -13.559   7.598  35.034  1.00  0.00    -0.646 OA
ENDBRANCH  32  34
ENDBRANCH  30  32
ENDBRANCH  28  30
ENDBRANCH  27  28
BRANCH  27  37
HETATM   37  C6  UNL     1     -10.898  13.685  34.524  1.00  0.00     0.037 C 
BRANCH  37  38
HETATM   38  C7  UNL     1     -10.560  14.906  35.351  1.00  0.00     0.113 C 
BRANCH  38  39
HETATM   39  C8  UNL     1     -10.553  16.054  34.404  1.00  0.00     0.259 C 
HETATM   40  O1  UNL     1     -10.602  17.251  34.858  1.00  0.00    -0.265 OA
BRANCH  39  41
HETATM   41  O2  UNL     1     -10.493  15.947  33.029  1.00  0.00    -0.311 OA
BRANCH  41  42
HETATM   42  C9  UNL     1      -9.260  15.923  32.323  1.00  0.00     0.060 C 
HETATM   43  C10 UNL     1      -9.294  17.128  31.398  1.00  0.00     0.045 C 
HETATM   44  C11 UNL     1      -8.094  16.163  33.270  1.00  0.00     0.045 C 
HETATM   45  C12 UNL     1      -9.031  14.686  31.526  1.00  0.00     0.045 C 
ENDBRANCH  41  42
ENDBRANCH  39  41
ENDBRANCH  38  39
ENDBRANCH  37  38
ENDBRANCH  27  37
ENDBRANCH   1  27
TORSDOF 15
ENDMDL
MODEL 4
REMARK VINA RESULT: -8.282902617      0.979      1.345
REMARK  15 active torsions:
REMARK  status: ('A' for Active; 'I' for Inactive)
REMARK    1  A    between atoms: C2_2  and  N1_3 
REMARK    2  A    between atoms: C2_2  and  C30_43 
REMARK    3  A    between atoms: N1_3  and  C3_5 
REMARK    4  A    between atoms: C3_5  and  C5_7 
REMARK    5  A    between atoms: C5_7  and  C6_8 
REMARK    6  A    between atoms: C5_7  and  N2_17 
REMARK    7  A    between atoms: C6_8  and  C7_9 
REMARK    8  A    between atoms: C7_9  and  C8_10 
REMARK    9  A    between atoms: C8_10  and  O2_12 
REMARK   10  A    between atoms: O2_12  and  C9_13 
REMARK       I    between atoms: N2_17  and  C13_19 
REMARK   11  A    between atoms: C13_19  and  C14_21 
REMARK   12  A    between atoms: C14_21  and  O4_22 
REMARK   13  A    between atoms: C14_21  and  N3_24 
REMARK       I    between atoms: N3_24  and  C15_25 
REMARK   14  A    between atoms: N3_24  and  C26_39 
REMARK       I    between atoms: C15_25  and  N4_27 
REMARK   15  A    between atoms: N4_27  and  C16_29 
ROOT
HETATM    1  N2  UNL     1     -12.756  13.338  33.015  1.00  0.00    -0.347 N 
ATOM      2  H2  UNL     1     -12.434  12.589  32.402  1.00  0.00     0.163 HD
HETATM    3  C13 UNL     1     -13.568  14.415  32.437  1.00  0.00     0.293 C 
HETATM    4  O3  UNL     1     -13.887  15.248  33.298  1.00  0.00    -0.264 OA
ENDROOT
BRANCH   3   5
HETATM    5  C14 UNL     1     -13.879  14.400  31.065  1.00  0.00     0.216 C 
BRANCH   5   6
HETATM    6  O4  UNL     1     -15.027  15.009  30.782  1.00  0.00    -0.342 OA
ATOM      7  H4  UNL     1     -15.424  14.702  29.975  1.00  0.00     0.219 HD
ENDBRANCH   5   6
BRANCH   5   8
HETATM    8  N3  UNL     1     -13.234  13.869  29.891  1.00  0.00    -0.267 N 
HETATM    9  C15 UNL     1     -12.249  14.582  29.237  1.00  0.00     0.325 C 
HETATM   10  O5  UNL     1     -12.165  15.852  29.502  1.00  0.00    -0.247 OA
HETATM   11  N4  UNL     1     -11.261  14.209  28.306  1.00  0.00    -0.333 N 
ATOM     12  H4  UNL     1     -11.208  13.227  28.036  1.00  0.00     0.165 HD
BRANCH  11  13
HETATM   13  C16 UNL     1     -10.305  15.140  27.699  1.00  0.00     0.035 C 
HETATM   14  C17 UNL     1     -10.268  14.835  26.181  1.00  0.00     0.035 C 
HETATM   15  C18 UNL     1      -9.350  15.776  25.474  1.00  0.00    -0.012 C 
HETATM   16  C19 UNL     1      -7.928  15.739  25.989  1.00  0.00     0.009 C 
HETATM   17  C23 UNL     1      -9.827  17.219  25.657  1.00  0.00     0.009 C 
HETATM   18  C20 UNL     1      -7.984  15.902  27.471  1.00  0.00    -0.012 C 
HETATM   19  C21 UNL     1      -8.451  17.331  27.764  1.00  0.00     0.009 C 
HETATM   20  C25 UNL     1      -8.895  14.901  28.162  1.00  0.00     0.035 C 
HETATM   21  C22 UNL     1      -9.811  17.496  27.131  1.00  0.00    -0.012 C 
HETATM   22  C24 UNL     1     -10.745  16.556  27.857  1.00  0.00     0.035 C 
ENDBRANCH  11  13
BRANCH   8  23
HETATM   23  C26 UNL     1     -13.599  12.472  29.567  1.00  0.00     0.033 C 
HETATM   24  C27 UNL     1     -13.869  12.364  28.097  1.00  0.00     0.038 C 
HETATM   25  C28 UNL     1     -12.349  11.596  29.841  1.00  0.00     0.038 C 
HETATM   26  C29 UNL     1     -14.676  11.856  30.358  1.00  0.00     0.038 C 
ENDBRANCH   8  23
ENDBRANCH   5   8
ENDBRANCH   3   5
BRANCH   1  27
HETATM   27  C5  UNL     1     -12.398  13.290  34.393  1.00  0.00     0.107 C 
BRANCH  27  28
HETATM   28  C3  UNL     1     -12.914  12.070  35.126  1.00  0.00     0.096 C 
HETATM   29  C4  UNL     1     -13.809  12.493  36.247  1.00  0.00     0.034 C 
BRANCH  28  30
HETATM   30  N1  UNL     1     -13.499  11.179  34.182  1.00  0.00    -0.403 N 
ATOM     31  H1  UNL     1     -14.290  11.469  33.606  1.00  0.00     0.154 HD
BRANCH  30  32
HETATM   32  C2  UNL     1     -12.950   9.870  34.064  1.00  0.00     0.174 C 
HETATM   33  C1  UNL     1     -13.157   8.924  35.190  1.00  0.00     0.043 C 
BRANCH  32  34
HETATM   34  C30 UNL     1     -13.619   9.245  32.863  1.00  0.00     0.195 C 
HETATM   35  O6  UNL     1     -14.839   9.148  32.726  1.00  0.00    -0.646 OA
HETATM   36  O7  UNL     1     -12.818   8.735  31.819  1.00  0.00    -0.646 OA
ENDBRANCH  32  34
ENDBRANCH  30  32
ENDBRANCH  28  30
ENDBRANCH  27  28
BRANCH  27  37
HETATM   37  C6  UNL     1     -10.904  13.488  34.547  1.00  0.00     0.037 C 
BRANCH  37  38
HETATM   38  C7  UNL     1     -10.540  14.705  35.368  1.00  0.00     0.113 C 
BRANCH  38  39
HETATM   39  C8  UNL     1     -10.650  15.869  34.448  1.00  0.00     0.259 C 
HETATM   40  O1  UNL     1     -10.838  17.043  34.928  1.00  0.00    -0.265 OA
BRANCH  39  41
HETATM   41  O2  UNL     1     -10.563  15.803  33.072  1.00  0.00    -0.311 OA
BRANCH  41  42
HETATM   42  C9  UNL     1      -9.319  15.841  32.387  1.00  0.00     0.060 C 
HETATM   43  C10 UNL     1      -9.475  16.904  31.312  1.00  0.00     0.045 C 
HETATM   44  C11 UNL     1      -8.216  16.343  33.306  1.00  0.00     0.045 C 
HETATM   45  C12 UNL     1      -8.920  14.551  31.761  1.00  0.00     0.045 C 
ENDBRANCH  41  42
ENDBRANCH  39  41
ENDBRANCH  38  39
ENDBRANCH  37  38
ENDBRANCH  27  37
ENDBRANCH   1  27
TORSDOF 15
ENDMDL
MODEL 5
REMARK VINA RESULT: -8.265743754      5.289     10.848
REMARK  15 active torsions:
REMARK  status: ('A' for Active; 'I' for Inactive)
REMARK    1  A    between atoms: C2_2  and  N1_3 
REMARK    2  A    between atoms: C2_2  and  C30_43 
REMARK    3  A    between atoms: N1_3  and  C3_5 
REMARK    4  A    between atoms: C3_5  and  C5_7 
REMARK    5  A    between atoms: C5_7  and  C6_8 
REMARK    6  A    between atoms: C5_7  and  N2_17 
REMARK    7  A    between atoms: C6_8  and  C7_9 
REMARK    8  A    between atoms: C7_9  and  C8_10 
REMARK    9  A    between atoms: C8_10  and  O2_12 
REMARK   10  A    between atoms: O2_12  and  C9_13 
REMARK       I    between atoms: N2_17  and  C13_19 
REMARK   11  A    between atoms: C13_19  and  C14_21 
REMARK   12  A    between atoms: C14_21  and  O4_22 
REMARK   13  A    between atoms: C14_21  and  N3_24 
REMARK       I    between atoms: N3_24  and  C15_25 
REMARK   14  A    between atoms: N3_24  and  C26_39 
REMARK       I    between atoms: C15_25  and  N4_27 
REMARK   15  A    between atoms: N4_27  and  C16_29 
ROOT
HETATM    1  N2  UNL     1      -6.633  18.432  25.405  1.00  0.00    -0.347 N 
ATOM      2  H2  UNL     1      -7.171  19.297  25.442  1.00  0.00     0.163 HD
HETATM    3  C13 UNL     1      -6.927  17.382  26.387  1.00  0.00     0.293 C 
HETATM    4  O3  UNL     1      -6.198  16.394  26.218  1.00  0.00    -0.264 OA
ENDROOT
BRANCH   3   5
HETATM    5  C14 UNL     1      -7.929  17.586  27.353  1.00  0.00     0.216 C 
BRANCH   5   6
HETATM    6  O4  UNL     1      -7.951  18.827  27.830  1.00  0.00    -0.342 OA
ATOM      7  H4  UNL     1      -8.810  19.094  28.137  1.00  0.00     0.219 HD
ENDBRANCH   5   6
BRANCH   5   8
HETATM    8  N3  UNL     1      -8.941  16.750  27.947  1.00  0.00    -0.267 N 
HETATM    9  C15 UNL     1      -8.981  16.542  29.311  1.00  0.00     0.325 C 
HETATM   10  O5  UNL     1      -7.909  16.836  29.985  1.00  0.00    -0.247 OA
HETATM   11  N4  UNL     1      -9.986  16.064  30.173  1.00  0.00    -0.333 N 
ATOM     12  H4  UNL     1     -10.889  15.823  29.765  1.00  0.00     0.165 HD
BRANCH  11  13
HETATM   13  C16 UNL     1      -9.819  15.891  31.620  1.00  0.00     0.035 C 
HETATM   14  C17 UNL     1     -11.237  15.800  32.237  1.00  0.00     0.035 C 
HETATM   15  C18 UNL     1     -11.159  15.573  33.711  1.00  0.00    -0.012 C 
HETATM   16  C19 UNL     1     -10.399  16.650  34.452  1.00  0.00     0.009 C 
HETATM   17  C23 UNL     1     -10.428  14.262  34.006  1.00  0.00     0.009 C 
HETATM   18  C20 UNL     1      -9.084  16.823  33.767  1.00  0.00    -0.012 C 
HETATM   19  C21 UNL     1      -8.264  15.552  34.009  1.00  0.00     0.009 C 
HETATM   20  C25 UNL     1      -9.202  17.094  32.277  1.00  0.00     0.035 C 
HETATM   21  C22 UNL     1      -9.048  14.398  33.434  1.00  0.00    -0.012 C 
HETATM   22  C24 UNL     1      -9.113  14.618  31.941  1.00  0.00     0.035 C 
ENDBRANCH  11  13
BRANCH   8  23
HETATM   23  C26 UNL     1      -9.988  16.290  27.008  1.00  0.00     0.033 C 
HETATM   24  C27 UNL     1      -9.777  14.837  26.709  1.00  0.00     0.038 C 
HETATM   25  C28 UNL     1     -11.345  16.384  27.753  1.00  0.00     0.038 C 
HETATM   26  C29 UNL     1     -10.177  17.070  25.774  1.00  0.00     0.038 C 
ENDBRANCH   8  23
ENDBRANCH   5   8
ENDBRANCH   3   5
BRANCH   1  27
HETATM   27  C5  UNL     1      -5.630  18.299  24.402  1.00  0.00     0.107 C 
BRANCH  27  28
HETATM   28  C3  UNL     1      -6.110  18.605  22.999  1.00  0.00     0.096 C 
HETATM   29  C4  UNL     1      -5.154  18.037  22.000  1.00  0.00     0.034 C 
BRANCH  28  30
HETATM   30  N1  UNL     1      -7.459  18.167  22.868  1.00  0.00    -0.403 N 
ATOM     31  H1  UNL     1      -8.233  18.740  23.206  1.00  0.00     0.154 HD
BRANCH  30  32
HETATM   32  C2  UNL     1      -7.698  16.905  22.251  1.00  0.00     0.174 C 
HETATM   33  C1  UNL     1      -7.788  15.709  23.126  1.00  0.00     0.043 C 
BRANCH  32  34
HETATM   34  C30 UNL     1      -9.037  17.025  21.565  1.00  0.00     0.195 C 
HETATM   35  O6  UNL     1      -9.281  17.829  20.664  1.00  0.00    -0.646 OA
HETATM   36  O7  UNL     1     -10.091  16.174  21.961  1.00  0.00    -0.646 OA
ENDBRANCH  32  34
ENDBRANCH  30  32
ENDBRANCH  28  30
ENDBRANCH  27  28
BRANCH  27  37
HETATM   37  C6  UNL     1      -4.397  19.088  24.794  1.00  0.00     0.037 C 
BRANCH  37  38
HETATM   38  C7  UNL     1      -3.302  18.234  25.393  1.00  0.00     0.113 C 
BRANCH  38  39
HETATM   39  C8  UNL     1      -2.066  18.557  24.630  1.00  0.00     0.259 C 
HETATM   40  O1  UNL     1      -1.996  19.653  23.970  1.00  0.00    -0.265 OA
BRANCH  39  41
HETATM   41  O2  UNL     1      -0.943  17.757  24.565  1.00  0.00    -0.311 OA
BRANCH  41  42
HETATM   42  C9  UNL     1      -0.853  16.644  23.686  1.00  0.00     0.060 C 
HETATM   43  C10 UNL     1       0.608  16.561  23.278  1.00  0.00     0.045 C 
HETATM   44  C11 UNL     1      -1.149  15.350  24.427  1.00  0.00     0.045 C 
HETATM   45  C12 UNL     1      -1.707  16.749  22.470  1.00  0.00     0.045 C 
ENDBRANCH  41  42
ENDBRANCH  39  41
ENDBRANCH  38  39
ENDBRANCH  37  38
ENDBRANCH  27  37
ENDBRANCH   1  27
TORSDOF 15
ENDMDL
