MODEL 1
REMARK VINA RESULT: -5.941032634      0.000      0.000
REMARK  2 active torsions:
REMARK  status: ('A' for Active; 'I' for Inactive)
REMARK    1  A    between atoms: C2_10  and  N4_11 
REMARK    2  A    between atoms: C2_10  and  C3_15 
ROOT
HETATM    1  N1  UNL     1      24.142  61.986   7.746  1.00  0.00    -0.063 NA
HETATM    2  C1  UNL     1      24.275  62.980   8.791  1.00  0.00     0.199 C 
HETATM    3  N2  UNL     1      24.989  62.634   9.783  1.00  0.00    -0.241 N 
ATOM      4  H2  UNL     1      25.380  61.694   9.717  1.00  0.00     0.183 HD
HETATM    5  S1  UNL     1      25.407  63.480  11.215  1.00  0.00     0.323 S 
HETATM    6  O1  UNL     1      26.785  63.076  11.679  1.00  0.00    -0.182 OA
HETATM    7  O2  UNL     1      24.472  63.034  12.327  1.00  0.00    -0.182 OA
HETATM    8  N3  UNL     1      25.255  65.119  11.006  1.00  0.00    -0.258 N 
ATOM      9  H3  UNL     1      25.215  65.726  11.825  1.00  0.00     0.177 HD
HETATM   10  C2  UNL     1      25.181  65.685   9.730  1.00  0.00     0.308 C 
HETATM   11  C4  UNL     1      23.854  65.526   9.024  1.00  0.00     0.196 C 
HETATM   12  N5  UNL     1      23.591  64.208   8.567  1.00  0.00    -0.359 N 
ATOM     13  H5  UNL     1      22.766  64.127   7.973  1.00  0.00     0.162 HD
ENDROOT
BRANCH  10  14
HETATM   14  N4  UNL     1      25.323  67.148   9.910  1.00  0.00    -0.040 N 
ATOM     15  H43 UNL     1      24.495  67.589  10.310  1.00  0.00     0.278 HD
ATOM     16  H42 UNL     1      25.972  67.403  10.655  1.00  0.00     0.278 HD
ATOM     17  H41 UNL     1      25.584  67.528   9.000  1.00  0.00     0.278 HD
ENDBRANCH  10  14
BRANCH  10  18
HETATM   18  C3  UNL     1      26.312  65.319   8.838  1.00  0.00     0.234 C 
HETATM   19  O3  UNL     1      26.109  65.009   7.641  1.00  0.00    -0.645 OA
HETATM   20  O4  UNL     1      27.615  65.309   9.302  1.00  0.00    -0.645 OA
ENDBRANCH  10  18
TORSDOF 2
ENDMDL
MODEL 2
REMARK VINA RESULT: -5.805480269      1.583      2.248
REMARK  2 active torsions:
REMARK  status: ('A' for Active; 'I' for Inactive)
REMARK    1  A    between atoms: C2_10  and  N4_11 
REMARK    2  A    between atoms: C2_10  and  C3_15 
ROOT
HETATM    1  N1  UNL     1      27.380  61.685  10.203  1.00  0.00    -0.063 NA
HETATM    2  C1  UNL     1      26.138  62.422  10.316  1.00  0.00     0.199 C 
HETATM    3  N2  UNL     1      26.046  63.180  11.331  1.00  0.00    -0.241 N 
ATOM      4  H2  UNL     1      26.863  63.172  11.941  1.00  0.00     0.183 HD
HETATM    5  S1  UNL     1      24.780  64.214  11.848  1.00  0.00     0.323 S 
HETATM    6  O1  UNL     1      25.346  65.418  12.561  1.00  0.00    -0.182 OA
HETATM    7  O2  UNL     1      23.962  63.483  12.901  1.00  0.00    -0.182 OA
HETATM    8  N3  UNL     1      23.789  64.625  10.583  1.00  0.00    -0.258 N 
ATOM      9  H3  UNL     1      22.864  65.010  10.776  1.00  0.00     0.177 HD
HETATM   10  C2  UNL     1      24.195  64.452   9.256  1.00  0.00     0.308 C 
HETATM   11  C4  UNL     1      24.167  63.030   8.747  1.00  0.00     0.196 C 
HETATM   12  N5  UNL     1      25.191  62.201   9.276  1.00  0.00    -0.359 N 
ATOM     13  H5  UNL     1      25.260  61.285   8.833  1.00  0.00     0.162 HD
ENDROOT
BRANCH  10  14
HETATM   14  N4  UNL     1      23.199  65.159   8.417  1.00  0.00    -0.040 N 
ATOM     15  H43 UNL     1      22.754  65.943   8.893  1.00  0.00     0.278 HD
ATOM     16  H42 UNL     1      23.618  65.694   7.657  1.00  0.00     0.278 HD
ATOM     17  H41 UNL     1      22.538  64.452   8.096  1.00  0.00     0.278 HD
ENDBRANCH  10  14
BRANCH  10  18
HETATM   18  C3  UNL     1      25.483  65.118   8.926  1.00  0.00     0.234 C 
HETATM   19  O3  UNL     1      26.128  64.789   7.904  1.00  0.00    -0.645 OA
HETATM   20  O4  UNL     1      26.002  66.112   9.734  1.00  0.00    -0.645 OA
ENDBRANCH  10  18
TORSDOF 2
ENDMDL
MODEL 3
REMARK VINA RESULT: -5.755003792      2.444      3.672
REMARK  2 active torsions:
REMARK  status: ('A' for Active; 'I' for Inactive)
REMARK    1  A    between atoms: C2_10  and  N4_11 
REMARK    2  A    between atoms: C2_10  and  C3_15 
ROOT
HETATM    1  N1  UNL     1      27.801  66.204   8.271  1.00  0.00    -0.063 NA
HETATM    2  C1  UNL     1      26.780  65.618   9.114  1.00  0.00     0.199 C 
HETATM    3  N2  UNL     1      25.917  64.907   8.510  1.00  0.00    -0.241 N 
ATOM      4  H2  UNL     1      26.055  64.841   7.501  1.00  0.00     0.183 HD
HETATM    5  S1  UNL     1      24.561  64.042   9.104  1.00  0.00     0.323 S 
HETATM    6  O1  UNL     1      24.326  62.803   8.273  1.00  0.00    -0.182 OA
HETATM    7  O2  UNL     1      23.320  64.894   8.898  1.00  0.00    -0.182 OA
HETATM    8  N3  UNL     1      24.727  63.708  10.720  1.00  0.00    -0.258 N 
ATOM      9  H3  UNL     1      23.905  63.437  11.261  1.00  0.00     0.177 HD
HETATM   10  C2  UNL     1      25.969  63.791  11.356  1.00  0.00     0.308 C 
HETATM   11  C4  UNL     1      26.457  65.190  11.650  1.00  0.00     0.196 C 
HETATM   12  N5  UNL     1      26.880  65.913  10.504  1.00  0.00    -0.359 N 
ATOM     13  H5  UNL     1      27.337  66.801  10.712  1.00  0.00     0.162 HD
ENDROOT
BRANCH  10  14
HETATM   14  N4  UNL     1      25.798  63.177  12.694  1.00  0.00    -0.040 N 
ATOM     15  H43 UNL     1      24.950  63.481  13.173  1.00  0.00     0.278 HD
ATOM     16  H42 UNL     1      25.572  62.183  12.657  1.00  0.00     0.278 HD
ATOM     17  H41 UNL     1      26.651  63.378  13.215  1.00  0.00     0.278 HD
ENDBRANCH  10  14
BRANCH  10  18
HETATM   18  C3  UNL     1      27.032  62.972  10.717  1.00  0.00     0.234 C 
HETATM   19  O3  UNL     1      26.756  61.878  10.172  1.00  0.00    -0.645 OA
HETATM   20  O4  UNL     1      28.349  63.393  10.705  1.00  0.00    -0.645 OA
ENDBRANCH  10  18
TORSDOF 2
ENDMDL
MODEL 4
REMARK VINA RESULT: -5.627643845      1.728      2.126
REMARK  2 active torsions:
REMARK  status: ('A' for Active; 'I' for Inactive)
REMARK    1  A    between atoms: C2_10  and  N4_11 
REMARK    2  A    between atoms: C2_10  and  C3_15 
ROOT
HETATM    1  N1  UNL     1      26.258  60.927   9.113  1.00  0.00    -0.063 NA
HETATM    2  C1  UNL     1      26.114  62.042  10.025  1.00  0.00     0.199 C 
HETATM    3  N2  UNL     1      27.158  62.345  10.682  1.00  0.00    -0.241 N 
ATOM      4  H2  UNL     1      27.969  61.760  10.483  1.00  0.00     0.183 HD
HETATM    5  S1  UNL     1      27.433  63.572  11.848  1.00  0.00     0.323 S 
HETATM    6  O1  UNL     1      28.859  64.059  11.769  1.00  0.00    -0.182 OA
HETATM    7  O2  UNL     1      27.305  62.957  13.232  1.00  0.00    -0.182 OA
HETATM    8  N3  UNL     1      26.326  64.799  11.697  1.00  0.00    -0.258 N 
ATOM      9  H3  UNL     1      26.200  65.456  12.467  1.00  0.00     0.177 HD
HETATM   10  C2  UNL     1      25.563  64.950  10.536  1.00  0.00     0.308 C 
HETATM   11  C4  UNL     1      24.422  63.972  10.376  1.00  0.00     0.196 C 
HETATM   12  N5  UNL     1      24.827  62.649  10.061  1.00  0.00    -0.359 N 
ATOM     13  H5  UNL     1      24.060  62.022   9.818  1.00  0.00     0.162 HD
ENDROOT
BRANCH  10  14
HETATM   14  N4  UNL     1      24.899  66.270  10.638  1.00  0.00    -0.040 N 
ATOM     15  H43 UNL     1      25.336  66.988  10.058  1.00  0.00     0.278 HD
ATOM     16  H42 UNL     1      23.980  66.296  10.198  1.00  0.00     0.278 HD
ATOM     17  H41 UNL     1      24.880  66.508  11.630  1.00  0.00     0.278 HD
ENDBRANCH  10  14
BRANCH  10  18
HETATM   18  C3  UNL     1      26.368  65.046   9.290  1.00  0.00     0.234 C 
HETATM   19  O3  UNL     1      27.547  65.469   9.322  1.00  0.00    -0.645 OA
HETATM   20  O4  UNL     1      25.842  64.673   8.067  1.00  0.00    -0.645 OA
ENDBRANCH  10  18
TORSDOF 2
ENDMDL
MODEL 5
REMARK VINA RESULT: -5.620532186      2.649      3.926
REMARK  2 active torsions:
REMARK  status: ('A' for Active; 'I' for Inactive)
REMARK    1  A    between atoms: C2_10  and  N4_11 
REMARK    2  A    between atoms: C2_10  and  C3_15 
ROOT
HETATM    1  N1  UNL     1      27.931  66.555   9.080  1.00  0.00    -0.063 NA
HETATM    2  C1  UNL     1      26.946  65.783   9.808  1.00  0.00     0.199 C 
HETATM    3  N2  UNL     1      26.276  64.960   9.109  1.00  0.00    -0.241 N 
ATOM      4  H2  UNL     1      26.519  64.949   8.119  1.00  0.00     0.183 HD
HETATM    5  S1  UNL     1      25.032  63.865   9.551  1.00  0.00     0.323 S 
HETATM    6  O1  UNL     1      25.088  62.632   8.683  1.00  0.00    -0.182 OA
HETATM    7  O2  UNL     1      23.692  64.508   9.235  1.00  0.00    -0.182 OA
HETATM    8  N3  UNL     1      25.094  63.513  11.171  1.00  0.00    -0.258 N 
ATOM      9  H3  UNL     1      24.281  63.094  11.623  1.00  0.00     0.177 HD
HETATM   10  C2  UNL     1      26.238  63.779  11.929  1.00  0.00     0.308 C 
HETATM   11  C4  UNL     1      26.456  65.230  12.291  1.00  0.00     0.196 C 
HETATM   12  N5  UNL     1      26.861  66.047  11.204  1.00  0.00    -0.359 N 
ATOM     13  H5  UNL     1      27.141  66.992  11.470  1.00  0.00     0.162 HD
ENDROOT
BRANCH  10  14
HETATM   14  N4  UNL     1      26.044  63.104  13.234  1.00  0.00    -0.040 N 
ATOM     15  H43 UNL     1      25.231  62.487  13.253  1.00  0.00     0.278 HD
ATOM     16  H42 UNL     1      26.747  62.391  13.429  1.00  0.00     0.278 HD
ATOM     17  H41 UNL     1      26.010  63.840  13.938  1.00  0.00     0.278 HD
ENDBRANCH  10  14
BRANCH  10  18
HETATM   18  C3  UNL     1      27.480  63.167  11.388  1.00  0.00     0.234 C 
HETATM   19  O3  UNL     1      28.604  63.638  11.679  1.00  0.00    -0.645 OA
HETATM   20  O4  UNL     1      27.430  62.067  10.551  1.00  0.00    -0.645 OA
ENDBRANCH  10  18
TORSDOF 2
ENDMDL
