MODEL 1
REMARK VINA RESULT: -5.425254749      0.000      0.000
REMARK  3 active torsions:
REMARK  status: ('A' for Active; 'I' for Inactive)
REMARK    1  A    between atoms: O1_1  and  S1_3 
REMARK    2  A    between atoms: S1_3  and  O2_4 
REMARK    3  A    between atoms: S1_3  and  O3_6 
ROOT
HETATM    1  S1  UNL     1     113.546   7.678  48.355  1.00  0.00     0.034 SA
HETATM    2  C1  UNL     1     115.258   7.330  49.145  1.00  0.00     0.139 C 
HETATM    3  C2  UNL     1     116.000   8.220  48.284  1.00  0.00     0.096 C 
HETATM    4  C3  UNL     1     116.174   8.928  47.580  1.00  0.00    -0.156 C 
HETATM    5  C4  UNL     1     115.963   9.892  46.595  1.00  0.00     0.255 C 
HETATM    6  O4  UNL     1     114.447   9.722  46.457  1.00  0.00    -0.342 OA
HETATM    7  C5  UNL     1     113.944   9.411  47.716  1.00  0.00     0.226 C 
ENDROOT
BRANCH   1   8
HETATM    8  O1  UNL     1     113.943   6.257  47.202  1.00  0.00    -0.313 OA
ATOM      9  H1  UNL     1     113.835   6.927  46.539  1.00  0.00     0.229 HD
ENDBRANCH   1   8
BRANCH   1  10
HETATM   10  O2  UNL     1     112.126   7.557  47.683  1.00  0.00    -0.313 OA
ATOM     11  H2  UNL     1     112.207   8.502  47.630  1.00  0.00     0.229 HD
ENDBRANCH   1  10
BRANCH   1  12
HETATM   12  O3  UNL     1     112.754   7.360  49.870  1.00  0.00    -0.313 OA
ATOM     13  H3  UNL     1     112.448   8.086  50.401  1.00  0.00     0.229 HD
ENDBRANCH   1  12
TORSDOF 3
ENDMDL
MODEL 2
REMARK VINA RESULT: -5.348015913      2.210      2.709
REMARK  3 active torsions:
REMARK  status: ('A' for Active; 'I' for Inactive)
REMARK    1  A    between atoms: O1_1  and  S1_3 
REMARK    2  A    between atoms: S1_3  and  O2_4 
REMARK    3  A    between atoms: S1_3  and  O3_6 
ROOT
HETATM    1  S1  UNL     1     113.440  10.781  48.357  1.00  0.00     0.034 SA
HETATM    2  C1  UNL     1     114.152   9.618  49.706  1.00  0.00     0.139 C 
HETATM    3  C2  UNL     1     115.251   9.126  48.909  1.00  0.00     0.096 C 
HETATM    4  C3  UNL     1     115.892   9.047  48.127  1.00  0.00    -0.156 C 
HETATM    5  C4  UNL     1     116.514   9.273  46.900  1.00  0.00     0.255 C 
HETATM    6  O4  UNL     1     115.521  10.302  46.349  1.00  0.00    -0.342 OA
HETATM    7  C5  UNL     1     115.059  11.056  47.422  1.00  0.00     0.226 C 
ENDROOT
BRANCH   1   8
HETATM    8  O1  UNL     1     112.414   9.308  47.824  1.00  0.00    -0.313 OA
ATOM      9  H1  UNL     1     111.694   9.893  48.027  1.00  0.00     0.229 HD
ENDBRANCH   1   8
BRANCH   1  10
HETATM   10  O2  UNL     1     112.509  11.539  47.336  1.00  0.00    -0.313 OA
ATOM     11  H2  UNL     1     113.137  12.239  47.473  1.00  0.00     0.229 HD
ENDBRANCH   1  10
BRANCH   1  12
HETATM   12  O3  UNL     1     112.827  11.861  49.575  1.00  0.00    -0.313 OA
ATOM     13  H3  UNL     1     113.415  12.201  50.240  1.00  0.00     0.229 HD
ENDBRANCH   1  12
TORSDOF 3
ENDMDL
MODEL 3
REMARK VINA RESULT: -5.222321758      2.859      3.729
REMARK  3 active torsions:
REMARK  status: ('A' for Active; 'I' for Inactive)
REMARK    1  A    between atoms: O1_1  and  S1_3 
REMARK    2  A    between atoms: S1_3  and  O2_4 
REMARK    3  A    between atoms: S1_3  and  O3_6 
ROOT
HETATM    1  S1  UNL     1     110.519   7.793  49.101  1.00  0.00     0.034 SA
HETATM    2  C1  UNL     1     110.968   6.649  50.573  1.00  0.00     0.139 C 
HETATM    3  C2  UNL     1     112.283   6.299  50.090  1.00  0.00     0.096 C 
HETATM    4  C3  UNL     1     113.112   6.315  49.506  1.00  0.00    -0.156 C 
HETATM    5  C4  UNL     1     114.008   6.651  48.492  1.00  0.00     0.255 C 
HETATM    6  O4  UNL     1     113.093   7.601  47.711  1.00  0.00    -0.342 OA
HETATM    7  C5  UNL     1     112.289   8.262  48.634  1.00  0.00     0.226 C 
ENDROOT
BRANCH   1   8
HETATM    8  O1  UNL     1     109.828   6.251  48.293  1.00  0.00    -0.313 OA
ATOM      9  H1  UNL     1     109.454   6.117  49.155  1.00  0.00     0.229 HD
ENDBRANCH   1   8
BRANCH   1  10
HETATM   10  O2  UNL     1     109.815   8.499  47.880  1.00  0.00    -0.313 OA
ATOM     11  H2  UNL     1     110.517   9.128  47.998  1.00  0.00     0.229 HD
ENDBRANCH   1  10
BRANCH   1  12
HETATM   12  O3  UNL     1     109.498   8.756  50.128  1.00  0.00    -0.313 OA
ATOM     13  H3  UNL     1     109.111   9.555  49.789  1.00  0.00     0.229 HD
ENDBRANCH   1  12
TORSDOF 3
ENDMDL
MODEL 4
REMARK VINA RESULT: -5.022217636      1.922      2.963
REMARK  3 active torsions:
REMARK  status: ('A' for Active; 'I' for Inactive)
REMARK    1  A    between atoms: O1_1  and  S1_3 
REMARK    2  A    between atoms: S1_3  and  O2_4 
REMARK    3  A    between atoms: S1_3  and  O3_6 
ROOT
HETATM    1  S1  UNL     1     113.359   9.496  48.594  1.00  0.00     0.034 SA
HETATM    2  C1  UNL     1     113.858  10.586  47.096  1.00  0.00     0.139 C 
HETATM    3  C2  UNL     1     115.220  10.113  47.020  1.00  0.00     0.096 C 
HETATM    4  C3  UNL     1     116.039   9.550  47.220  1.00  0.00    -0.156 C 
HETATM    5  C4  UNL     1     116.873   8.582  47.778  1.00  0.00     0.255 C 
HETATM    6  O4  UNL     1     115.898   8.051  48.835  1.00  0.00    -0.342 OA
HETATM    7  C5  UNL     1     114.618   8.118  48.296  1.00  0.00     0.226 C 
ENDROOT
BRANCH   1   8
HETATM    8  O1  UNL     1     113.934  10.930  49.653  1.00  0.00    -0.313 OA
ATOM      9  H1  UNL     1     113.178  10.687  50.174  1.00  0.00     0.229 HD
ENDBRANCH   1   8
BRANCH   1  10
HETATM   10  O2  UNL     1     112.823   8.958  49.975  1.00  0.00    -0.313 OA
ATOM     11  H2  UNL     1     113.665   8.520  49.991  1.00  0.00     0.229 HD
ENDBRANCH   1  10
BRANCH   1  12
HETATM   12  O3  UNL     1     111.712   9.443  48.039  1.00  0.00    -0.313 OA
ATOM     13  H3  UNL     1     111.435   8.746  47.456  1.00  0.00     0.229 HD
ENDBRANCH   1  12
TORSDOF 3
ENDMDL
MODEL 5
REMARK VINA RESULT: -4.841219902      2.284      2.801
REMARK  3 active torsions:
REMARK  status: ('A' for Active; 'I' for Inactive)
REMARK    1  A    between atoms: O1_1  and  S1_3 
REMARK    2  A    between atoms: S1_3  and  O2_4 
REMARK    3  A    between atoms: S1_3  and  O3_6 
ROOT
HETATM    1  S1  UNL     1     113.086   9.650  49.447  1.00  0.00     0.034 SA
HETATM    2  C1  UNL     1     112.633   7.856  48.941  1.00  0.00     0.139 C 
HETATM    3  C2  UNL     1     113.904   7.553  48.327  1.00  0.00     0.096 C 
HETATM    4  C3  UNL     1     114.872   7.669  48.048  1.00  0.00    -0.156 C 
HETATM    5  C4  UNL     1     116.145   8.215  47.888  1.00  0.00     0.255 C 
HETATM    6  O4  UNL     1     115.867   9.581  48.524  1.00  0.00    -0.342 OA
HETATM    7  C5  UNL     1     114.954   9.387  49.555  1.00  0.00     0.226 C 
ENDROOT
BRANCH   1   8
HETATM    8  O1  UNL     1     112.413  10.146  47.771  1.00  0.00    -0.313 OA
ATOM      9  H1  UNL     1     111.685  10.460  48.294  1.00  0.00     0.229 HD
ENDBRANCH   1   8
BRANCH   1  10
HETATM   10  O2  UNL     1     113.109  11.210  49.671  1.00  0.00    -0.313 OA
ATOM     11  H2  UNL     1     112.270  11.039  50.082  1.00  0.00     0.229 HD
ENDBRANCH   1  10
BRANCH   1  12
HETATM   12  O3  UNL     1     112.012   9.563  50.813  1.00  0.00    -0.313 OA
ATOM     13  H3  UNL     1     111.686  10.364  51.205  1.00  0.00     0.229 HD
ENDBRANCH   1  12
TORSDOF 3
ENDMDL
