MODEL 1
REMARK VINA RESULT: -4.916393207      0.000      0.000
REMARK  0 active torsions:
REMARK  status: ('A' for Active; 'I' for Inactive)
ROOT
HETATM    1  C1  UNL     1     112.667   9.175  48.169  1.00  0.00     0.142 C 
HETATM    2  C2  UNL     1     113.501   8.674  49.320  1.00  0.00     0.187 C 
HETATM    3  O1  UNL     1     113.872   7.364  49.221  1.00  0.00    -0.387 OA
HETATM    4  C3  UNL     1     114.768   7.077  48.229  1.00  0.00     0.193 C 
HETATM    5  C4  UNL     1     116.175   7.518  48.505  1.00  0.00     0.193 C 
HETATM    6  O2  UNL     1     116.413   8.846  48.275  1.00  0.00    -0.387 OA
HETATM    7  C5  UNL     1     116.620   9.184  46.959  1.00  0.00     0.193 C 
HETATM    8  C6  UNL     1     115.773  10.361  46.507  1.00  0.00     0.196 C 
HETATM    9  O3  UNL     1     114.966  10.719  47.559  1.00  0.00    -0.370 OA
HETATM   10  C7  UNL     1     113.693  11.118  47.187  1.00  0.00     0.285 C 
HETATM   11  N1  UNL     1     112.748  10.594  48.129  1.00  0.00    -0.399 N 
ATOM     12  H1  UNL     1     112.177  11.193  48.726  1.00  0.00     0.155 HD
ENDROOT
TORSDOF 0
ENDMDL
MODEL 2
REMARK VINA RESULT: -4.844933258      2.192      3.517
REMARK  0 active torsions:
REMARK  status: ('A' for Active; 'I' for Inactive)
ROOT
HETATM    1  C1  UNL     1     112.630   6.949  49.496  1.00  0.00     0.142 C 
HETATM    2  C2  UNL     1     112.297   7.658  48.209  1.00  0.00     0.187 C 
HETATM    3  O1  UNL     1     112.225   9.018  48.315  1.00  0.00    -0.387 OA
HETATM    4  C3  UNL     1     113.411   9.654  48.555  1.00  0.00     0.193 C 
HETATM    5  C4  UNL     1     114.332   9.734  47.373  1.00  0.00     0.193 C 
HETATM    6  O2  UNL     1     115.046   8.594  47.127  1.00  0.00    -0.387 OA
HETATM    7  C5  UNL     1     116.157   8.417  47.916  1.00  0.00     0.193 C 
HETATM    8  C6  UNL     1     116.224   7.038  48.550  1.00  0.00     0.196 C 
HETATM    9  O3  UNL     1     115.081   6.363  48.195  1.00  0.00    -0.370 OA
HETATM   10  C7  UNL     1     114.568   5.553  49.194  1.00  0.00     0.285 C 
HETATM   11  N1  UNL     1     113.137   5.657  49.188  1.00  0.00    -0.399 N 
ATOM     12  H1  UNL     1     112.530   4.865  48.977  1.00  0.00     0.155 HD
ENDROOT
TORSDOF 0
ENDMDL
MODEL 3
REMARK VINA RESULT: -4.816356170      1.387      2.955
REMARK  0 active torsions:
REMARK  status: ('A' for Active; 'I' for Inactive)
ROOT
HETATM    1  C1  UNL     1     115.578  10.267  48.192  1.00  0.00     0.142 C 
HETATM    2  C2  UNL     1     116.027   9.056  47.415  1.00  0.00     0.187 C 
HETATM    3  O1  UNL     1     116.603   8.079  48.175  1.00  0.00    -0.387 OA
HETATM    4  C3  UNL     1     115.763   7.426  49.033  1.00  0.00     0.193 C 
HETATM    5  C4  UNL     1     114.831   6.450  48.378  1.00  0.00     0.193 C 
HETATM    6  O2  UNL     1     113.727   7.015  47.800  1.00  0.00    -0.387 OA
HETATM    7  C5  UNL     1     112.708   7.330  48.666  1.00  0.00     0.193 C 
HETATM    8  C6  UNL     1     112.198   8.750  48.496  1.00  0.00     0.196 C 
HETATM    9  O3  UNL     1     112.973   9.356  47.537  1.00  0.00    -0.370 OA
HETATM   10  C7  UNL     1     113.243  10.691  47.787  1.00  0.00     0.285 C 
HETATM   11  N1  UNL     1     114.604  10.966  47.427  1.00  0.00    -0.399 N 
ATOM     12  H1  UNL     1     114.854  11.612  46.678  1.00  0.00     0.155 HD
ENDROOT
TORSDOF 0
ENDMDL
MODEL 4
REMARK VINA RESULT: -4.763502471      1.657      3.282
REMARK  0 active torsions:
REMARK  status: ('A' for Active; 'I' for Inactive)
ROOT
HETATM    1  C1  UNL     1     114.916   9.659  48.068  1.00  0.00     0.142 C 
HETATM    2  C2  UNL     1     115.727   8.637  47.314  1.00  0.00     0.187 C 
HETATM    3  O1  UNL     1     116.785   8.129  48.012  1.00  0.00    -0.387 OA
HETATM    4  C3  UNL     1     116.463   7.333  49.076  1.00  0.00     0.193 C 
HETATM    5  C4  UNL     1     115.968   5.965  48.711  1.00  0.00     0.193 C 
HETATM    6  O2  UNL     1     114.654   5.915  48.333  1.00  0.00    -0.387 OA
HETATM    7  C5  UNL     1     113.747   5.911  49.366  1.00  0.00     0.193 C 
HETATM    8  C6  UNL     1     112.643   6.940  49.193  1.00  0.00     0.196 C 
HETATM    9  O3  UNL     1     112.914   7.650  48.047  1.00  0.00    -0.370 OA
HETATM   10  C7  UNL     1     112.602   8.997  48.128  1.00  0.00     0.285 C 
HETATM   11  N1  UNL     1     113.629   9.751  47.471  1.00  0.00    -0.399 N 
ATOM     12  H1  UNL     1     113.450  10.312  46.637  1.00  0.00     0.155 HD
ENDROOT
TORSDOF 0
ENDMDL
MODEL 5
REMARK VINA RESULT: -4.745256512      1.513      3.191
REMARK  0 active torsions:
REMARK  status: ('A' for Active; 'I' for Inactive)
ROOT
HETATM    1  C1  UNL     1     113.329  10.170  50.050  1.00  0.00     0.142 C 
HETATM    2  C2  UNL     1     113.618  10.717  48.675  1.00  0.00     0.187 C 
HETATM    3  O1  UNL     1     114.924  11.060  48.467  1.00  0.00    -0.387 OA
HETATM    4  C3  UNL     1     115.808  10.018  48.422  1.00  0.00     0.193 C 
HETATM    5  C4  UNL     1     115.757   9.205  47.163  1.00  0.00     0.193 C 
HETATM    6  O2  UNL     1     114.743   8.287  47.116  1.00  0.00    -0.387 OA
HETATM    7  C5  UNL     1     114.978   7.118  47.800  1.00  0.00     0.193 C 
HETATM    8  C6  UNL     1     113.840   6.733  48.729  1.00  0.00     0.196 C 
HETATM    9  O3  UNL     1     112.898   7.732  48.667  1.00  0.00    -0.370 OA
HETATM   10  C7  UNL     1     112.285   8.008  49.877  1.00  0.00     0.285 C 
HETATM   11  N1  UNL     1     112.118   9.427  50.000  1.00  0.00    -0.399 N 
ATOM     12  H1  UNL     1     111.201   9.870  50.048  1.00  0.00     0.155 HD
ENDROOT
TORSDOF 0
ENDMDL
