MODEL 1
REMARK VINA RESULT: -8.190758332      0.000      0.000
REMARK  10 active torsions:
REMARK  status: ('A' for Active; 'I' for Inactive)
REMARK    1  A    between atoms: N4_5  and  O1_6 
REMARK    2  A    between atoms: C2_8  and  C3_9 
REMARK    3  A    between atoms: C3_9  and  C4_10 
REMARK    4  A    between atoms: N5_12  and  N6_14 
REMARK       I    between atoms: N6_14  and  C5_15 
REMARK       I    between atoms: C5_15  and  N7_17 
REMARK    5  A    between atoms: N7_17  and  C6_19 
REMARK    6  A    between atoms: C6_19  and  O3_20 
REMARK    7  A    between atoms: N8_22  and  C7_24 
REMARK    8  A    between atoms: C7_24  and  C8_25 
REMARK    9  A    between atoms: C8_25  and  N9_26 
REMARK   10  A    between atoms: C8_25  and  O4_30 
ROOT
HETATM    1  N6  UNL     1     -23.895  35.423  47.215  1.00  0.00    -0.265 NA
HETATM    2  C5  UNL     1     -22.550  34.898  47.818  1.00  0.00     0.419 C 
HETATM    3  O2  UNL     1     -22.253  34.009  47.112  1.00  0.00    -0.228 OA
HETATM    4  N7  UNL     1     -22.386  35.689  48.840  1.00  0.00    -0.261 N 
ATOM      5  H7  UNL     1     -23.034  36.311  49.323  1.00  0.00     0.175 HD
ENDROOT
BRANCH   1   6
HETATM    6  N5  UNL     1     -24.913  35.821  46.759  1.00  0.00    -0.230 N 
HETATM    7  C3  UNL     1     -25.550  36.509  45.879  1.00  0.00     0.097 C 
ATOM      8  H5  UNL     1     -25.639  35.422  47.354  1.00  0.00     0.202 HD
BRANCH   7   9
HETATM    9  C2  UNL     1     -26.967  36.559  45.934  1.00  0.00     0.190 A 
HETATM   10  N1  UNL     1     -27.910  36.050  45.135  1.00  0.00    -0.262 N 
HETATM   11  C1  UNL     1     -27.698  35.066  44.073  1.00  0.00     0.176 C 
HETATM   12  N2  UNL     1     -29.130  36.466  45.448  1.00  0.00    -0.003 NA
HETATM   13  N3  UNL     1     -28.972  37.291  46.522  1.00  0.00     0.022 NA
HETATM   14  N4  UNL     1     -27.669  37.338  46.806  1.00  0.00    -0.129 N 
BRANCH  14  15
HETATM   15  O1  UNL     1     -27.205  38.070  47.842  1.00  0.00    -0.268 OA
ATOM     16  H1  UNL     1     -26.496  38.691  47.727  1.00  0.00     0.246 HD
ENDBRANCH  14  15
ENDBRANCH   7   9
BRANCH   7  17
HETATM   17  C4  UNL     1     -24.742  37.245  44.843  1.00  0.00     0.149 C 
HETATM   18  S1  UNL     1     -24.182  38.790  45.526  1.00  0.00    -0.091 SA
ENDBRANCH   7  17
ENDBRANCH   1   6
BRANCH   4  19
HETATM   19  C6  UNL     1     -20.743  35.347  49.105  1.00  0.00     0.221 C 
HETATM   20  N8  UNL     1     -19.951  34.617  48.467  1.00  0.00    -0.352 N 
ATOM     21  H8  UNL     1     -20.364  33.945  47.821  1.00  0.00     0.163 HD
BRANCH  19  22
HETATM   22  O3  UNL     1     -20.527  36.172  50.201  1.00  0.00    -0.332 OA
ATOM     23  H3  UNL     1     -20.702  35.544  50.893  1.00  0.00     0.220 HD
ENDBRANCH  19  22
BRANCH  20  24
HETATM   24  C7  UNL     1     -18.481  34.631  48.556  1.00  0.00     0.184 C 
BRANCH  24  25
HETATM   25  C8  UNL     1     -17.852  33.569  49.293  1.00  0.00     0.334 C 
BRANCH  25  26
HETATM   26  N9  UNL     1     -16.609  32.967  49.126  1.00  0.00    -0.051 N 
ATOM     27  H93 UNL     1     -16.312  33.233  48.188  1.00  0.00     0.277 HD
ATOM     28  H92 UNL     1     -15.982  33.484  49.742  1.00  0.00     0.277 HD
ATOM     29  H91 UNL     1     -16.327  31.992  49.223  1.00  0.00     0.277 HD
ENDBRANCH  25  26
BRANCH  25  30
HETATM   30  O4  UNL     1     -18.571  33.099  50.268  1.00  0.00    -0.369 OA
ATOM     31  H4  UNL     1     -18.065  32.739  50.987  1.00  0.00     0.212 HD
ENDBRANCH  25  30
ENDBRANCH  24  25
ENDBRANCH  20  24
ENDBRANCH   4  19
TORSDOF 10
ENDMDL
MODEL 2
REMARK VINA RESULT: -8.086496528      2.036      2.487
REMARK  10 active torsions:
REMARK  status: ('A' for Active; 'I' for Inactive)
REMARK    1  A    between atoms: N4_5  and  O1_6 
REMARK    2  A    between atoms: C2_8  and  C3_9 
REMARK    3  A    between atoms: C3_9  and  C4_10 
REMARK    4  A    between atoms: N5_12  and  N6_14 
REMARK       I    between atoms: N6_14  and  C5_15 
REMARK       I    between atoms: C5_15  and  N7_17 
REMARK    5  A    between atoms: N7_17  and  C6_19 
REMARK    6  A    between atoms: C6_19  and  O3_20 
REMARK    7  A    between atoms: N8_22  and  C7_24 
REMARK    8  A    between atoms: C7_24  and  C8_25 
REMARK    9  A    between atoms: C8_25  and  N9_26 
REMARK   10  A    between atoms: C8_25  and  O4_30 
ROOT
HETATM    1  N6  UNL     1     -24.029  35.118  46.378  1.00  0.00    -0.265 NA
HETATM    2  C5  UNL     1     -22.964  34.769  47.469  1.00  0.00     0.419 C 
HETATM    3  O2  UNL     1     -22.327  33.914  46.979  1.00  0.00    -0.228 OA
HETATM    4  N7  UNL     1     -23.285  35.587  48.430  1.00  0.00    -0.261 N 
ATOM      5  H7  UNL     1     -24.131  36.132  48.598  1.00  0.00     0.175 HD
ENDROOT
BRANCH   1   6
HETATM    6  N5  UNL     1     -24.835  35.382  45.551  1.00  0.00    -0.230 N 
HETATM    7  C3  UNL     1     -25.278  36.163  44.631  1.00  0.00     0.097 C 
ATOM      8  H5  UNL     1     -25.506  34.614  45.587  1.00  0.00     0.202 HD
BRANCH   7   9
HETATM    9  C2  UNL     1     -26.475  35.821  43.950  1.00  0.00     0.190 A 
HETATM   10  N1  UNL     1     -27.742  35.724  44.365  1.00  0.00    -0.262 N 
HETATM   11  C1  UNL     1     -28.266  36.194  45.648  1.00  0.00     0.176 C 
HETATM   12  N2  UNL     1     -28.548  35.212  43.444  1.00  0.00    -0.003 NA
HETATM   13  N3  UNL     1     -27.758  34.970  42.359  1.00  0.00     0.022 NA
HETATM   14  N4  UNL     1     -26.516  35.341  42.674  1.00  0.00    -0.129 N 
BRANCH  14  15
HETATM   15  O1  UNL     1     -25.507  35.233  41.782  1.00  0.00    -0.268 OA
ATOM     16  H1  UNL     1     -24.779  34.643  41.932  1.00  0.00     0.246 HD
ENDBRANCH  14  15
ENDBRANCH   7   9
BRANCH   7  17
HETATM   17  C4  UNL     1     -24.499  37.419  44.340  1.00  0.00     0.149 C 
HETATM   18  S1  UNL     1     -24.875  38.640  45.579  1.00  0.00    -0.091 SA
ENDBRANCH   7  17
ENDBRANCH   1   6
BRANCH   4  19
HETATM   19  C6  UNL     1     -21.838  35.453  49.310  1.00  0.00     0.221 C 
HETATM   20  N8  UNL     1     -20.950  34.570  49.286  1.00  0.00    -0.352 N 
ATOM     21  H8  UNL     1     -21.198  33.682  48.851  1.00  0.00     0.163 HD
BRANCH  19  22
HETATM   22  O3  UNL     1     -21.904  36.648  50.014  1.00  0.00    -0.332 OA
ATOM     23  H3  UNL     1     -22.590  36.418  50.630  1.00  0.00     0.220 HD
ENDBRANCH  19  22
BRANCH  20  24
HETATM   24  C7  UNL     1     -19.584  34.686  49.821  1.00  0.00     0.184 C 
BRANCH  24  25
HETATM   25  C8  UNL     1     -18.495  34.402  48.927  1.00  0.00     0.334 C 
BRANCH  25  26
HETATM   26  N9  UNL     1     -17.403  33.553  49.073  1.00  0.00    -0.051 N 
ATOM     27  H93 UNL     1     -17.040  33.751  50.005  1.00  0.00     0.277 HD
ATOM     28  H92 UNL     1     -17.806  32.620  49.156  1.00  0.00     0.277 HD
ATOM     29  H91 UNL     1     -16.576  33.431  48.489  1.00  0.00     0.277 HD
ENDBRANCH  25  26
BRANCH  25  30
HETATM   30  O4  UNL     1     -18.546  35.054  47.803  1.00  0.00    -0.369 OA
ATOM     31  H4  UNL     1     -19.083  35.837  47.831  1.00  0.00     0.212 HD
ENDBRANCH  25  30
ENDBRANCH  24  25
ENDBRANCH  20  24
ENDBRANCH   4  19
TORSDOF 10
ENDMDL
MODEL 3
REMARK VINA RESULT: -7.995620781      1.648      2.001
REMARK  10 active torsions:
REMARK  status: ('A' for Active; 'I' for Inactive)
REMARK    1  A    between atoms: N4_5  and  O1_6 
REMARK    2  A    between atoms: C2_8  and  C3_9 
REMARK    3  A    between atoms: C3_9  and  C4_10 
REMARK    4  A    between atoms: N5_12  and  N6_14 
REMARK       I    between atoms: N6_14  and  C5_15 
REMARK       I    between atoms: C5_15  and  N7_17 
REMARK    5  A    between atoms: N7_17  and  C6_19 
REMARK    6  A    between atoms: C6_19  and  O3_20 
REMARK    7  A    between atoms: N8_22  and  C7_24 
REMARK    8  A    between atoms: C7_24  and  C8_25 
REMARK    9  A    between atoms: C8_25  and  N9_26 
REMARK   10  A    between atoms: C8_25  and  O4_30 
ROOT
HETATM    1  N6  UNL     1     -24.547  36.397  47.709  1.00  0.00    -0.265 NA
HETATM    2  C5  UNL     1     -23.166  35.995  48.327  1.00  0.00     0.419 C 
HETATM    3  O2  UNL     1     -23.240  36.356  49.441  1.00  0.00    -0.228 OA
HETATM    4  N7  UNL     1     -22.564  35.452  47.308  1.00  0.00    -0.261 N 
ATOM      5  H7  UNL     1     -22.764  35.485  46.308  1.00  0.00     0.175 HD
ENDROOT
BRANCH   1   6
HETATM    6  N5  UNL     1     -25.592  36.701  47.243  1.00  0.00    -0.230 N 
HETATM    7  C3  UNL     1     -26.295  37.447  46.466  1.00  0.00     0.097 C 
ATOM      8  H5  UNL     1     -26.262  36.056  47.661  1.00  0.00     0.202 HD
BRANCH   7   9
HETATM    9  C2  UNL     1     -27.694  37.232  46.381  1.00  0.00     0.190 A 
HETATM   10  N1  UNL     1     -28.428  36.414  45.620  1.00  0.00    -0.262 N 
HETATM   11  C1  UNL     1     -27.918  35.314  44.800  1.00  0.00     0.176 C 
HETATM   12  N2  UNL     1     -29.731  36.637  45.731  1.00  0.00    -0.003 NA
HETATM   13  N3  UNL     1     -29.853  37.657  46.628  1.00  0.00     0.022 NA
HETATM   14  N4  UNL     1     -28.624  38.005  47.013  1.00  0.00    -0.129 N 
BRANCH  14  15
HETATM   15  O1  UNL     1     -28.427  38.988  47.918  1.00  0.00    -0.268 OA
ATOM     16  H1  UNL     1     -28.417  39.901  47.658  1.00  0.00     0.246 HD
ENDBRANCH  14  15
ENDBRANCH   7   9
BRANCH   7  17
HETATM   17  C4  UNL     1     -25.582  38.530  45.699  1.00  0.00     0.149 C 
HETATM   18  S1  UNL     1     -24.518  37.783  44.485  1.00  0.00    -0.091 SA
ENDBRANCH   7  17
ENDBRANCH   1   6
BRANCH   4  19
HETATM   19  C6  UNL     1     -21.337  34.670  48.185  1.00  0.00     0.221 C 
HETATM   20  N8  UNL     1     -20.209  35.077  48.546  1.00  0.00    -0.352 N 
ATOM     21  H8  UNL     1     -19.852  35.910  48.081  1.00  0.00     0.163 HD
BRANCH  19  22
HETATM   22  O3  UNL     1     -21.987  33.469  48.438  1.00  0.00    -0.332 OA
ATOM     23  H3  UNL     1     -22.370  33.326  47.580  1.00  0.00     0.220 HD
ENDBRANCH  19  22
BRANCH  20  24
HETATM   24  C7  UNL     1     -19.347  34.472  49.575  1.00  0.00     0.184 C 
BRANCH  24  25
HETATM   25  C8  UNL     1     -19.695  34.704  50.950  1.00  0.00     0.334 C 
BRANCH  25  26
HETATM   26  N9  UNL     1     -20.190  35.843  51.577  1.00  0.00    -0.051 N 
ATOM     27  H93 UNL     1     -19.688  35.895  52.463  1.00  0.00     0.277 HD
ATOM     28  H92 UNL     1     -19.819  36.623  51.034  1.00  0.00     0.277 HD
ATOM     29  H91 UNL     1     -21.148  36.112  51.802  1.00  0.00     0.277 HD
ENDBRANCH  25  26
BRANCH  25  30
HETATM   30  O4  UNL     1     -19.509  33.678  51.727  1.00  0.00    -0.369 OA
ATOM     31  H4  UNL     1     -19.462  33.893  52.651  1.00  0.00     0.212 HD
ENDBRANCH  25  30
ENDBRANCH  24  25
ENDBRANCH  20  24
ENDBRANCH   4  19
TORSDOF 10
ENDMDL
MODEL 4
REMARK VINA RESULT: -7.979885708      2.255      2.574
REMARK  10 active torsions:
REMARK  status: ('A' for Active; 'I' for Inactive)
REMARK    1  A    between atoms: N4_5  and  O1_6 
REMARK    2  A    between atoms: C2_8  and  C3_9 
REMARK    3  A    between atoms: C3_9  and  C4_10 
REMARK    4  A    between atoms: N5_12  and  N6_14 
REMARK       I    between atoms: N6_14  and  C5_15 
REMARK       I    between atoms: C5_15  and  N7_17 
REMARK    5  A    between atoms: N7_17  and  C6_19 
REMARK    6  A    between atoms: C6_19  and  O3_20 
REMARK    7  A    between atoms: N8_22  and  C7_24 
REMARK    8  A    between atoms: C7_24  and  C8_25 
REMARK    9  A    between atoms: C8_25  and  N9_26 
REMARK   10  A    between atoms: C8_25  and  O4_30 
ROOT
HETATM    1  N6  UNL     1     -23.770  35.433  46.458  1.00  0.00    -0.265 NA
HETATM    2  C5  UNL     1     -22.809  34.891  47.567  1.00  0.00     0.419 C 
HETATM    3  O2  UNL     1     -22.340  33.928  47.087  1.00  0.00    -0.228 OA
HETATM    4  N7  UNL     1     -22.984  35.757  48.523  1.00  0.00    -0.261 N 
ATOM      5  H7  UNL     1     -23.713  36.454  48.678  1.00  0.00     0.175 HD
ENDROOT
BRANCH   1   6
HETATM    6  N5  UNL     1     -24.497  35.844  45.619  1.00  0.00    -0.230 N 
HETATM    7  C3  UNL     1     -25.318  36.736  45.189  1.00  0.00     0.097 C 
ATOM      8  H5  UNL     1     -24.450  35.151  44.871  1.00  0.00     0.202 HD
BRANCH   7   9
HETATM    9  C2  UNL     1     -25.913  36.571  43.912  1.00  0.00     0.190 A 
HETATM   10  N1  UNL     1     -26.836  35.715  43.461  1.00  0.00    -0.262 N 
HETATM   11  C1  UNL     1     -27.670  34.837  44.282  1.00  0.00     0.176 C 
HETATM   12  N2  UNL     1     -27.003  35.783  42.146  1.00  0.00    -0.003 NA
HETATM   13  N3  UNL     1     -26.142  36.750  41.717  1.00  0.00     0.022 NA
HETATM   14  N4  UNL     1     -25.494  37.217  42.786  1.00  0.00    -0.129 N 
BRANCH  14  15
HETATM   15  O1  UNL     1     -24.579  38.203  42.673  1.00  0.00    -0.268 OA
ATOM     16  H1  UNL     1     -24.317  38.720  43.425  1.00  0.00     0.246 HD
ENDBRANCH  14  15
ENDBRANCH   7   9
BRANCH   7  17
HETATM   17  C4  UNL     1     -25.615  37.909  46.087  1.00  0.00     0.149 C 
HETATM   18  S1  UNL     1     -27.262  37.743  46.739  1.00  0.00    -0.091 SA
ENDBRANCH   7  17
ENDBRANCH   1   6
BRANCH   4  19
HETATM   19  C6  UNL     1     -21.604  35.351  49.427  1.00  0.00     0.221 C 
HETATM   20  N8  UNL     1     -20.814  34.386  49.316  1.00  0.00    -0.352 N 
ATOM     21  H8  UNL     1     -21.132  33.594  48.759  1.00  0.00     0.163 HD
BRANCH  19  22
HETATM   22  O3  UNL     1     -21.578  36.446  50.281  1.00  0.00    -0.332 OA
ATOM     23  H3  UNL     1     -22.070  37.060  49.747  1.00  0.00     0.220 HD
ENDBRANCH  19  22
BRANCH  20  24
HETATM   24  C7  UNL     1     -19.471  34.281  49.910  1.00  0.00     0.184 C 
BRANCH  24  25
HETATM   25  C8  UNL     1     -18.354  34.186  49.009  1.00  0.00     0.334 C 
BRANCH  25  26
HETATM   26  N9  UNL     1     -17.188  33.433  49.093  1.00  0.00    -0.051 N 
ATOM     27  H93 UNL     1     -17.280  32.901  49.958  1.00  0.00     0.277 HD
ATOM     28  H92 UNL     1     -17.275  32.731  48.358  1.00  0.00     0.277 HD
ATOM     29  H91 UNL     1     -16.210  33.721  49.065  1.00  0.00     0.277 HD
ENDBRANCH  25  26
BRANCH  25  30
HETATM   30  O4  UNL     1     -18.460  34.933  47.950  1.00  0.00    -0.369 OA
ATOM     31  H4  UNL     1     -19.214  35.510  47.955  1.00  0.00     0.212 HD
ENDBRANCH  25  30
ENDBRANCH  24  25
ENDBRANCH  20  24
ENDBRANCH   4  19
TORSDOF 10
ENDMDL
MODEL 5
REMARK VINA RESULT: -7.803062233      1.854      2.377
REMARK  10 active torsions:
REMARK  status: ('A' for Active; 'I' for Inactive)
REMARK    1  A    between atoms: N4_5  and  O1_6 
REMARK    2  A    between atoms: C2_8  and  C3_9 
REMARK    3  A    between atoms: C3_9  and  C4_10 
REMARK    4  A    between atoms: N5_12  and  N6_14 
REMARK       I    between atoms: N6_14  and  C5_15 
REMARK       I    between atoms: C5_15  and  N7_17 
REMARK    5  A    between atoms: N7_17  and  C6_19 
REMARK    6  A    between atoms: C6_19  and  O3_20 
REMARK    7  A    between atoms: N8_22  and  C7_24 
REMARK    8  A    between atoms: C7_24  and  C8_25 
REMARK    9  A    between atoms: C8_25  and  N9_26 
REMARK   10  A    between atoms: C8_25  and  O4_30 
ROOT
HETATM    1  N6  UNL     1     -24.665  36.510  47.830  1.00  0.00    -0.265 NA
HETATM    2  C5  UNL     1     -23.368  36.181  48.641  1.00  0.00     0.419 C 
HETATM    3  O2  UNL     1     -23.559  36.675  49.689  1.00  0.00    -0.228 OA
HETATM    4  N7  UNL     1     -22.667  35.516  47.769  1.00  0.00    -0.261 N 
ATOM      5  H7  UNL     1     -22.755  35.429  46.756  1.00  0.00     0.175 HD
ENDROOT
BRANCH   1   6
HETATM    6  N5  UNL     1     -25.647  36.760  47.216  1.00  0.00    -0.230 N 
HETATM    7  C3  UNL     1     -26.265  37.459  46.332  1.00  0.00     0.097 C 
ATOM      8  H5  UNL     1     -26.342  36.094  47.554  1.00  0.00     0.202 HD
BRANCH   7   9
HETATM    9  C2  UNL     1     -27.629  37.182  46.059  1.00  0.00     0.190 A 
HETATM   10  N1  UNL     1     -28.758  37.595  46.644  1.00  0.00    -0.262 N 
HETATM   11  C1  UNL     1     -28.875  38.677  47.623  1.00  0.00     0.176 C 
HETATM   12  N2  UNL     1     -29.834  36.969  46.186  1.00  0.00    -0.003 NA
HETATM   13  N3  UNL     1     -29.377  36.102  45.238  1.00  0.00     0.022 NA
HETATM   14  N4  UNL     1     -28.052  36.239  45.169  1.00  0.00    -0.129 N 
BRANCH  14  15
HETATM   15  O1  UNL     1     -27.318  35.514  44.298  1.00  0.00    -0.268 OA
ATOM     16  H1  UNL     1     -27.301  34.565  44.341  1.00  0.00     0.246 HD
ENDBRANCH  14  15
ENDBRANCH   7   9
BRANCH   7  17
HETATM   17  C4  UNL     1     -25.497  38.558  45.643  1.00  0.00     0.149 C 
HETATM   18  S1  UNL     1     -24.404  37.841  44.436  1.00  0.00    -0.091 SA
ENDBRANCH   7  17
ENDBRANCH   1   6
BRANCH   4  19
HETATM   19  C6  UNL     1     -21.559  34.841  48.865  1.00  0.00     0.221 C 
HETATM   20  N8  UNL     1     -20.930  35.365  49.813  1.00  0.00    -0.352 N 
ATOM     21  H8  UNL     1     -20.882  36.383  49.825  1.00  0.00     0.163 HD
BRANCH  19  22
HETATM   22  O3  UNL     1     -21.610  33.521  48.436  1.00  0.00    -0.332 OA
ATOM     23  H3  UNL     1     -21.271  33.100  49.217  1.00  0.00     0.220 HD
ENDBRANCH  19  22
BRANCH  20  24
HETATM   24  C7  UNL     1     -20.254  34.657  50.914  1.00  0.00     0.184 C 
BRANCH  24  25
HETATM   25  C8  UNL     1     -19.162  33.787  50.570  1.00  0.00     0.334 C 
BRANCH  25  26
HETATM   26  N9  UNL     1     -18.419  33.691  49.398  1.00  0.00    -0.051 N 
ATOM     27  H93 UNL     1     -19.078  33.354  48.697  1.00  0.00     0.277 HD
ATOM     28  H92 UNL     1     -18.234  34.655  49.124  1.00  0.00     0.277 HD
ATOM     29  H91 UNL     1     -17.551  33.192  49.204  1.00  0.00     0.277 HD
ENDBRANCH  25  26
BRANCH  25  30
HETATM   30  O4  UNL     1     -18.826  32.957  51.513  1.00  0.00    -0.369 OA
ATOM     31  H4  UNL     1     -17.945  33.081  51.843  1.00  0.00     0.212 HD
ENDBRANCH  25  30
ENDBRANCH  24  25
ENDBRANCH  20  24
ENDBRANCH   4  19
TORSDOF 10
ENDMDL
