MODEL 1
REMARK VINA RESULT: -7.863458534      0.000      0.000
REMARK  9 active torsions:
REMARK  status: ('A' for Active; 'I' for Inactive)
REMARK    1  A    between atoms: N1_1  and  C1_5 
REMARK    2  A    between atoms: C1_5  and  N2_6 
REMARK    3  A    between atoms: C3_13  and  N4_14 
REMARK    4  A    between atoms: N4_14  and  C4_16 
REMARK    5  A    between atoms: C4_16  and  C5_17 
REMARK    6  A    between atoms: C5_17  and  C6_18 
REMARK    7  A    between atoms: C6_18  and  S1_19 
REMARK    8  A    between atoms: S1_19  and  N5_22 
REMARK    9  A    between atoms: N5_22  and  C7_24 
ROOT
HETATM    1  C1  UNL     1     -23.864  40.122  44.468  1.00  0.00     0.377 C 
HETATM    2  C2  UNL     1     -24.321  39.802  45.870  1.00  0.00     0.218 C 
HETATM    3  N3  UNL     1     -25.260  38.742  45.954  1.00  0.00    -0.222 N 
ATOM      4  H3  UNL     1     -25.841  38.710  46.791  1.00  0.00     0.177 HD
HETATM    5  C3  UNL     1     -25.452  37.818  45.081  1.00  0.00     0.676 C 
HETATM    6  N9  UNL     1     -24.679  37.796  43.882  1.00  0.00    -0.156 N 
ATOM      7  H9  UNL     1     -24.815  37.072  43.176  1.00  0.00     0.187 HD
HETATM    8  C8  UNL     1     -23.703  38.832  43.709  1.00  0.00     0.302 C 
HETATM    9  O4  UNL     1     -22.726  38.673  42.937  1.00  0.00    -0.268 OA
ENDROOT
BRANCH   5  10
HETATM   10  N4  UNL     1     -26.425  36.813  45.288  1.00  0.00    -0.226 N 
ATOM     11  H4  UNL     1     -27.389  37.069  45.501  1.00  0.00     0.177 HD
BRANCH  10  12
HETATM   12  C4  UNL     1     -26.054  35.438  45.197  1.00  0.00     0.139 C 
BRANCH  12  13
HETATM   13  C5  UNL     1     -24.915  35.039  46.067  1.00  0.00     0.037 C 
BRANCH  13  14
HETATM   14  C6  UNL     1     -25.133  35.361  47.525  1.00  0.00     0.165 C 
BRANCH  14  15
HETATM   15  S1  UNL     1     -23.644  36.018  48.234  1.00  0.00     0.244 S 
HETATM   16  O1  UNL     1     -23.061  36.973  47.226  1.00  0.00    -0.205 OA
HETATM   17  O2  UNL     1     -23.908  36.701  49.548  1.00  0.00    -0.205 OA
BRANCH  15  18
HETATM   18  N5  UNL     1     -22.502  34.744  48.440  1.00  0.00    -0.114 N 
ATOM     19  H5  UNL     1     -22.749  33.785  48.198  1.00  0.00     0.197 HD
BRANCH  18  20
HETATM   20  C7  UNL     1     -21.331  35.019  48.905  1.00  0.00     0.726 A 
HETATM   21  N6  UNL     1     -20.140  34.569  48.427  1.00  0.00    -0.106 N 
HETATM   22  N7  UNL     1     -19.151  35.071  49.172  1.00  0.00     0.062 NA
ATOM     23  H6  UNL     1     -20.021  33.947  47.628  1.00  0.00     0.203 HD
HETATM   24  O3  UNL     1     -19.717  35.813  50.090  1.00  0.00    -0.127 OA
HETATM   25  N8  UNL     1     -20.994  35.795  49.949  1.00  0.00    -0.072 N 
ATOM     26  H8  UNL     1     -21.654  36.297  50.543  1.00  0.00     0.215 HD
ENDBRANCH  18  20
ENDBRANCH  15  18
ENDBRANCH  14  15
ENDBRANCH  13  14
ENDBRANCH  12  13
ENDBRANCH  10  12
ENDBRANCH   5  10
BRANCH   1  27
HETATM   27  N1  UNL     1     -22.612  40.828  44.557  1.00  0.00    -0.034 N 
ATOM     28  H13 UNL     1     -22.209  40.991  43.634  1.00  0.00     0.278 HD
ATOM     29  H12 UNL     1     -22.751  41.798  44.843  1.00  0.00     0.278 HD
ATOM     30  H11 UNL     1     -21.953  40.349  45.172  1.00  0.00     0.278 HD
ENDBRANCH   1  27
BRANCH   1  31
HETATM   31  N2  UNL     1     -24.865  40.898  43.760  1.00  0.00    -0.034 N 
ATOM     32  H23 UNL     1     -25.809  40.590  43.994  1.00  0.00     0.278 HD
ATOM     33  H22 UNL     1     -24.917  41.853  44.115  1.00  0.00     0.278 HD
ATOM     34  H21 UNL     1     -24.708  40.884  42.753  1.00  0.00     0.278 HD
ENDBRANCH   1  31
TORSDOF 9
ENDMDL
MODEL 2
REMARK VINA RESULT: -7.348654552      4.193      6.875
REMARK  9 active torsions:
REMARK  status: ('A' for Active; 'I' for Inactive)
REMARK    1  A    between atoms: N1_1  and  C1_5 
REMARK    2  A    between atoms: C1_5  and  N2_6 
REMARK    3  A    between atoms: C3_13  and  N4_14 
REMARK    4  A    between atoms: N4_14  and  C4_16 
REMARK    5  A    between atoms: C4_16  and  C5_17 
REMARK    6  A    between atoms: C5_17  and  C6_18 
REMARK    7  A    between atoms: C6_18  and  S1_19 
REMARK    8  A    between atoms: S1_19  and  N5_22 
REMARK    9  A    between atoms: N5_22  and  C7_24 
ROOT
HETATM    1  C1  UNL     1     -25.902  35.698  41.912  1.00  0.00     0.377 C 
HETATM    2  C2  UNL     1     -24.709  35.550  42.826  1.00  0.00     0.218 C 
HETATM    3  N3  UNL     1     -24.933  35.983  44.158  1.00  0.00    -0.222 N 
ATOM      4  H3  UNL     1     -24.107  36.222  44.706  1.00  0.00     0.177 HD
HETATM    5  C3  UNL     1     -26.071  36.104  44.744  1.00  0.00     0.676 C 
HETATM    6  N9  UNL     1     -27.272  35.790  44.041  1.00  0.00    -0.156 N 
ATOM      7  H9  UNL     1     -28.186  35.879  44.487  1.00  0.00     0.187 HD
HETATM    8  C8  UNL     1     -27.145  35.344  42.685  1.00  0.00     0.302 C 
HETATM    9  O4  UNL     1     -28.052  34.667  42.142  1.00  0.00    -0.268 OA
ENDROOT
BRANCH   5  10
HETATM   10  N4  UNL     1     -26.156  36.548  46.084  1.00  0.00    -0.226 N 
ATOM     11  H4  UNL     1     -26.948  36.274  46.664  1.00  0.00     0.177 HD
BRANCH  10  12
HETATM   12  C4  UNL     1     -25.129  37.380  46.621  1.00  0.00     0.139 C 
BRANCH  12  13
HETATM   13  C5  UNL     1     -24.960  38.688  45.931  1.00  0.00     0.037 C 
BRANCH  13  14
HETATM   14  C6  UNL     1     -23.518  39.116  45.804  1.00  0.00     0.165 C 
BRANCH  14  15
HETATM   15  S1  UNL     1     -23.220  39.787  44.187  1.00  0.00     0.244 S 
HETATM   16  O1  UNL     1     -22.143  40.828  44.335  1.00  0.00    -0.205 OA
HETATM   17  O2  UNL     1     -22.819  38.718  43.208  1.00  0.00    -0.205 OA
BRANCH  15  18
HETATM   18  N5  UNL     1     -24.637  40.600  43.640  1.00  0.00    -0.114 N 
ATOM     19  H5  UNL     1     -25.289  41.009  44.309  1.00  0.00     0.197 HD
BRANCH  18  20
HETATM   20  C7  UNL     1     -24.862  40.687  42.373  1.00  0.00     0.726 A 
HETATM   21  N6  UNL     1     -24.640  39.723  41.440  1.00  0.00    -0.106 N 
HETATM   22  N7  UNL     1     -24.998  40.186  40.239  1.00  0.00     0.062 NA
ATOM     23  H6  UNL     1     -24.262  38.794  41.627  1.00  0.00     0.203 HD
HETATM   24  O3  UNL     1     -25.429  41.407  40.424  1.00  0.00    -0.127 OA
HETATM   25  N8  UNL     1     -25.357  41.719  41.668  1.00  0.00    -0.072 N 
ATOM     26  H8  UNL     1     -25.636  42.617  42.063  1.00  0.00     0.215 HD
ENDBRANCH  18  20
ENDBRANCH  15  18
ENDBRANCH  14  15
ENDBRANCH  13  14
ENDBRANCH  12  13
ENDBRANCH  10  12
ENDBRANCH   5  10
BRANCH   1  27
HETATM   27  N1  UNL     1     -25.719  34.811  40.793  1.00  0.00    -0.034 N 
ATOM     28  H13 UNL     1     -26.425  34.074  40.783  1.00  0.00     0.278 HD
ATOM     29  H12 UNL     1     -25.955  35.269  39.913  1.00  0.00     0.278 HD
ATOM     30  H11 UNL     1     -24.775  34.423  40.771  1.00  0.00     0.278 HD
ENDBRANCH   1  27
BRANCH   1  31
HETATM   31  N2  UNL     1     -26.058  37.075  41.483  1.00  0.00    -0.034 N 
ATOM     32  H23 UNL     1     -25.815  37.188  40.498  1.00  0.00     0.278 HD
ATOM     33  H22 UNL     1     -27.042  37.341  41.435  1.00  0.00     0.278 HD
ATOM     34  H21 UNL     1     -25.528  37.715  42.072  1.00  0.00     0.278 HD
ENDBRANCH   1  31
TORSDOF 9
ENDMDL
MODEL 3
REMARK VINA RESULT: -7.317650317      1.584      2.194
REMARK  9 active torsions:
REMARK  status: ('A' for Active; 'I' for Inactive)
REMARK    1  A    between atoms: N1_1  and  C1_5 
REMARK    2  A    between atoms: C1_5  and  N2_6 
REMARK    3  A    between atoms: C3_13  and  N4_14 
REMARK    4  A    between atoms: N4_14  and  C4_16 
REMARK    5  A    between atoms: C4_16  and  C5_17 
REMARK    6  A    between atoms: C5_17  and  C6_18 
REMARK    7  A    between atoms: C6_18  and  S1_19 
REMARK    8  A    between atoms: S1_19  and  N5_22 
REMARK    9  A    between atoms: N5_22  and  C7_24 
ROOT
HETATM    1  C1  UNL     1     -23.972  39.178  44.424  1.00  0.00     0.377 C 
HETATM    2  C2  UNL     1     -24.243  37.738  44.062  1.00  0.00     0.218 C 
HETATM    3  N3  UNL     1     -25.104  37.058  44.962  1.00  0.00    -0.222 N 
ATOM      4  H3  UNL     1     -25.049  36.040  44.967  1.00  0.00     0.177 HD
HETATM    5  C3  UNL     1     -25.944  37.596  45.772  1.00  0.00     0.676 C 
HETATM    6  N9  UNL     1     -26.077  39.015  45.826  1.00  0.00    -0.156 N 
ATOM      7  H9  UNL     1     -26.737  39.463  46.462  1.00  0.00     0.187 HD
HETATM    8  C8  UNL     1     -25.245  39.788  44.951  1.00  0.00     0.302 C 
HETATM    9  O4  UNL     1     -25.565  40.956  44.623  1.00  0.00    -0.268 OA
ENDROOT
BRANCH   5  10
HETATM   10  N4  UNL     1     -26.748  36.800  46.621  1.00  0.00    -0.226 N 
ATOM     11  H4  UNL     1     -27.423  36.147  46.223  1.00  0.00     0.177 HD
BRANCH  10  12
HETATM   12  C4  UNL     1     -26.612  36.913  48.037  1.00  0.00     0.139 C 
BRANCH  12  13
HETATM   13  C5  UNL     1     -25.215  36.815  48.540  1.00  0.00     0.037 C 
BRANCH  13  14
HETATM   14  C6  UNL     1     -24.664  35.410  48.512  1.00  0.00     0.165 C 
BRANCH  14  15
HETATM   15  S1  UNL     1     -23.287  35.317  47.394  1.00  0.00     0.244 S 
HETATM   16  O1  UNL     1     -23.782  34.640  46.144  1.00  0.00    -0.205 OA
HETATM   17  O2  UNL     1     -22.722  36.677  47.095  1.00  0.00    -0.205 OA
BRANCH  15  18
HETATM   18  N5  UNL     1     -22.074  34.299  48.072  1.00  0.00    -0.114 N 
ATOM     19  H5  UNL     1     -22.101  33.290  47.920  1.00  0.00     0.197 HD
BRANCH  18  20
HETATM   20  C7  UNL     1     -21.131  34.827  48.774  1.00  0.00     0.726 A 
HETATM   21  N6  UNL     1     -21.274  35.730  49.781  1.00  0.00    -0.106 N 
HETATM   22  N7  UNL     1     -20.069  36.041  50.266  1.00  0.00     0.062 NA
ATOM     23  H6  UNL     1     -22.161  36.109  50.114  1.00  0.00     0.203 HD
HETATM   24  O3  UNL     1     -19.200  35.348  49.574  1.00  0.00    -0.127 OA
HETATM   25  N8  UNL     1     -19.803  34.631  48.696  1.00  0.00    -0.072 N 
ATOM     26  H8  UNL     1     -19.342  34.004  48.036  1.00  0.00     0.215 HD
ENDBRANCH  18  20
ENDBRANCH  15  18
ENDBRANCH  14  15
ENDBRANCH  13  14
ENDBRANCH  12  13
ENDBRANCH  10  12
ENDBRANCH   5  10
BRANCH   1  27
HETATM   27  N1  UNL     1     -23.526  39.860  43.237  1.00  0.00    -0.034 N 
ATOM     28  H13 UNL     1     -22.739  40.479  43.437  1.00  0.00     0.278 HD
ATOM     29  H12 UNL     1     -23.064  39.219  42.591  1.00  0.00     0.278 HD
ATOM     30  H11 UNL     1     -24.289  40.361  42.782  1.00  0.00     0.278 HD
ENDBRANCH   1  27
BRANCH   1  31
HETATM   31  N2  UNL     1     -22.995  39.269  45.492  1.00  0.00    -0.034 N 
ATOM     32  H23 UNL     1     -23.231  40.012  46.151  1.00  0.00     0.278 HD
ATOM     33  H22 UNL     1     -23.058  38.471  46.124  1.00  0.00     0.278 HD
ATOM     34  H21 UNL     1     -22.049  39.382  45.128  1.00  0.00     0.278 HD
ENDBRANCH   1  31
TORSDOF 9
ENDMDL
MODEL 4
REMARK VINA RESULT: -7.145680019      3.491      5.545
REMARK  9 active torsions:
REMARK  status: ('A' for Active; 'I' for Inactive)
REMARK    1  A    between atoms: N1_1  and  C1_5 
REMARK    2  A    between atoms: C1_5  and  N2_6 
REMARK    3  A    between atoms: C3_13  and  N4_14 
REMARK    4  A    between atoms: N4_14  and  C4_16 
REMARK    5  A    between atoms: C4_16  and  C5_17 
REMARK    6  A    between atoms: C5_17  and  C6_18 
REMARK    7  A    between atoms: C6_18  and  S1_19 
REMARK    8  A    between atoms: S1_19  and  N5_22 
REMARK    9  A    between atoms: N5_22  and  C7_24 
ROOT
HETATM    1  C1  UNL     1     -24.365  39.987  43.692  1.00  0.00     0.377 C 
HETATM    2  C2  UNL     1     -25.515  39.867  44.662  1.00  0.00     0.218 C 
HETATM    3  N3  UNL     1     -25.267  39.010  45.764  1.00  0.00    -0.222 N 
ATOM      4  H3  UNL     1     -26.084  38.632  46.244  1.00  0.00     0.177 HD
HETATM    5  C3  UNL     1     -24.116  38.660  46.219  1.00  0.00     0.676 C 
HETATM    6  N9  UNL     1     -22.926  39.145  45.600  1.00  0.00    -0.156 N 
ATOM      7  H9  UNL     1     -22.003  38.880  45.944  1.00  0.00     0.187 HD
HETATM    8  C8  UNL     1     -23.078  40.020  44.474  1.00  0.00     0.302 C 
HETATM    9  O4  UNL     1     -22.158  40.805  44.140  1.00  0.00    -0.268 OA
ENDROOT
BRANCH   5  10
HETATM   10  N4  UNL     1     -24.006  37.794  47.332  1.00  0.00    -0.226 N 
ATOM     11  H4  UNL     1     -24.171  38.148  48.274  1.00  0.00     0.177 HD
BRANCH  10  12
HETATM   12  C4  UNL     1     -23.664  36.424  47.132  1.00  0.00     0.139 C 
BRANCH  12  13
HETATM   13  C5  UNL     1     -24.343  35.771  45.979  1.00  0.00     0.037 C 
BRANCH  13  14
HETATM   14  C6  UNL     1     -25.735  35.283  46.301  1.00  0.00     0.165 C 
BRANCH  14  15
HETATM   15  S1  UNL     1     -26.910  36.015  45.190  1.00  0.00     0.244 S 
HETATM   16  O1  UNL     1     -27.981  34.986  44.944  1.00  0.00    -0.205 OA
HETATM   17  O2  UNL     1     -27.488  37.285  45.751  1.00  0.00    -0.205 OA
BRANCH  15  18
HETATM   18  N5  UNL     1     -26.147  36.321  43.676  1.00  0.00    -0.114 N 
ATOM     19  H5  UNL     1     -25.514  37.114  43.568  1.00  0.00     0.197 HD
BRANCH  18  20
HETATM   20  C7  UNL     1     -26.385  35.536  42.682  1.00  0.00     0.726 A 
HETATM   21  N6  UNL     1     -25.534  35.225  41.668  1.00  0.00    -0.106 N 
HETATM   22  N7  UNL     1     -26.141  34.381  40.829  1.00  0.00     0.062 NA
ATOM     23  H6  UNL     1     -24.583  35.581  41.565  1.00  0.00     0.203 HD
HETATM   24  O3  UNL     1     -27.339  34.176  41.312  1.00  0.00    -0.127 OA
HETATM   25  N8  UNL     1     -27.501  34.843  42.397  1.00  0.00    -0.072 N 
ATOM     26  H8  UNL     1     -28.352  34.846  42.960  1.00  0.00     0.215 HD
ENDBRANCH  18  20
ENDBRANCH  15  18
ENDBRANCH  14  15
ENDBRANCH  13  14
ENDBRANCH  12  13
ENDBRANCH  10  12
ENDBRANCH   5  10
BRANCH   1  27
HETATM   27  N1  UNL     1     -24.542  41.201  42.938  1.00  0.00    -0.034 N 
ATOM     28  H13 UNL     1     -25.530  41.401  42.780  1.00  0.00     0.278 HD
ATOM     29  H12 UNL     1     -24.302  42.022  43.494  1.00  0.00     0.278 HD
ATOM     30  H11 UNL     1     -24.021  41.179  42.062  1.00  0.00     0.278 HD
ENDBRANCH   1  27
BRANCH   1  31
HETATM   31  N2  UNL     1     -24.294  38.826  42.825  1.00  0.00    -0.034 N 
ATOM     32  H23 UNL     1     -24.390  39.087  41.844  1.00  0.00     0.278 HD
ATOM     33  H22 UNL     1     -23.350  38.440  42.796  1.00  0.00     0.278 HD
ATOM     34  H21 UNL     1     -24.978  38.117  43.090  1.00  0.00     0.278 HD
ENDBRANCH   1  31
TORSDOF 9
ENDMDL
MODEL 5
REMARK VINA RESULT: -7.124412159      2.322      2.982
REMARK  9 active torsions:
REMARK  status: ('A' for Active; 'I' for Inactive)
REMARK    1  A    between atoms: N1_1  and  C1_5 
REMARK    2  A    between atoms: C1_5  and  N2_6 
REMARK    3  A    between atoms: C3_13  and  N4_14 
REMARK    4  A    between atoms: N4_14  and  C4_16 
REMARK    5  A    between atoms: C4_16  and  C5_17 
REMARK    6  A    between atoms: C5_17  and  C6_18 
REMARK    7  A    between atoms: C6_18  and  S1_19 
REMARK    8  A    between atoms: S1_19  and  N5_22 
REMARK    9  A    between atoms: N5_22  and  C7_24 
ROOT
HETATM    1  C1  UNL     1     -24.028  39.822  44.736  1.00  0.00     0.377 C 
HETATM    2  C2  UNL     1     -23.479  38.625  45.473  1.00  0.00     0.218 C 
HETATM    3  N3  UNL     1     -24.086  37.391  45.124  1.00  0.00    -0.222 N 
ATOM      4  H3  UNL     1     -24.007  36.634  45.803  1.00  0.00     0.177 HD
HETATM    5  C3  UNL     1     -24.725  37.131  44.040  1.00  0.00     0.676 C 
HETATM    6  N9  UNL     1     -24.879  38.139  43.043  1.00  0.00    -0.156 N 
ATOM      7  H9  UNL     1     -25.383  37.954  42.175  1.00  0.00     0.187 HD
HETATM    8  C8  UNL     1     -24.299  39.423  43.308  1.00  0.00     0.302 C 
HETATM    9  O4  UNL     1     -24.018  40.209  42.371  1.00  0.00    -0.268 OA
ENDROOT
BRANCH   5  10
HETATM   10  N4  UNL     1     -25.284  35.851  43.814  1.00  0.00    -0.226 N 
ATOM     11  H4  UNL     1     -24.685  35.026  43.800  1.00  0.00     0.177 HD
BRANCH  10  12
HETATM   12  C4  UNL     1     -26.689  35.720  43.604  1.00  0.00     0.139 C 
BRANCH  12  13
HETATM   13  C5  UNL     1     -27.463  35.295  44.803  1.00  0.00     0.037 C 
BRANCH  13  14
HETATM   14  C6  UNL     1     -28.154  36.437  45.506  1.00  0.00     0.165 C 
BRANCH  14  15
HETATM   15  S1  UNL     1     -27.274  36.864  46.988  1.00  0.00     0.244 S 
HETATM   16  O1  UNL     1     -26.577  38.173  46.723  1.00  0.00    -0.205 OA
HETATM   17  O2  UNL     1     -28.195  36.962  48.172  1.00  0.00    -0.205 OA
BRANCH  15  18
HETATM   18  N5  UNL     1     -26.047  35.690  47.278  1.00  0.00    -0.114 N 
ATOM     19  H5  UNL     1     -26.094  34.773  46.833  1.00  0.00     0.197 HD
BRANCH  18  20
HETATM   20  C7  UNL     1     -25.068  35.985  48.064  1.00  0.00     0.726 A 
HETATM   21  N6  UNL     1     -23.857  35.368  48.121  1.00  0.00    -0.106 N 
HETATM   22  N7  UNL     1     -23.110  35.956  49.060  1.00  0.00     0.062 NA
ATOM     23  H6  UNL     1     -23.566  34.582  47.540  1.00  0.00     0.203 HD
HETATM   24  O3  UNL     1     -23.842  36.913  49.571  1.00  0.00    -0.127 OA
HETATM   25  N8  UNL     1     -24.992  36.946  49.000  1.00  0.00    -0.072 N 
ATOM     26  H8  UNL     1     -25.738  37.604  49.225  1.00  0.00     0.215 HD
ENDBRANCH  18  20
ENDBRANCH  15  18
ENDBRANCH  14  15
ENDBRANCH  13  14
ENDBRANCH  12  13
ENDBRANCH  10  12
ENDBRANCH   5  10
BRANCH   1  27
HETATM   27  N1  UNL     1     -23.048  40.874  44.800  1.00  0.00    -0.034 N 
ATOM     28  H13 UNL     1     -23.371  41.715  44.321  1.00  0.00     0.278 HD
ATOM     29  H12 UNL     1     -22.968  41.251  45.745  1.00  0.00     0.278 HD
ATOM     30  H11 UNL     1     -22.142  40.567  44.444  1.00  0.00     0.278 HD
ENDBRANCH   1  27
BRANCH   1  31
HETATM   31  N2  UNL     1     -25.299  40.239  45.298  1.00  0.00    -0.034 N 
ATOM     32  H23 UNL     1     -25.713  40.999  44.758  1.00  0.00     0.278 HD
ATOM     33  H22 UNL     1     -26.020  39.532  45.156  1.00  0.00     0.278 HD
ATOM     34  H21 UNL     1     -25.210  40.488  46.283  1.00  0.00     0.278 HD
ENDBRANCH   1  31
TORSDOF 9
ENDMDL
