MODEL 1
REMARK VINA RESULT: -6.634642097      0.000      0.000
REMARK  4 active torsions:
REMARK  status: ('A' for Active; 'I' for Inactive)
REMARK    1  A    between atoms: N1_1  and  C1_4 
REMARK    2  A    between atoms: C2_7  and  N3_8 
REMARK    3  A    between atoms: C5_11  and  C6_12 
REMARK    4  A    between atoms: C8_17  and  N6_18 
ROOT
HETATM    1  C1  UNL     1     -11.768 -27.978 -26.890  1.00  0.00     0.136 A 
HETATM    2  N2  UNL     1     -12.877 -27.677 -26.228  1.00  0.00    -0.326 N 
ATOM      3  H2  UNL     1     -12.831 -27.022 -25.446  1.00  0.00     0.169 HD
HETATM    4  C2  UNL     1     -14.088 -28.230 -26.574  1.00  0.00     0.122 A 
HETATM    5  C5  UNL     1     -14.128 -29.100 -27.617  1.00  0.00     0.100 A 
HETATM    6  C7  UNL     1     -12.951 -29.417 -28.315  1.00  0.00     0.102 A 
HETATM    7  N5  UNL     1     -12.973 -30.329 -29.407  1.00  0.00    -0.098 NA
HETATM    8  C8  UNL     1     -11.764 -28.857 -27.954  1.00  0.00     0.171 A 
ENDROOT
BRANCH   1   9
HETATM    9  N1  UNL     1     -10.609 -27.455 -26.572  1.00  0.00    -0.383 N 
ATOM     10  H12 UNL     1     -10.005 -28.028 -25.982  1.00  0.00     0.157 HD
ATOM     11  H11 UNL     1     -10.329 -26.529 -26.896  1.00  0.00     0.157 HD
ENDBRANCH   1   9
BRANCH   8  12
HETATM   12  N6  UNL     1     -10.570 -29.178 -28.669  1.00  0.00    -0.110 N 
HETATM   13  O2  UNL     1     -10.284 -28.579 -29.705  1.00  0.00    -0.532 OA
HETATM   14  O3  UNL     1      -9.727 -30.153 -28.215  1.00  0.00    -0.532 OA
ENDBRANCH   8  12
BRANCH   4  15
HETATM   15  N3  UNL     1     -15.227 -27.845 -25.804  1.00  0.00    -0.363 N 
HETATM   16  C3  UNL     1     -16.440 -27.122 -25.533  1.00  0.00     0.144 A 
HETATM   17  C4  UNL     1     -15.947 -28.140 -24.545  1.00  0.00     0.144 A 
ENDBRANCH   4  15
BRANCH   5  18
HETATM   18  C6  UNL     1     -15.342 -29.733 -28.068  1.00  0.00     0.270 C 
HETATM   19  N4  UNL     1     -16.050 -30.751 -27.398  1.00  0.00    -0.057 NA
HETATM   20  O1  UNL     1     -15.859 -29.363 -29.178  1.00  0.00    -0.271 OA
ENDBRANCH   5  18
TORSDOF 4
ENDMDL
MODEL 2
REMARK VINA RESULT: -6.504334726      1.686      3.061
REMARK  4 active torsions:
REMARK  status: ('A' for Active; 'I' for Inactive)
REMARK    1  A    between atoms: N1_1  and  C1_4 
REMARK    2  A    between atoms: C2_7  and  N3_8 
REMARK    3  A    between atoms: C5_11  and  C6_12 
REMARK    4  A    between atoms: C8_17  and  N6_18 
ROOT
HETATM    1  C1  UNL     1     -12.833 -29.685 -29.270  1.00  0.00     0.136 A 
HETATM    2  N2  UNL     1     -14.129 -29.647 -28.990  1.00  0.00    -0.326 N 
ATOM      3  H2  UNL     1     -14.788 -30.128 -29.603  1.00  0.00     0.169 HD
HETATM    4  C2  UNL     1     -14.603 -28.972 -27.888  1.00  0.00     0.122 A 
HETATM    5  C5  UNL     1     -13.710 -28.337 -27.084  1.00  0.00     0.100 A 
HETATM    6  C7  UNL     1     -12.338 -28.379 -27.385  1.00  0.00     0.102 A 
HETATM    7  N5  UNL     1     -11.390 -27.716 -26.557  1.00  0.00    -0.098 NA
HETATM    8  C8  UNL     1     -11.893 -29.053 -28.481  1.00  0.00     0.171 A 
ENDROOT
BRANCH   1   9
HETATM    9  N1  UNL     1     -12.370 -30.327 -30.314  1.00  0.00    -0.383 N 
ATOM     10  H12 UNL     1     -11.755 -29.795 -30.930  1.00  0.00     0.157 HD
ATOM     11  H11 UNL     1     -12.611 -31.301 -30.497  1.00  0.00     0.157 HD
ENDBRANCH   1   9
BRANCH   8  12
HETATM   12  N6  UNL     1     -10.498 -29.097 -28.781  1.00  0.00    -0.110 N 
HETATM   13  O2  UNL     1     -10.005 -28.292 -29.571  1.00  0.00    -0.532 OA
HETATM   14  O3  UNL     1      -9.688 -30.031 -28.199  1.00  0.00    -0.532 OA
ENDBRANCH   8  12
BRANCH   4  15
HETATM   15  N3  UNL     1     -16.013 -28.989 -27.667  1.00  0.00    -0.363 N 
HETATM   16  C3  UNL     1     -17.245 -28.598 -27.036  1.00  0.00     0.144 A 
HETATM   17  C4  UNL     1     -17.275 -29.565 -28.185  1.00  0.00     0.144 A 
ENDBRANCH   4  15
BRANCH   5  18
HETATM   18  C6  UNL     1     -14.095 -27.606 -25.903  1.00  0.00     0.270 C 
HETATM   19  N4  UNL     1     -14.241 -26.208 -25.799  1.00  0.00    -0.057 NA
HETATM   20  O1  UNL     1     -14.336 -28.252 -24.826  1.00  0.00    -0.271 OA
ENDBRANCH   5  18
TORSDOF 4
ENDMDL
MODEL 3
REMARK VINA RESULT: -6.362852728      1.860      2.316
REMARK  4 active torsions:
REMARK  status: ('A' for Active; 'I' for Inactive)
REMARK    1  A    between atoms: N1_1  and  C1_4 
REMARK    2  A    between atoms: C2_7  and  N3_8 
REMARK    3  A    between atoms: C5_11  and  C6_12 
REMARK    4  A    between atoms: C8_17  and  N6_18 
ROOT
HETATM    1  C1  UNL     1     -12.014 -27.955 -27.251  1.00  0.00     0.136 A 
HETATM    2  N2  UNL     1     -12.426 -27.165 -26.269  1.00  0.00    -0.326 N 
ATOM      3  H2  UNL     1     -11.772 -26.503 -25.851  1.00  0.00     0.169 HD
HETATM    4  C2  UNL     1     -13.720 -27.220 -25.802  1.00  0.00     0.122 A 
HETATM    5  C5  UNL     1     -14.576 -28.109 -26.372  1.00  0.00     0.100 A 
HETATM    6  C7  UNL     1     -14.135 -28.944 -27.411  1.00  0.00     0.102 A 
HETATM    7  N5  UNL     1     -15.016 -29.884 -28.015  1.00  0.00    -0.098 NA
HETATM    8  C8  UNL     1     -12.851 -28.871 -27.856  1.00  0.00     0.171 A 
ENDROOT
BRANCH   1   9
HETATM    9  N1  UNL     1     -10.786 -27.909 -27.706  1.00  0.00    -0.383 N 
ATOM     10  H12 UNL     1     -10.137 -27.320 -27.184  1.00  0.00     0.157 HD
ATOM     11  H11 UNL     1     -10.498 -28.433 -28.532  1.00  0.00     0.157 HD
ENDBRANCH   1   9
BRANCH   8  12
HETATM   12  N6  UNL     1     -12.407 -29.719 -28.916  1.00  0.00    -0.110 N 
HETATM   13  O2  UNL     1     -12.012 -30.860 -28.678  1.00  0.00    -0.532 OA
HETATM   14  O3  UNL     1     -12.412 -29.279 -30.210  1.00  0.00    -0.532 OA
ENDBRANCH   8  12
BRANCH   4  15
HETATM   15  N3  UNL     1     -14.071 -26.330 -24.743  1.00  0.00    -0.363 N 
HETATM   16  C3  UNL     1     -14.573 -25.110 -24.170  1.00  0.00     0.144 A 
HETATM   17  C4  UNL     1     -14.158 -26.236 -23.268  1.00  0.00     0.144 A 
ENDBRANCH   4  15
BRANCH   5  18
HETATM   18  C6  UNL     1     -15.952 -28.247 -25.965  1.00  0.00     0.270 C 
HETATM   19  N4  UNL     1     -16.450 -29.146 -25.000  1.00  0.00    -0.057 NA
HETATM   20  O1  UNL     1     -16.836 -27.500 -26.508  1.00  0.00    -0.271 OA
ENDBRANCH   5  18
TORSDOF 4
ENDMDL
MODEL 4
REMARK VINA RESULT: -6.339294102      1.260      1.674
REMARK  4 active torsions:
REMARK  status: ('A' for Active; 'I' for Inactive)
REMARK    1  A    between atoms: N1_1  and  C1_4 
REMARK    2  A    between atoms: C2_7  and  N3_8 
REMARK    3  A    between atoms: C5_11  and  C6_12 
REMARK    4  A    between atoms: C8_17  and  N6_18 
ROOT
HETATM    1  C1  UNL     1     -13.203 -28.037 -26.979  1.00  0.00     0.136 A 
HETATM    2  N2  UNL     1     -14.463 -27.913 -26.586  1.00  0.00    -0.326 N 
ATOM      3  H2  UNL     1     -14.684 -27.306 -25.797  1.00  0.00     0.169 HD
HETATM    4  C2  UNL     1     -15.480 -28.589 -27.223  1.00  0.00     0.122 A 
HETATM    5  C5  UNL     1     -15.165 -29.393 -28.272  1.00  0.00     0.100 A 
HETATM    6  C7  UNL     1     -13.828 -29.521 -28.684  1.00  0.00     0.102 A 
HETATM    7  N5  UNL     1     -13.480 -30.363 -29.777  1.00  0.00    -0.098 NA
HETATM    8  C8  UNL     1     -12.840 -28.844 -28.039  1.00  0.00     0.171 A 
ENDROOT
BRANCH   1   9
HETATM    9  N1  UNL     1     -12.227 -27.397 -26.383  1.00  0.00    -0.383 N 
ATOM     10  H12 UNL     1     -12.259 -27.381 -25.364  1.00  0.00     0.157 HD
ATOM     11  H11 UNL     1     -11.480 -26.943 -26.909  1.00  0.00     0.157 HD
ENDBRANCH   1   9
BRANCH   8  12
HETATM   12  N6  UNL     1     -11.483 -28.973 -28.463  1.00  0.00    -0.110 N 
HETATM   13  O2  UNL     1     -10.761 -29.849 -27.987  1.00  0.00    -0.532 OA
HETATM   14  O3  UNL     1     -10.962 -28.129 -29.403  1.00  0.00    -0.532 OA
ENDBRANCH   8  12
BRANCH   4  15
HETATM   15  N3  UNL     1     -16.805 -28.391 -26.730  1.00  0.00    -0.363 N 
HETATM   16  C3  UNL     1     -18.185 -28.731 -26.513  1.00  0.00     0.144 A 
HETATM   17  C4  UNL     1     -17.626 -27.476 -25.905  1.00  0.00     0.144 A 
ENDBRANCH   4  15
BRANCH   5  18
HETATM   18  C6  UNL     1     -16.149 -30.141 -29.013  1.00  0.00     0.270 C 
HETATM   19  N4  UNL     1     -16.782 -31.329 -28.595  1.00  0.00    -0.057 NA
HETATM   20  O1  UNL     1     -16.510 -29.719 -30.165  1.00  0.00    -0.271 OA
ENDBRANCH   5  18
TORSDOF 4
ENDMDL
MODEL 5
REMARK VINA RESULT: -6.259869953      1.212      1.217
REMARK  4 active torsions:
REMARK  status: ('A' for Active; 'I' for Inactive)
REMARK    1  A    between atoms: N1_1  and  C1_4 
REMARK    2  A    between atoms: C2_7  and  N3_8 
REMARK    3  A    between atoms: C5_11  and  C6_12 
REMARK    4  A    between atoms: C8_17  and  N6_18 
ROOT
HETATM    1  C1  UNL     1     -12.736 -27.940 -26.891  1.00  0.00     0.136 A 
HETATM    2  N2  UNL     1     -13.939 -27.796 -26.352  1.00  0.00    -0.326 N 
ATOM      3  H2  UNL     1     -14.057 -27.178 -25.548  1.00  0.00     0.169 HD
HETATM    4  C2  UNL     1     -15.033 -28.464 -26.855  1.00  0.00     0.122 A 
HETATM    5  C5  UNL     1     -14.856 -29.283 -27.925  1.00  0.00     0.100 A 
HETATM    6  C7  UNL     1     -13.579 -29.432 -28.493  1.00  0.00     0.102 A 
HETATM    7  N5  UNL     1     -13.375 -30.289 -29.610  1.00  0.00    -0.098 NA
HETATM    8  C8  UNL     1     -12.513 -28.762 -27.978  1.00  0.00     0.171 A 
ENDROOT
BRANCH   1   9
HETATM    9  N1  UNL     1     -11.689 -27.307 -26.424  1.00  0.00    -0.383 N 
ATOM     10  H12 UNL     1     -11.324 -27.643 -25.532  1.00  0.00     0.157 HD
ATOM     11  H11 UNL     1     -11.265 -26.525 -26.923  1.00  0.00     0.157 HD
ENDBRANCH   1   9
BRANCH   8  12
HETATM   12  N6  UNL     1     -11.218 -28.913 -28.560  1.00  0.00    -0.110 N 
HETATM   13  O2  UNL     1     -10.856 -28.175 -29.476  1.00  0.00    -0.532 OA
HETATM   14  O3  UNL     1     -10.360 -29.878 -28.112  1.00  0.00    -0.532 OA
ENDBRANCH   8  12
BRANCH   4  15
HETATM   15  N3  UNL     1     -16.287 -28.244 -26.209  1.00  0.00    -0.363 N 
HETATM   16  C3  UNL     1     -17.621 -27.722 -26.082  1.00  0.00     0.144 A 
HETATM   17  C4  UNL     1     -17.067 -28.610 -25.005  1.00  0.00     0.144 A 
ENDBRANCH   4  15
BRANCH   5  18
HETATM   18  C6  UNL     1     -15.930 -30.024 -28.535  1.00  0.00     0.270 C 
HETATM   19  N4  UNL     1     -16.512 -29.767 -29.793  1.00  0.00    -0.057 NA
HETATM   20  O1  UNL     1     -16.432 -31.018 -27.906  1.00  0.00    -0.271 OA
ENDBRANCH   5  18
TORSDOF 4
ENDMDL
