MODEL 1
REMARK VINA RESULT: -6.863535593      0.000      0.000
REMARK  6 active torsions:
REMARK  status: ('A' for Active; 'I' for Inactive)
REMARK    1  A    between atoms: C2_2  and  C3_3 
REMARK    2  A    between atoms: C3_3  and  C4_4 
REMARK    3  A    between atoms: C4_4  and  O1_5 
REMARK    4  A    between atoms: O1_5  and  C5_6 
REMARK    5  A    between atoms: C5_6  and  O2_7 
REMARK    6  A    between atoms: C5_6  and  C6_9 
ROOT
HETATM    1  C6  UNL     1      -0.421   8.025  24.566  1.00  0.00     0.080 A 
HETATM    2  S1  UNL     1       1.006   7.663  25.522  1.00  0.00    -0.067 SA
HETATM    3  C7  UNL     1       1.818   9.139  25.383  1.00  0.00     0.122 A 
HETATM    4  N1  UNL     1       3.099   9.541  25.947  1.00  0.00    -0.091 NA
HETATM    5  C8  UNL     1       0.973   9.878  24.604  1.00  0.00     0.124 A 
HETATM    6  O3  UNL     1       1.252  11.144  24.248  1.00  0.00    -0.281 OA
HETATM    7  C9  UNL     1       0.494  11.883  23.515  1.00  0.00     0.220 A 
HETATM    8  S2  UNL     1       0.983  13.422  23.169  1.00  0.00    -0.032 SA
HETATM    9  N2  UNL     1      -0.647  11.403  23.063  1.00  0.00    -0.317 N 
ATOM     10  H2  UNL     1      -1.259  11.976  22.483  1.00  0.00     0.169 HD
HETATM   11  C10 UNL     1      -0.993  10.123  23.387  1.00  0.00     0.117 A 
HETATM   12  S3  UNL     1      -2.407   9.607  22.795  1.00  0.00    -0.059 SA
HETATM   13  C11 UNL     1      -0.173   9.304  24.186  1.00  0.00     0.060 A 
ENDROOT
BRANCH   1  14
HETATM   14  C5  UNL     1      -1.468   7.044  24.369  1.00  0.00     0.197 C 
BRANCH  14  15
HETATM   15  O1  UNL     1      -2.619   6.769  25.017  1.00  0.00    -0.330 OA
BRANCH  15  16
HETATM   16  C4  UNL     1      -3.081   5.523  25.466  1.00  0.00     0.178 C 
BRANCH  16  17
HETATM   17  C3  UNL     1      -2.235   4.875  26.522  1.00  0.00     0.026 C 
BRANCH  17  18
HETATM   18  C2  UNL     1      -1.614   3.632  25.865  1.00  0.00    -0.002 C 
HETATM   19  C1  UNL     1      -0.451   3.146  26.690  1.00  0.00     0.005 C 
ENDBRANCH  17  18
ENDBRANCH  16  17
ENDBRANCH  15  16
ENDBRANCH  14  15
BRANCH  14  20
HETATM   20  O2  UNL     1      -1.299   6.225  23.352  1.00  0.00    -0.340 OA
ATOM     21  H2  UNL     1      -0.745   5.494  23.599  1.00  0.00     0.220 HD
ENDBRANCH  14  20
ENDBRANCH   1  14
TORSDOF 6
ENDMDL
MODEL 2
REMARK VINA RESULT: -6.823233489      2.922      5.095
REMARK  6 active torsions:
REMARK  status: ('A' for Active; 'I' for Inactive)
REMARK    1  A    between atoms: C2_2  and  C3_3 
REMARK    2  A    between atoms: C3_3  and  C4_4 
REMARK    3  A    between atoms: C4_4  and  O1_5 
REMARK    4  A    between atoms: O1_5  and  C5_6 
REMARK    5  A    between atoms: C5_6  and  O2_7 
REMARK    6  A    between atoms: C5_6  and  C6_9 
ROOT
HETATM    1  C6  UNL     1      -0.389   9.392  24.016  1.00  0.00     0.080 A 
HETATM    2  S1  UNL     1      -1.173   7.874  24.420  1.00  0.00    -0.067 SA
HETATM    3  C7  UNL     1      -0.006   7.224  25.457  1.00  0.00     0.122 A 
HETATM    4  N1  UNL     1      -0.013   5.955  26.169  1.00  0.00    -0.091 NA
HETATM    5  C8  UNL     1       0.961   8.191  25.470  1.00  0.00     0.124 A 
HETATM    6  O3  UNL     1       2.089   8.064  26.190  1.00  0.00    -0.281 OA
HETATM    7  C9  UNL     1       3.030   8.941  26.236  1.00  0.00     0.220 A 
HETATM    8  S2  UNL     1       4.355   8.633  27.174  1.00  0.00    -0.032 SA
HETATM    9  N2  UNL     1       2.919  10.057  25.544  1.00  0.00    -0.317 N 
ATOM     10  H2  UNL     1       3.656  10.761  25.571  1.00  0.00     0.169 HD
HETATM   11  C10 UNL     1       1.798  10.251  24.790  1.00  0.00     0.117 A 
HETATM   12  S3  UNL     1       1.735  11.644  23.970  1.00  0.00    -0.059 SA
HETATM   13  C11 UNL     1       0.761   9.300  24.730  1.00  0.00     0.060 A 
ENDROOT
BRANCH   1  14
HETATM   14  C5  UNL     1      -1.008  10.347  23.121  1.00  0.00     0.197 C 
BRANCH  14  15
HETATM   15  O1  UNL     1      -0.863  10.622  21.809  1.00  0.00    -0.330 OA
BRANCH  15  16
HETATM   16  C4  UNL     1      -1.153   9.794  20.714  1.00  0.00     0.178 C 
BRANCH  16  17
HETATM   17  C3  UNL     1      -2.514   9.989  20.113  1.00  0.00     0.026 C 
BRANCH  17  18
HETATM   18  C2  UNL     1      -3.344   8.767  20.537  1.00  0.00    -0.002 C 
HETATM   19  C1  UNL     1      -4.264   9.143  21.669  1.00  0.00     0.005 C 
ENDBRANCH  17  18
ENDBRANCH  16  17
ENDBRANCH  15  16
ENDBRANCH  14  15
BRANCH  14  20
HETATM   20  O2  UNL     1      -1.912  11.137  23.665  1.00  0.00    -0.340 OA
ATOM     21  H2  UNL     1      -2.199  10.791  24.502  1.00  0.00     0.220 HD
ENDBRANCH  14  20
ENDBRANCH   1  14
TORSDOF 6
ENDMDL
MODEL 3
REMARK VINA RESULT: -6.572738625      2.877      4.819
REMARK  6 active torsions:
REMARK  status: ('A' for Active; 'I' for Inactive)
REMARK    1  A    between atoms: C2_2  and  C3_3 
REMARK    2  A    between atoms: C3_3  and  C4_4 
REMARK    3  A    between atoms: C4_4  and  O1_5 
REMARK    4  A    between atoms: O1_5  and  C5_6 
REMARK    5  A    between atoms: C5_6  and  O2_7 
REMARK    6  A    between atoms: C5_6  and  C6_9 
ROOT
HETATM    1  C6  UNL     1      -0.475   8.848  24.156  1.00  0.00     0.080 A 
HETATM    2  S1  UNL     1      -1.154   7.302  24.635  1.00  0.00    -0.067 SA
HETATM    3  C7  UNL     1       0.057   6.780  25.692  1.00  0.00     0.122 A 
HETATM    4  N1  UNL     1       0.137   5.547  26.462  1.00  0.00    -0.091 NA
HETATM    5  C8  UNL     1       0.958   7.807  25.653  1.00  0.00     0.124 A 
HETATM    6  O3  UNL     1       2.095   7.789  26.370  1.00  0.00    -0.281 OA
HETATM    7  C9  UNL     1       2.977   8.727  26.369  1.00  0.00     0.220 A 
HETATM    8  S2  UNL     1       4.323   8.550  27.310  1.00  0.00    -0.032 SA
HETATM    9  N2  UNL     1       2.789   9.799  25.627  1.00  0.00    -0.317 N 
ATOM     10  H2  UNL     1       3.478  10.551  25.616  1.00  0.00     0.169 HD
HETATM   11  C10 UNL     1       1.655   9.884  24.873  1.00  0.00     0.117 A 
HETATM   12  S3  UNL     1       1.496  11.230  23.990  1.00  0.00    -0.059 SA
HETATM   13  C11 UNL     1       0.683   8.865  24.864  1.00  0.00     0.060 A 
ENDROOT
BRANCH   1  14
HETATM   14  C5  UNL     1      -1.159   9.718  23.222  1.00  0.00     0.197 C 
BRANCH  14  15
HETATM   15  O1  UNL     1      -2.167  10.606  23.344  1.00  0.00    -0.330 OA
BRANCH  15  16
HETATM   16  C4  UNL     1      -3.501  10.462  22.934  1.00  0.00     0.178 C 
BRANCH  16  17
HETATM   17  C3  UNL     1      -3.904   9.065  22.562  1.00  0.00     0.026 C 
BRANCH  17  18
HETATM   18  C2  UNL     1      -4.540   9.164  21.166  1.00  0.00    -0.002 C 
HETATM   19  C1  UNL     1      -3.569   8.670  20.126  1.00  0.00     0.005 C 
ENDBRANCH  17  18
ENDBRANCH  16  17
ENDBRANCH  15  16
ENDBRANCH  14  15
BRANCH  14  20
HETATM   20  O2  UNL     1      -0.739   9.660  21.975  1.00  0.00    -0.340 OA
ATOM     21  H2  UNL     1      -0.136  10.372  21.791  1.00  0.00     0.220 HD
ENDBRANCH  14  20
ENDBRANCH   1  14
TORSDOF 6
ENDMDL
MODEL 4
REMARK VINA RESULT: -6.538021411      2.920      5.728
REMARK  6 active torsions:
REMARK  status: ('A' for Active; 'I' for Inactive)
REMARK    1  A    between atoms: C2_2  and  C3_3 
REMARK    2  A    between atoms: C3_3  and  C4_4 
REMARK    3  A    between atoms: C4_4  and  O1_5 
REMARK    4  A    between atoms: O1_5  and  C5_6 
REMARK    5  A    between atoms: C5_6  and  O2_7 
REMARK    6  A    between atoms: C5_6  and  C6_9 
ROOT
HETATM    1  C6  UNL     1      -0.358   9.326  24.045  1.00  0.00     0.080 A 
HETATM    2  S1  UNL     1      -1.078   7.786  24.482  1.00  0.00    -0.067 SA
HETATM    3  C7  UNL     1       0.125   7.196  25.513  1.00  0.00     0.122 A 
HETATM    4  N1  UNL     1       0.175   5.938  26.243  1.00  0.00    -0.091 NA
HETATM    5  C8  UNL     1       1.055   8.199  25.498  1.00  0.00     0.124 A 
HETATM    6  O3  UNL     1       2.196   8.125  26.206  1.00  0.00    -0.281 OA
HETATM    7  C9  UNL     1       3.104   9.038  26.227  1.00  0.00     0.220 A 
HETATM    8  S2  UNL     1       4.451   8.793  27.151  1.00  0.00    -0.032 SA
HETATM    9  N2  UNL     1       2.942  10.138  25.520  1.00  0.00    -0.317 N 
ATOM     10  H2  UNL     1       3.652  10.870  25.526  1.00  0.00     0.169 HD
HETATM   11  C10 UNL     1       1.805  10.278  24.778  1.00  0.00     0.117 A 
HETATM   12  S3  UNL     1       1.679  11.655  23.938  1.00  0.00    -0.059 SA
HETATM   13  C11 UNL     1       0.804   9.288  24.745  1.00  0.00     0.060 A 
ENDROOT
BRANCH   1  14
HETATM   14  C5  UNL     1      -1.024  10.244  23.145  1.00  0.00     0.197 C 
BRANCH  14  15
HETATM   15  O1  UNL     1      -0.922  10.489  21.822  1.00  0.00    -0.330 OA
BRANCH  15  16
HETATM   16  C4  UNL     1      -1.471   9.754  20.761  1.00  0.00     0.178 C 
BRANCH  16  17
HETATM   17  C3  UNL     1      -2.414  10.519  19.879  1.00  0.00     0.026 C 
BRANCH  17  18
HETATM   18  C2  UNL     1      -1.881  11.960  19.838  1.00  0.00    -0.002 C 
HETATM   19  C1  UNL     1      -2.803  12.821  19.015  1.00  0.00     0.005 C 
ENDBRANCH  17  18
ENDBRANCH  16  17
ENDBRANCH  15  16
ENDBRANCH  14  15
BRANCH  14  20
HETATM   20  O2  UNL     1      -1.931  11.025  23.694  1.00  0.00    -0.340 OA
ATOM     21  H2  UNL     1      -1.549  11.860  23.940  1.00  0.00     0.220 HD
ENDBRANCH  14  20
ENDBRANCH   1  14
TORSDOF 6
ENDMDL
MODEL 5
REMARK VINA RESULT: -6.507065881      1.289      2.895
REMARK  6 active torsions:
REMARK  status: ('A' for Active; 'I' for Inactive)
REMARK    1  A    between atoms: C2_2  and  C3_3 
REMARK    2  A    between atoms: C3_3  and  C4_4 
REMARK    3  A    between atoms: C4_4  and  O1_5 
REMARK    4  A    between atoms: O1_5  and  C5_6 
REMARK    5  A    between atoms: C5_6  and  O2_7 
REMARK    6  A    between atoms: C5_6  and  C6_9 
ROOT
HETATM    1  C6  UNL     1      -1.251   8.474  23.288  1.00  0.00     0.080 A 
HETATM    2  S1  UNL     1      -2.275   8.843  21.911  1.00  0.00    -0.067 SA
HETATM    3  C7  UNL     1      -1.740  10.412  21.577  1.00  0.00     0.122 A 
HETATM    4  N1  UNL     1      -2.176  11.329  20.535  1.00  0.00    -0.091 NA
HETATM    5  C8  UNL     1      -0.786  10.617  22.534  1.00  0.00     0.124 A 
HETATM    6  O3  UNL     1      -0.098  11.769  22.622  1.00  0.00    -0.281 OA
HETATM    7  C9  UNL     1       0.808  12.015  23.503  1.00  0.00     0.220 A 
HETATM    8  S2  UNL     1       1.561  13.485  23.475  1.00  0.00    -0.032 SA
HETATM    9  N2  UNL     1       1.116  11.099  24.398  1.00  0.00    -0.317 N 
ATOM     10  H2  UNL     1       1.832  11.278  25.101  1.00  0.00     0.169 HD
HETATM   11  C10 UNL     1       0.456   9.904  24.365  1.00  0.00     0.117 A 
HETATM   12  S3  UNL     1       0.890   8.831  25.497  1.00  0.00    -0.059 SA
HETATM   13  C11 UNL     1      -0.538   9.622  23.409  1.00  0.00     0.060 A 
ENDROOT
BRANCH   1  14
HETATM   14  C5  UNL     1      -1.327   7.197  23.966  1.00  0.00     0.197 C 
BRANCH  14  15
HETATM   15  O1  UNL     1      -1.786   6.810  25.174  1.00  0.00    -0.330 OA
BRANCH  15  16
HETATM   16  C4  UNL     1      -2.792   5.874  25.458  1.00  0.00     0.178 C 
BRANCH  16  17
HETATM   17  C3  UNL     1      -2.442   4.865  26.512  1.00  0.00     0.026 C 
BRANCH  17  18
HETATM   18  C2  UNL     1      -1.705   3.730  25.784  1.00  0.00    -0.002 C 
HETATM   19  C1  UNL     1      -0.594   3.202  26.653  1.00  0.00     0.005 C 
ENDBRANCH  17  18
ENDBRANCH  16  17
ENDBRANCH  15  16
ENDBRANCH  14  15
BRANCH  14  20
HETATM   20  O2  UNL     1      -0.857   6.165  23.295  1.00  0.00    -0.340 OA
ATOM     21  H2  UNL     1      -0.750   6.384  22.377  1.00  0.00     0.220 HD
ENDBRANCH  14  20
ENDBRANCH   1  14
TORSDOF 6
ENDMDL
