MODEL 1
REMARK VINA RESULT: -6.356867896      0.000      0.000
REMARK  9 active torsions:
REMARK  status: ('A' for Active; 'I' for Inactive)
REMARK    1  A    between atoms: O1_2  and  C2_3 
REMARK    2  A    between atoms: C2_3  and  C3_4 
REMARK    3  A    between atoms: C3_4  and  C4_5 
REMARK    4  A    between atoms: C4_5  and  N1_6 
REMARK    5  A    between atoms: N1_6  and  O2_7 
REMARK    6  A    between atoms: N1_6  and  C5_9 
REMARK    7  A    between atoms: C5_9  and  S2_11 
REMARK    8  A    between atoms: S2_11  and  C6_12 
REMARK    9  A    between atoms: N3_18  and  O3_20 
ROOT
HETATM    1  C6  UNL     1      13.583  -6.900   7.899  1.00  0.00     0.083 A 
HETATM    2  S3  UNL     1      12.153  -6.736   7.042  1.00  0.00    -0.042 SA
HETATM    3  S4  UNL     1      13.429  -5.837   5.845  1.00  0.00    -0.039 SA
HETATM    4  C7  UNL     1      14.459  -6.285   7.081  1.00  0.00     0.116 A 
HETATM    5  C8  UNL     1      15.922  -6.039   7.185  1.00  0.00     0.109 C 
HETATM    6  N2  UNL     1      17.080  -5.829   7.243  1.00  0.00    -0.191 NA
ENDROOT
BRANCH   1   7
HETATM    7  S2  UNL     1      13.872  -7.722   9.515  1.00  0.00    -0.049 SA
BRANCH   7   8
HETATM    8  C5  UNL     1      14.547  -6.593  10.701  1.00  0.00     0.165 C 
HETATM    9  S1  UNL     1      13.530  -5.518  11.444  1.00  0.00    -0.050 SA
BRANCH   8  10
HETATM   10  N1  UNL     1      15.916  -6.613  11.017  1.00  0.00    -0.243 N 
BRANCH  10  11
HETATM   11  C4  UNL     1      16.501  -7.526  11.979  1.00  0.00     0.165 C 
BRANCH  11  12
HETATM   12  C3  UNL     1      15.511  -8.231  12.841  1.00  0.00     0.108 C 
BRANCH  12  13
HETATM   13  C2  UNL     1      15.447  -7.509  14.169  1.00  0.00     0.138 C 
HETATM   14  N3  UNL     1      16.290  -6.583  14.429  1.00  0.00    -0.251 N 
ATOM     15  H3  UNL     1      16.979  -6.371  13.708  1.00  0.00     0.196 HD
BRANCH  13  16
HETATM   16  O1  UNL     1      14.478  -7.860  15.087  1.00  0.00    -0.343 OA
HETATM   17  C1  UNL     1      13.736  -9.044  15.039  1.00  0.00     0.211 C 
ENDBRANCH  13  16
BRANCH  14  18
HETATM   18  O3  UNL     1      16.355  -5.855  15.571  1.00  0.00    -0.288 OA
ATOM     19  H3  UNL     1      16.671  -4.963  15.652  1.00  0.00     0.244 HD
ENDBRANCH  14  18
ENDBRANCH  12  13
ENDBRANCH  11  12
ENDBRANCH  10  11
BRANCH  10  20
HETATM   20  O2  UNL     1      16.751  -5.746  10.416  1.00  0.00    -0.286 OA
ATOM     21  H2  UNL     1      16.393  -5.227   9.706  1.00  0.00     0.244 HD
ENDBRANCH  10  20
ENDBRANCH   8  10
ENDBRANCH   7   8
ENDBRANCH   1   7
TORSDOF 9
ENDMDL
MODEL 2
REMARK VINA RESULT: -6.307283165      2.104      2.606
REMARK  9 active torsions:
REMARK  status: ('A' for Active; 'I' for Inactive)
REMARK    1  A    between atoms: O1_2  and  C2_3 
REMARK    2  A    between atoms: C2_3  and  C3_4 
REMARK    3  A    between atoms: C3_4  and  C4_5 
REMARK    4  A    between atoms: C4_5  and  N1_6 
REMARK    5  A    between atoms: N1_6  and  O2_7 
REMARK    6  A    between atoms: N1_6  and  C5_9 
REMARK    7  A    between atoms: C5_9  and  S2_11 
REMARK    8  A    between atoms: S2_11  and  C6_12 
REMARK    9  A    between atoms: N3_18  and  O3_20 
ROOT
HETATM    1  C6  UNL     1      15.499  -3.551   8.762  1.00  0.00     0.083 A 
HETATM    2  S3  UNL     1      15.956  -1.941   8.816  1.00  0.00    -0.042 SA
HETATM    3  S4  UNL     1      17.288  -2.682   7.571  1.00  0.00    -0.039 SA
HETATM    4  C7  UNL     1      16.410  -4.061   7.909  1.00  0.00     0.116 A 
HETATM    5  C8  UNL     1      16.629  -5.435   7.384  1.00  0.00     0.109 C 
HETATM    6  N2  UNL     1      16.826  -6.514   6.953  1.00  0.00    -0.191 NA
ENDROOT
BRANCH   1   7
HETATM    7  S2  UNL     1      14.109  -4.386   9.623  1.00  0.00    -0.049 SA
BRANCH   7   8
HETATM    8  C5  UNL     1      14.377  -6.133   9.737  1.00  0.00     0.165 C 
HETATM    9  S1  UNL     1      13.589  -7.130   8.676  1.00  0.00    -0.050 SA
BRANCH   8  10
HETATM   10  N1  UNL     1      15.251  -6.667  10.701  1.00  0.00    -0.243 N 
BRANCH  10  11
HETATM   11  C4  UNL     1      14.884  -7.739  11.604  1.00  0.00     0.165 C 
BRANCH  11  12
HETATM   12  C3  UNL     1      15.928  -8.082  12.610  1.00  0.00     0.108 C 
BRANCH  12  13
HETATM   13  C2  UNL     1      15.564  -7.403  13.912  1.00  0.00     0.138 C 
HETATM   14  N3  UNL     1      16.393  -6.598  14.462  1.00  0.00    -0.251 N 
ATOM     15  H3  UNL     1      17.279  -6.450  13.980  1.00  0.00     0.196 HD
BRANCH  13  16
HETATM   16  O1  UNL     1      14.340  -7.661  14.494  1.00  0.00    -0.343 OA
HETATM   17  C1  UNL     1      13.954  -8.904  15.004  1.00  0.00     0.211 C 
ENDBRANCH  13  16
BRANCH  14  18
HETATM   18  O3  UNL     1      16.206  -5.924  15.622  1.00  0.00    -0.288 OA
ATOM     19  H3  UNL     1      16.853  -5.397  16.077  1.00  0.00     0.244 HD
ENDBRANCH  14  18
ENDBRANCH  12  13
ENDBRANCH  11  12
ENDBRANCH  10  11
BRANCH  10  20
HETATM   20  O2  UNL     1      16.496  -6.171  10.819  1.00  0.00    -0.286 OA
ATOM     21  H2  UNL     1      16.978  -6.025  10.014  1.00  0.00     0.244 HD
ENDBRANCH  10  20
ENDBRANCH   8  10
ENDBRANCH   7   8
ENDBRANCH   1   7
TORSDOF 9
ENDMDL
MODEL 3
REMARK VINA RESULT: -6.302481479      2.133      2.357
REMARK  9 active torsions:
REMARK  status: ('A' for Active; 'I' for Inactive)
REMARK    1  A    between atoms: O1_2  and  C2_3 
REMARK    2  A    between atoms: C2_3  and  C3_4 
REMARK    3  A    between atoms: C3_4  and  C4_5 
REMARK    4  A    between atoms: C4_5  and  N1_6 
REMARK    5  A    between atoms: N1_6  and  O2_7 
REMARK    6  A    between atoms: N1_6  and  C5_9 
REMARK    7  A    between atoms: C5_9  and  S2_11 
REMARK    8  A    between atoms: S2_11  and  C6_12 
REMARK    9  A    between atoms: N3_18  and  O3_20 
ROOT
HETATM    1  C6  UNL     1      15.318  -4.526   7.375  1.00  0.00     0.083 A 
HETATM    2  S3  UNL     1      14.485  -5.022   6.008  1.00  0.00    -0.042 SA
HETATM    3  S4  UNL     1      14.238  -3.071   5.927  1.00  0.00    -0.039 SA
HETATM    4  C7  UNL     1      15.150  -3.190   7.321  1.00  0.00     0.116 A 
HETATM    5  C8  UNL     1      15.611  -2.088   8.207  1.00  0.00     0.109 C 
HETATM    6  N2  UNL     1      15.961  -1.195   8.893  1.00  0.00    -0.191 NA
ENDROOT
BRANCH   1   7
HETATM    7  S2  UNL     1      16.232  -5.541   8.601  1.00  0.00    -0.049 SA
BRANCH   7   8
HETATM    8  C5  UNL     1      15.142  -6.205   9.829  1.00  0.00     0.165 C 
HETATM    9  S1  UNL     1      13.516  -6.238   9.516  1.00  0.00    -0.050 SA
BRANCH   8  10
HETATM   10  N1  UNL     1      15.643  -6.707  11.042  1.00  0.00    -0.243 N 
BRANCH  10  11
HETATM   11  C4  UNL     1      14.880  -7.562  11.928  1.00  0.00     0.165 C 
BRANCH  11  12
HETATM   12  C3  UNL     1      15.698  -8.292  12.937  1.00  0.00     0.108 C 
BRANCH  12  13
HETATM   13  C2  UNL     1      15.581  -7.558  14.255  1.00  0.00     0.138 C 
HETATM   14  N3  UNL     1      16.313  -6.534  14.479  1.00  0.00    -0.251 N 
ATOM     15  H3  UNL     1      16.955  -6.256  13.736  1.00  0.00     0.196 HD
BRANCH  13  16
HETATM   16  O1  UNL     1      14.682  -8.004  15.203  1.00  0.00    -0.343 OA
HETATM   17  C1  UNL     1      13.825  -9.094  15.028  1.00  0.00     0.211 C 
ENDBRANCH  13  16
BRANCH  14  18
HETATM   18  O3  UNL     1      16.318  -5.782  15.607  1.00  0.00    -0.288 OA
ATOM     19  H3  UNL     1      16.368  -6.107  16.499  1.00  0.00     0.244 HD
ENDBRANCH  14  18
ENDBRANCH  12  13
ENDBRANCH  11  12
ENDBRANCH  10  11
BRANCH  10  20
HETATM   20  O2  UNL     1      16.891  -6.388  11.431  1.00  0.00    -0.286 OA
ATOM     21  H2  UNL     1      17.000  -5.565  11.893  1.00  0.00     0.244 HD
ENDBRANCH  10  20
ENDBRANCH   8  10
ENDBRANCH   7   8
ENDBRANCH   1   7
TORSDOF 9
ENDMDL
MODEL 4
REMARK VINA RESULT: -6.247336383      3.707      6.445
REMARK  9 active torsions:
REMARK  status: ('A' for Active; 'I' for Inactive)
REMARK    1  A    between atoms: O1_2  and  C2_3 
REMARK    2  A    between atoms: C2_3  and  C3_4 
REMARK    3  A    between atoms: C3_4  and  C4_5 
REMARK    4  A    between atoms: C4_5  and  N1_6 
REMARK    5  A    between atoms: N1_6  and  O2_7 
REMARK    6  A    between atoms: N1_6  and  C5_9 
REMARK    7  A    between atoms: C5_9  and  S2_11 
REMARK    8  A    between atoms: S2_11  and  C6_12 
REMARK    9  A    between atoms: N3_18  and  O3_20 
ROOT
HETATM    1  C6  UNL     1      13.652  -6.391  10.453  1.00  0.00     0.083 A 
HETATM    2  S3  UNL     1      12.184  -7.194  10.525  1.00  0.00    -0.042 SA
HETATM    3  S4  UNL     1      13.335  -8.392  11.580  1.00  0.00    -0.039 SA
HETATM    4  C7  UNL     1      14.443  -7.209  11.175  1.00  0.00     0.116 A 
HETATM    5  C8  UNL     1      15.882  -7.143  11.541  1.00  0.00     0.109 C 
HETATM    6  N2  UNL     1      17.021  -7.116  11.843  1.00  0.00    -0.191 NA
ENDROOT
BRANCH   1   7
HETATM    7  S2  UNL     1      14.060  -4.803   9.626  1.00  0.00    -0.049 SA
BRANCH   7   8
HETATM    8  C5  UNL     1      15.356  -5.010   8.437  1.00  0.00     0.165 C 
HETATM    9  S1  UNL     1      15.233  -6.236   7.330  1.00  0.00    -0.050 SA
BRANCH   8  10
HETATM   10  N1  UNL     1      16.465  -4.146   8.422  1.00  0.00    -0.243 N 
BRANCH  10  11
HETATM   11  C4  UNL     1      16.543  -2.961   7.593  1.00  0.00     0.165 C 
BRANCH  11  12
HETATM   12  C3  UNL     1      17.744  -2.114   7.838  1.00  0.00     0.108 C 
BRANCH  12  13
HETATM   13  C2  UNL     1      17.351  -1.012   8.797  1.00  0.00     0.138 C 
HETATM   14  N3  UNL     1      16.825  -1.308   9.924  1.00  0.00    -0.251 N 
ATOM     15  H3  UNL     1      16.695  -2.300  10.125  1.00  0.00     0.196 HD
BRANCH  13  16
HETATM   16  O1  UNL     1      17.565   0.305   8.442  1.00  0.00    -0.343 OA
HETATM   17  C1  UNL     1      18.800   0.824   8.042  1.00  0.00     0.211 C 
ENDBRANCH  13  16
BRANCH  14  18
HETATM   18  O3  UNL     1      16.423  -0.431  10.877  1.00  0.00    -0.288 OA
ATOM     19  H3  UNL     1      16.787  -0.345  11.750  1.00  0.00     0.244 HD
ENDBRANCH  14  18
ENDBRANCH  12  13
ENDBRANCH  11  12
ENDBRANCH  10  11
BRANCH  10  20
HETATM   20  O2  UNL     1      17.528  -4.413   9.204  1.00  0.00    -0.286 OA
ATOM     21  H2  UNL     1      17.542  -5.259   9.635  1.00  0.00     0.244 HD
ENDBRANCH  10  20
ENDBRANCH   8  10
ENDBRANCH   7   8
ENDBRANCH   1   7
TORSDOF 9
ENDMDL
MODEL 5
REMARK VINA RESULT: -6.146901426      3.537      4.120
REMARK  9 active torsions:
REMARK  status: ('A' for Active; 'I' for Inactive)
REMARK    1  A    between atoms: O1_2  and  C2_3 
REMARK    2  A    between atoms: C2_3  and  C3_4 
REMARK    3  A    between atoms: C3_4  and  C4_5 
REMARK    4  A    between atoms: C4_5  and  N1_6 
REMARK    5  A    between atoms: N1_6  and  O2_7 
REMARK    6  A    between atoms: N1_6  and  C5_9 
REMARK    7  A    between atoms: C5_9  and  S2_11 
REMARK    8  A    between atoms: S2_11  and  C6_12 
REMARK    9  A    between atoms: N3_18  and  O3_20 
ROOT
HETATM    1  C6  UNL     1      15.764  -2.299   7.837  1.00  0.00     0.083 A 
HETATM    2  S3  UNL     1      16.502  -2.717   6.393  1.00  0.00    -0.042 SA
HETATM    3  S4  UNL     1      17.870  -1.561   7.209  1.00  0.00    -0.039 SA
HETATM    4  C7  UNL     1      16.698  -1.507   8.398  1.00  0.00     0.116 A 
HETATM    5  C8  UNL     1      16.741  -0.769   9.688  1.00  0.00     0.109 C 
HETATM    6  N2  UNL     1      16.800  -0.173  10.703  1.00  0.00    -0.191 NA
ENDROOT
BRANCH   1   7
HETATM    7  S2  UNL     1      14.123  -2.809   8.484  1.00  0.00    -0.049 SA
BRANCH   7   8
HETATM    8  C5  UNL     1      14.047  -4.559   8.740  1.00  0.00     0.165 C 
HETATM    9  S1  UNL     1      13.010  -5.456   7.811  1.00  0.00    -0.050 SA
BRANCH   8  10
HETATM   10  N1  UNL     1      14.858  -5.183   9.705  1.00  0.00    -0.243 N 
BRANCH  10  11
HETATM   11  C4  UNL     1      14.331  -5.896  10.850  1.00  0.00     0.165 C 
BRANCH  11  12
HETATM   12  C3  UNL     1      14.655  -7.350  10.874  1.00  0.00     0.108 C 
BRANCH  12  13
HETATM   13  C2  UNL     1      15.649  -7.590  11.988  1.00  0.00     0.138 C 
HETATM   14  N3  UNL     1      16.720  -6.894  12.045  1.00  0.00    -0.251 N 
ATOM     15  H3  UNL     1      16.852  -6.192  11.317  1.00  0.00     0.196 HD
BRANCH  13  16
HETATM   16  O1  UNL     1      15.389  -8.562  12.933  1.00  0.00    -0.343 OA
HETATM   17  C1  UNL     1      14.599  -8.366  14.071  1.00  0.00     0.211 C 
ENDBRANCH  13  16
BRANCH  14  18
HETATM   18  O3  UNL     1      17.697  -6.999  12.980  1.00  0.00    -0.288 OA
ATOM     19  H3  UNL     1      18.014  -6.302  13.542  1.00  0.00     0.244 HD
ENDBRANCH  14  18
ENDBRANCH  12  13
ENDBRANCH  11  12
ENDBRANCH  10  11
BRANCH  10  20
HETATM   20  O2  UNL     1      16.197  -5.124   9.588  1.00  0.00    -0.286 OA
ATOM     21  H2  UNL     1      16.552  -4.423   9.055  1.00  0.00     0.244 HD
ENDBRANCH  10  20
ENDBRANCH   8  10
ENDBRANCH   7   8
ENDBRANCH   1   7
TORSDOF 9
ENDMDL
