MODEL 1
REMARK VINA RESULT: -8.292213941      0.000      0.000
REMARK  7 active torsions:
REMARK  status: ('A' for Active; 'I' for Inactive)
REMARK    1  A    between atoms: O1_2  and  C2_3 
REMARK    2  A    between atoms: C2_3  and  C3_5 
REMARK    3  A    between atoms: C4_6  and  C5_7 
REMARK    4  A    between atoms: N1_8  and  C6_10 
REMARK    5  A    between atoms: C11_17  and  C12_18 
REMARK    6  A    between atoms: C15_22  and  O5_23 
REMARK    7  A    between atoms: C16_25  and  O6_26 
ROOT
HETATM    1  C6  UNL     1      15.438  -6.652  10.551  1.00  0.00     0.156 A 
HETATM    2  O3  UNL     1      14.388  -6.839   9.800  1.00  0.00    -0.296 OA
HETATM    3  C7  UNL     1      13.503  -7.622  10.356  1.00  0.00     0.073 A 
HETATM    4  C8  UNL     1      12.197  -8.049   9.793  1.00  0.00     0.078 C 
HETATM    5  C9  UNL     1      13.985  -8.012  11.613  1.00  0.00     0.084 A 
HETATM    6  C10 UNL     1      13.318  -8.875  12.546  1.00  0.00     0.102 C 
HETATM    7  N2  UNL     1      12.777  -9.568  13.268  1.00  0.00    -0.191 NA
HETATM    8  C11 UNL     1      15.208  -7.391  11.719  1.00  0.00     0.020 A 
ENDROOT
BRANCH   8   9
HETATM    9  C12 UNL     1      16.171  -7.449  12.817  1.00  0.00     0.016 C 
HETATM   10  C13 UNL     1      15.632  -7.096  14.168  1.00  0.00     0.015 C 
HETATM   11  C14 UNL     1      16.744  -8.874  12.972  1.00  0.00     0.015 C 
ENDBRANCH   8   9
BRANCH   1  12
HETATM   12  N1  UNL     1      16.563  -5.849  10.210  1.00  0.00    -0.343 N 
HETATM   13  C5  UNL     1      16.706  -5.148   9.164  1.00  0.00     0.128 C 
ATOM     14  H1  UNL     1      17.335  -5.836  10.877  1.00  0.00     0.167 HD
BRANCH  13  15
HETATM   15  C4  UNL     1      15.754  -5.002   8.078  1.00  0.00     0.113 A 
HETATM   16  C3  UNL     1      14.862  -3.994   7.817  1.00  0.00     0.112 A 
HETATM   17  C16 UNL     1      14.169  -4.329   6.646  1.00  0.00     0.143 A 
HETATM   18  C15 UNL     1      14.688  -5.537   6.260  1.00  0.00     0.219 A 
HETATM   19  O4  UNL     1      15.618  -5.912   7.116  1.00  0.00    -0.283 OA
BRANCH  16  20
HETATM   20  C2  UNL     1      14.657  -2.785   8.596  1.00  0.00     0.298 C 
HETATM   21  O2  UNL     1      13.461  -2.366   8.792  1.00  0.00    -0.259 OA
BRANCH  20  22
HETATM   22  O1  UNL     1      15.644  -2.022   9.163  1.00  0.00    -0.322 OA
HETATM   23  C1  UNL     1      16.747  -1.466   8.517  1.00  0.00     0.213 C 
ENDBRANCH  20  22
ENDBRANCH  16  20
BRANCH  17  24
HETATM   24  O6  UNL     1      13.180  -3.625   5.997  1.00  0.00    -0.355 OA
ATOM     25  H6  UNL     1      12.286  -3.889   5.809  1.00  0.00     0.218 HD
ENDBRANCH  17  24
BRANCH  18  26
HETATM   26  O5  UNL     1      14.285  -6.248   5.133  1.00  0.00    -0.339 OA
ATOM     27  H5  UNL     1      13.855  -5.881   4.370  1.00  0.00     0.220 HD
ENDBRANCH  18  26
ENDBRANCH  13  15
ENDBRANCH   1  12
TORSDOF 7
ENDMDL
MODEL 2
REMARK VINA RESULT: -8.225955903      2.271      4.607
REMARK  7 active torsions:
REMARK  status: ('A' for Active; 'I' for Inactive)
REMARK    1  A    between atoms: O1_2  and  C2_3 
REMARK    2  A    between atoms: C2_3  and  C3_5 
REMARK    3  A    between atoms: C4_6  and  C5_7 
REMARK    4  A    between atoms: N1_8  and  C6_10 
REMARK    5  A    between atoms: C11_17  and  C12_18 
REMARK    6  A    between atoms: C15_22  and  O5_23 
REMARK    7  A    between atoms: C16_25  and  O6_26 
ROOT
HETATM    1  C6  UNL     1      12.410  -8.868  10.133  1.00  0.00     0.156 A 
HETATM    2  O3  UNL     1      13.557  -8.756  10.744  1.00  0.00    -0.296 OA
HETATM    3  C7  UNL     1      13.519  -9.196  11.974  1.00  0.00     0.073 A 
HETATM    4  C8  UNL     1      14.632  -9.224  12.956  1.00  0.00     0.078 C 
HETATM    5  C9  UNL     1      12.222  -9.656  12.239  1.00  0.00     0.084 A 
HETATM    6  C10 UNL     1      11.757 -10.214  13.476  1.00  0.00     0.102 C 
HETATM    7  N2  UNL     1      11.406 -10.647  14.468  1.00  0.00    -0.191 NA
HETATM    8  C11 UNL     1      11.535  -9.440  11.066  1.00  0.00     0.020 A 
ENDROOT
BRANCH   8   9
HETATM    9  C12 UNL     1      10.132  -9.718  10.764  1.00  0.00     0.016 C 
HETATM   10  C13 UNL     1       9.454  -8.719   9.879  1.00  0.00     0.015 C 
HETATM   11  C14 UNL     1       9.982 -11.069  10.035  1.00  0.00     0.015 C 
ENDBRANCH   8   9
BRANCH   1  12
HETATM   12  N1  UNL     1      12.149  -8.474   8.790  1.00  0.00    -0.343 N 
HETATM   13  C5  UNL     1      12.597  -7.445   8.200  1.00  0.00     0.128 C 
ATOM     14  H1  UNL     1      11.539  -9.083   8.245  1.00  0.00     0.167 HD
BRANCH  13  15
HETATM   15  C4  UNL     1      13.480  -6.437   8.760  1.00  0.00     0.113 A 
HETATM   16  C3  UNL     1      14.601  -5.854   8.227  1.00  0.00     0.112 A 
HETATM   17  C16 UNL     1      15.095  -4.940   9.167  1.00  0.00     0.143 A 
HETATM   18  C15 UNL     1      14.233  -5.023  10.229  1.00  0.00     0.219 A 
HETATM   19  O4  UNL     1      13.292  -5.909   9.967  1.00  0.00    -0.283 OA
BRANCH  16  20
HETATM   20  C2  UNL     1      15.188  -6.117   6.924  1.00  0.00     0.298 C 
HETATM   21  O2  UNL     1      16.448  -6.339   6.843  1.00  0.00    -0.259 OA
BRANCH  20  22
HETATM   22  O1  UNL     1      14.510  -6.154   5.735  1.00  0.00    -0.322 OA
HETATM   23  C1  UNL     1      13.639  -5.186   5.237  1.00  0.00     0.213 C 
ENDBRANCH  20  22
ENDBRANCH  16  20
BRANCH  17  24
HETATM   24  O6  UNL     1      16.198  -4.122   9.078  1.00  0.00    -0.355 OA
ATOM     25  H6  UNL     1      16.283  -3.208   9.325  1.00  0.00     0.218 HD
ENDBRANCH  17  24
BRANCH  18  26
HETATM   26  O5  UNL     1      14.346  -4.280  11.400  1.00  0.00    -0.339 OA
ATOM     27  H5  UNL     1      13.731  -3.622  11.702  1.00  0.00     0.220 HD
ENDBRANCH  18  26
ENDBRANCH  13  15
ENDBRANCH   1  12
TORSDOF 7
ENDMDL
MODEL 3
REMARK VINA RESULT: -8.209450469      1.760      2.394
REMARK  7 active torsions:
REMARK  status: ('A' for Active; 'I' for Inactive)
REMARK    1  A    between atoms: O1_2  and  C2_3 
REMARK    2  A    between atoms: C2_3  and  C3_5 
REMARK    3  A    between atoms: C4_6  and  C5_7 
REMARK    4  A    between atoms: N1_8  and  C6_10 
REMARK    5  A    between atoms: C11_17  and  C12_18 
REMARK    6  A    between atoms: C15_22  and  O5_23 
REMARK    7  A    between atoms: C16_25  and  O6_26 
ROOT
HETATM    1  C6  UNL     1      13.595  -6.564  11.308  1.00  0.00     0.156 A 
HETATM    2  O3  UNL     1      12.623  -6.921  10.514  1.00  0.00    -0.296 OA
HETATM    3  C7  UNL     1      12.076  -8.055  10.864  1.00  0.00     0.073 A 
HETATM    4  C8  UNL     1      10.952  -8.758  10.195  1.00  0.00     0.078 C 
HETATM    5  C9  UNL     1      12.731  -8.527  12.009  1.00  0.00     0.084 A 
HETATM    6  C10 UNL     1      12.439  -9.743  12.712  1.00  0.00     0.102 C 
HETATM    7  N2  UNL     1      12.197 -10.716  13.250  1.00  0.00    -0.191 NA
HETATM    8  C11 UNL     1      13.687  -7.574  12.275  1.00  0.00     0.020 A 
ENDROOT
BRANCH   8   9
HETATM    9  C12 UNL     1      14.678  -7.547  13.350  1.00  0.00     0.016 C 
HETATM   10  C13 UNL     1      14.167  -7.916  14.707  1.00  0.00     0.015 C 
HETATM   11  C14 UNL     1      15.825  -8.539  13.067  1.00  0.00     0.015 C 
ENDBRANCH   8   9
BRANCH   1  12
HETATM   12  N1  UNL     1      14.373  -5.379  11.177  1.00  0.00    -0.343 N 
HETATM   13  C5  UNL     1      14.649  -4.767  10.102  1.00  0.00     0.128 C 
ATOM     14  H1  UNL     1      14.748  -4.981  12.038  1.00  0.00     0.167 HD
BRANCH  13  15
HETATM   15  C4  UNL     1      14.232  -5.134   8.761  1.00  0.00     0.113 A 
HETATM   16  C3  UNL     1      14.983  -5.505   7.674  1.00  0.00     0.112 A 
HETATM   17  C16 UNL     1      14.103  -5.756   6.613  1.00  0.00     0.143 A 
HETATM   18  C15 UNL     1      12.853  -5.521   7.124  1.00  0.00     0.219 A 
HETATM   19  O4  UNL     1      12.954  -5.157   8.388  1.00  0.00    -0.283 OA
BRANCH  16  20
HETATM   20  C2  UNL     1      16.429  -5.626   7.612  1.00  0.00     0.298 C 
HETATM   21  O2  UNL     1      16.944  -6.585   6.934  1.00  0.00    -0.259 OA
BRANCH  20  22
HETATM   22  O1  UNL     1      17.328  -4.792   8.222  1.00  0.00    -0.322 OA
HETATM   23  C1  UNL     1      17.555  -3.448   7.930  1.00  0.00     0.213 C 
ENDBRANCH  20  22
ENDBRANCH  16  20
BRANCH  17  24
HETATM   24  O6  UNL     1      14.393  -6.155   5.327  1.00  0.00    -0.355 OA
ATOM     25  H6  UNL     1      13.803  -6.479   4.657  1.00  0.00     0.218 HD
ENDBRANCH  17  24
BRANCH  18  26
HETATM   26  O5  UNL     1      11.668  -5.649   6.407  1.00  0.00    -0.339 OA
ATOM     27  H5  UNL     1      11.096  -6.408   6.412  1.00  0.00     0.220 HD
ENDBRANCH  18  26
ENDBRANCH  13  15
ENDBRANCH   1  12
TORSDOF 7
ENDMDL
MODEL 4
REMARK VINA RESULT: -7.826213144      2.154      2.804
REMARK  7 active torsions:
REMARK  status: ('A' for Active; 'I' for Inactive)
REMARK    1  A    between atoms: O1_2  and  C2_3 
REMARK    2  A    between atoms: C2_3  and  C3_5 
REMARK    3  A    between atoms: C4_6  and  C5_7 
REMARK    4  A    between atoms: N1_8  and  C6_10 
REMARK    5  A    between atoms: C11_17  and  C12_18 
REMARK    6  A    between atoms: C15_22  and  O5_23 
REMARK    7  A    between atoms: C16_25  and  O6_26 
ROOT
HETATM    1  C6  UNL     1      12.750  -6.706  10.481  1.00  0.00     0.156 A 
HETATM    2  O3  UNL     1      12.326  -6.421   9.281  1.00  0.00    -0.296 OA
HETATM    3  C7  UNL     1      11.597  -7.374   8.764  1.00  0.00     0.073 A 
HETATM    4  C8  UNL     1      10.953  -7.391   7.426  1.00  0.00     0.078 C 
HETATM    5  C9  UNL     1      11.507  -8.417   9.695  1.00  0.00     0.084 A 
HETATM    6  C10 UNL     1      10.799  -9.653   9.518  1.00  0.00     0.102 C 
HETATM    7  N2  UNL     1      10.239 -10.629   9.354  1.00  0.00    -0.191 NA
HETATM    8  C11 UNL     1      12.241  -7.979  10.773  1.00  0.00     0.020 A 
ENDROOT
BRANCH   8   9
HETATM    9  C12 UNL     1      12.508  -8.664  12.037  1.00  0.00     0.016 C 
HETATM   10  C13 UNL     1      11.471  -9.652  12.467  1.00  0.00     0.015 C 
HETATM   11  C14 UNL     1      13.823  -9.467  11.961  1.00  0.00     0.015 C 
ENDBRANCH   8   9
BRANCH   1  12
HETATM   12  N1  UNL     1      13.563  -5.863  11.291  1.00  0.00    -0.343 N 
HETATM   13  C5  UNL     1      14.572  -5.195  10.916  1.00  0.00     0.128 C 
ATOM     14  H1  UNL     1      13.305  -5.788  12.275  1.00  0.00     0.167 HD
BRANCH  13  15
HETATM   15  C4  UNL     1      15.128  -5.136   9.576  1.00  0.00     0.113 A 
HETATM   16  C3  UNL     1      15.175  -4.093   8.687  1.00  0.00     0.112 A 
HETATM   17  C16 UNL     1      15.816  -4.549   7.527  1.00  0.00     0.143 A 
HETATM   18  C15 UNL     1      16.125  -5.859   7.785  1.00  0.00     0.219 A 
HETATM   19  O4  UNL     1      15.711  -6.181   8.995  1.00  0.00    -0.283 OA
BRANCH  16  20
HETATM   20  C2  UNL     1      14.663  -2.749   8.888  1.00  0.00     0.298 C 
HETATM   21  O2  UNL     1      13.420  -2.518   8.675  1.00  0.00    -0.259 OA
BRANCH  20  22
HETATM   22  O1  UNL     1      15.397  -1.667   9.297  1.00  0.00    -0.322 OA
HETATM   23  C1  UNL     1      16.725  -1.388   8.982  1.00  0.00     0.213 C 
ENDBRANCH  20  22
ENDBRANCH  16  20
BRANCH  17  24
HETATM   24  O6  UNL     1      16.094  -3.862   6.367  1.00  0.00    -0.355 OA
ATOM     25  H6  UNL     1      16.812  -3.267   6.185  1.00  0.00     0.218 HD
ENDBRANCH  17  24
BRANCH  18  26
HETATM   26  O5  UNL     1      16.777  -6.708   6.895  1.00  0.00    -0.339 OA
ATOM     27  H5  UNL     1      17.535  -7.245   7.094  1.00  0.00     0.220 HD
ENDBRANCH  18  26
ENDBRANCH  13  15
ENDBRANCH   1  12
TORSDOF 7
ENDMDL
MODEL 5
REMARK VINA RESULT: -7.646199733      1.793      3.469
REMARK  7 active torsions:
REMARK  status: ('A' for Active; 'I' for Inactive)
REMARK    1  A    between atoms: O1_2  and  C2_3 
REMARK    2  A    between atoms: C2_3  and  C3_5 
REMARK    3  A    between atoms: C4_6  and  C5_7 
REMARK    4  A    between atoms: N1_8  and  C6_10 
REMARK    5  A    between atoms: C11_17  and  C12_18 
REMARK    6  A    between atoms: C15_22  and  O5_23 
REMARK    7  A    between atoms: C16_25  and  O6_26 
ROOT
HETATM    1  C6  UNL     1      12.531  -6.440   9.420  1.00  0.00     0.156 A 
HETATM    2  O3  UNL     1      13.431  -5.989  10.250  1.00  0.00    -0.296 OA
HETATM    3  C7  UNL     1      13.583  -6.758  11.295  1.00  0.00     0.073 A 
HETATM    4  C8  UNL     1      14.513  -6.555  12.435  1.00  0.00     0.078 C 
HETATM    5  C9  UNL     1      12.706  -7.844  11.177  1.00  0.00     0.084 A 
HETATM    6  C10 UNL     1      12.556  -8.919  12.116  1.00  0.00     0.102 C 
HETATM    7  N2  UNL     1      12.446  -9.757  12.877  1.00  0.00    -0.191 NA
HETATM    8  C11 UNL     1      12.050  -7.627   9.988  1.00  0.00     0.020 A 
ENDROOT
BRANCH   8   9
HETATM    9  C12 UNL     1      11.007  -8.435   9.357  1.00  0.00     0.016 C 
HETATM   10  C13 UNL     1      11.152  -9.916   9.518  1.00  0.00     0.015 C 
HETATM   11  C14 UNL     1       9.620  -8.100   9.944  1.00  0.00     0.015 C 
ENDBRANCH   8   9
BRANCH   1  12
HETATM   12  N1  UNL     1      12.152  -5.817   8.197  1.00  0.00    -0.343 N 
HETATM   13  C5  UNL     1      12.928  -5.339   7.316  1.00  0.00     0.128 C 
ATOM     14  H1  UNL     1      11.152  -5.748   8.010  1.00  0.00     0.167 HD
BRANCH  13  15
HETATM   15  C4  UNL     1      14.379  -5.321   7.353  1.00  0.00     0.113 A 
HETATM   16  C3  UNL     1      15.238  -4.322   7.736  1.00  0.00     0.112 A 
HETATM   17  C16 UNL     1      16.546  -4.804   7.586  1.00  0.00     0.143 A 
HETATM   18  C15 UNL     1      16.401  -6.082   7.114  1.00  0.00     0.219 A 
HETATM   19  O4  UNL     1      15.119  -6.364   6.985  1.00  0.00    -0.283 OA
BRANCH  16  20
HETATM   20  C2  UNL     1      14.882  -3.000   8.219  1.00  0.00     0.298 C 
HETATM   21  O2  UNL     1      13.791  -2.851   8.877  1.00  0.00    -0.259 OA
BRANCH  20  22
HETATM   22  O1  UNL     1      15.616  -1.858   8.038  1.00  0.00    -0.322 OA
HETATM   23  C1  UNL     1      16.459  -1.248   8.966  1.00  0.00     0.213 C 
ENDBRANCH  20  22
ENDBRANCH  16  20
BRANCH  17  24
HETATM   24  O6  UNL     1      17.736  -4.163   7.845  1.00  0.00    -0.355 OA
ATOM     25  H6  UNL     1      18.623  -4.491   7.745  1.00  0.00     0.218 HD
ENDBRANCH  17  24
BRANCH  18  26
HETATM   26  O5  UNL     1      17.456  -6.941   6.819  1.00  0.00    -0.339 OA
ATOM     27  H5  UNL     1      17.907  -7.499   7.441  1.00  0.00     0.220 HD
ENDBRANCH  18  26
ENDBRANCH  13  15
ENDBRANCH   1  12
TORSDOF 7
ENDMDL
