MODEL 1
REMARK VINA RESULT: -7.814280999      0.000      0.000
REMARK  6 active torsions:
REMARK  status: ('A' for Active; 'I' for Inactive)
REMARK    1  A    between atoms: C2_2  and  C3_3 
REMARK    2  A    between atoms: C3_3  and  C5_5 
REMARK    3  A    between atoms: C5_5  and  C7_8 
REMARK    4  A    between atoms: C7_8  and  C8_9 
REMARK    5  A    between atoms: C11_14  and  O1_15 
REMARK       I    between atoms: N2_17  and  C12_18 
REMARK    6  A    between atoms: C14_21  and  O3_22 
ROOT
HETATM    1  C5  UNL     1      15.069  -3.885   9.167  1.00  0.00     0.120 C 
HETATM    2  C6  UNL     1      16.030  -4.737   8.473  1.00  0.00     0.068 C 
HETATM    3  N1  UNL     1      16.804  -5.438   7.927  1.00  0.00    -0.197 NA
ENDROOT
BRANCH   1   4
HETATM    4  C3  UNL     1      14.951  -2.641   8.291  1.00  0.00     0.002 C 
HETATM    5  C4  UNL     1      14.299  -2.916   6.981  1.00  0.00     0.011 C 
BRANCH   4   6
HETATM    6  C2  UNL     1      16.276  -1.988   8.066  1.00  0.00     0.001 C 
HETATM    7  C1  UNL     1      16.583  -1.132   9.277  1.00  0.00     0.005 C 
ENDBRANCH   4   6
ENDBRANCH   1   4
BRANCH   1   8
HETATM    8  C7  UNL     1      13.791  -4.590   9.296  1.00  0.00     0.013 C 
BRANCH   8   9
HETATM    9  C8  UNL     1      13.549  -5.833   9.592  1.00  0.00     0.025 C 
HETATM   10  S1  UNL     1      13.081  -6.982   8.222  1.00  0.00    -0.052 SA
HETATM   11  S2  UNL     1      11.507  -7.781   9.540  1.00  0.00    -0.047 SA
HETATM   12  C9  UNL     1      12.607  -7.575  10.967  1.00  0.00     0.079 A 
HETATM   13  C10 UNL     1      13.544  -6.633  10.797  1.00  0.00     0.055 A 
HETATM   14  C14 UNL     1      12.785  -8.179  12.180  1.00  0.00     0.170 A 
HETATM   15  C11 UNL     1      14.317  -6.691  11.975  1.00  0.00     0.164 A 
HETATM   16  N2  UNL     1      13.859  -7.625  12.814  1.00  0.00    -0.240 N 
HETATM   17  C12 UNL     1      14.353  -8.004  14.104  1.00  0.00     0.228 C 
HETATM   18  C13 UNL     1      15.535  -7.312  14.645  1.00  0.00     0.118 C 
HETATM   19  O2  UNL     1      13.818  -8.901  14.786  1.00  0.00    -0.273 OA
BRANCH  15  20
HETATM   20  O1  UNL     1      15.430  -5.918  12.303  1.00  0.00    -0.345 OA
ATOM     21  H1  UNL     1      15.802  -5.770  13.165  1.00  0.00     0.219 HD
ENDBRANCH  15  20
BRANCH  14  22
HETATM   22  O3  UNL     1      12.035  -9.204  12.754  1.00  0.00    -0.345 OA
ATOM     23  H3  UNL     1      11.971  -9.445  13.671  1.00  0.00     0.219 HD
ENDBRANCH  14  22
ENDBRANCH   8   9
ENDBRANCH   1   8
TORSDOF 6
ENDMDL
MODEL 2
REMARK VINA RESULT: -7.593361670      1.871      2.560
REMARK  6 active torsions:
REMARK  status: ('A' for Active; 'I' for Inactive)
REMARK    1  A    between atoms: C2_2  and  C3_3 
REMARK    2  A    between atoms: C3_3  and  C5_5 
REMARK    3  A    between atoms: C5_5  and  C7_8 
REMARK    4  A    between atoms: C7_8  and  C8_9 
REMARK    5  A    between atoms: C11_14  and  O1_15 
REMARK       I    between atoms: N2_17  and  C12_18 
REMARK    6  A    between atoms: C14_21  and  O3_22 
ROOT
HETATM    1  C5  UNL     1      16.576  -2.988   8.072  1.00  0.00     0.120 C 
HETATM    2  C6  UNL     1      15.204  -2.586   8.368  1.00  0.00     0.068 C 
HETATM    3  N1  UNL     1      14.090  -2.277   8.596  1.00  0.00    -0.197 NA
ENDROOT
BRANCH   1   4
HETATM    4  C3  UNL     1      17.441  -1.883   8.669  1.00  0.00     0.002 C 
HETATM    5  C4  UNL     1      16.671  -0.953   9.540  1.00  0.00     0.011 C 
BRANCH   4   6
HETATM    6  C2  UNL     1      18.161  -1.104   7.616  1.00  0.00     0.001 C 
HETATM    7  C1  UNL     1      18.517   0.247   8.202  1.00  0.00     0.005 C 
ENDBRANCH   4   6
ENDBRANCH   1   4
BRANCH   1   8
HETATM    8  C7  UNL     1      16.848  -4.292   8.683  1.00  0.00     0.013 C 
BRANCH   8   9
HETATM    9  C8  UNL     1      16.148  -5.387   8.660  1.00  0.00     0.025 C 
HETATM   10  S1  UNL     1      15.734  -6.125   7.016  1.00  0.00    -0.052 SA
HETATM   11  S2  UNL     1      13.688  -6.444   7.768  1.00  0.00    -0.047 SA
HETATM   12  C9  UNL     1      14.356  -6.814   9.413  1.00  0.00     0.079 A 
HETATM   13  C10 UNL     1      15.554  -6.263   9.647  1.00  0.00     0.055 A 
HETATM   14  C14 UNL     1      13.988  -7.574  10.487  1.00  0.00     0.170 A 
HETATM   15  C11 UNL     1      15.910  -6.729  10.928  1.00  0.00     0.164 A 
HETATM   16  N2  UNL     1      14.964  -7.523  11.439  1.00  0.00    -0.240 N 
HETATM   17  C12 UNL     1      14.934  -8.199  12.702  1.00  0.00     0.228 C 
HETATM   18  C13 UNL     1      16.077  -8.048  13.618  1.00  0.00     0.118 C 
HETATM   19  O2  UNL     1      13.973  -8.912  13.054  1.00  0.00    -0.273 OA
BRANCH  15  20
HETATM   20  O1  UNL     1      17.077  -6.454  11.643  1.00  0.00    -0.345 OA
ATOM     21  H1  UNL     1      17.277  -6.690  12.541  1.00  0.00     0.219 HD
ENDBRANCH  15  20
BRANCH  14  22
HETATM   22  O3  UNL     1      12.822  -8.317  10.663  1.00  0.00    -0.345 OA
ATOM     23  H3  UNL     1      12.079  -8.394  10.077  1.00  0.00     0.219 HD
ENDBRANCH  14  22
ENDBRANCH   8   9
ENDBRANCH   1   8
TORSDOF 6
ENDMDL
MODEL 3
REMARK VINA RESULT: -7.567757505      0.574      1.343
REMARK  6 active torsions:
REMARK  status: ('A' for Active; 'I' for Inactive)
REMARK    1  A    between atoms: C2_2  and  C3_3 
REMARK    2  A    between atoms: C3_3  and  C5_5 
REMARK    3  A    between atoms: C5_5  and  C7_8 
REMARK    4  A    between atoms: C7_8  and  C8_9 
REMARK    5  A    between atoms: C11_14  and  O1_15 
REMARK       I    between atoms: N2_17  and  C12_18 
REMARK    6  A    between atoms: C14_21  and  O3_22 
ROOT
HETATM    1  C5  UNL     1      15.509  -4.466   8.722  1.00  0.00     0.120 C 
HETATM    2  C6  UNL     1      16.209  -5.371   7.814  1.00  0.00     0.068 C 
HETATM    3  N1  UNL     1      16.773  -6.116   7.097  1.00  0.00    -0.197 NA
ENDROOT
BRANCH   1   4
HETATM    4  C3  UNL     1      15.411  -3.150   7.956  1.00  0.00     0.002 C 
HETATM    5  C4  UNL     1      15.903  -1.986   8.744  1.00  0.00     0.011 C 
BRANCH   4   6
HETATM    6  C2  UNL     1      14.021  -2.882   7.477  1.00  0.00     0.001 C 
HETATM    7  C1  UNL     1      14.061  -2.797   5.966  1.00  0.00     0.005 C 
ENDBRANCH   4   6
ENDBRANCH   1   4
BRANCH   1   8
HETATM    8  C7  UNL     1      14.189  -5.016   9.043  1.00  0.00     0.013 C 
BRANCH   8   9
HETATM    9  C8  UNL     1      13.858  -6.199   9.468  1.00  0.00     0.025 C 
HETATM   10  S1  UNL     1      13.314  -7.454   8.224  1.00  0.00    -0.052 SA
HETATM   11  S2  UNL     1      11.682  -7.992   9.603  1.00  0.00    -0.047 SA
HETATM   12  C9  UNL     1      12.789  -7.712  11.012  1.00  0.00     0.079 A 
HETATM   13  C10 UNL     1      13.792  -6.862  10.752  1.00  0.00     0.055 A 
HETATM   14  C14 UNL     1      12.919  -8.191  12.285  1.00  0.00     0.170 A 
HETATM   15  C11 UNL     1      14.554  -6.846  11.937  1.00  0.00     0.164 A 
HETATM   16  N2  UNL     1      14.027  -7.650  12.867  1.00  0.00    -0.240 N 
HETATM   17  C12 UNL     1      14.488  -7.921  14.196  1.00  0.00     0.228 C 
HETATM   18  C13 UNL     1      15.715  -7.259  14.673  1.00  0.00     0.118 C 
HETATM   19  O2  UNL     1      13.888  -8.699  14.965  1.00  0.00    -0.273 OA
BRANCH  15  20
HETATM   20  O1  UNL     1      15.719  -6.123  12.193  1.00  0.00    -0.345 OA
ATOM     21  H1  UNL     1      16.471  -6.394  12.707  1.00  0.00     0.219 HD
ENDBRANCH  15  20
BRANCH  14  22
HETATM   22  O3  UNL     1      12.096  -9.093  12.958  1.00  0.00    -0.345 OA
ATOM     23  H3  UNL     1      11.231  -9.398  12.711  1.00  0.00     0.219 HD
ENDBRANCH  14  22
ENDBRANCH   8   9
ENDBRANCH   1   8
TORSDOF 6
ENDMDL
MODEL 4
REMARK VINA RESULT: -7.458597389      1.730      2.359
REMARK  6 active torsions:
REMARK  status: ('A' for Active; 'I' for Inactive)
REMARK    1  A    between atoms: C2_2  and  C3_3 
REMARK    2  A    between atoms: C3_3  and  C5_5 
REMARK    3  A    between atoms: C5_5  and  C7_8 
REMARK    4  A    between atoms: C7_8  and  C8_9 
REMARK    5  A    between atoms: C11_14  and  O1_15 
REMARK       I    between atoms: N2_17  and  C12_18 
REMARK    6  A    between atoms: C14_21  and  O3_22 
ROOT
HETATM    1  C5  UNL     1      16.664  -3.173   8.416  1.00  0.00     0.120 C 
HETATM    2  C6  UNL     1      17.889  -2.595   7.869  1.00  0.00     0.068 C 
HETATM    3  N1  UNL     1      18.887  -2.142   7.440  1.00  0.00    -0.197 NA
ENDROOT
BRANCH   1   4
HETATM    4  C3  UNL     1      15.537  -2.366   7.779  1.00  0.00     0.002 C 
HETATM    5  C4  UNL     1      14.216  -2.614   8.419  1.00  0.00     0.011 C 
BRANCH   4   6
HETATM    6  C2  UNL     1      15.436  -2.610   6.308  1.00  0.00     0.001 C 
HETATM    7  C1  UNL     1      13.970  -2.776   5.966  1.00  0.00     0.005 C 
ENDBRANCH   4   6
ENDBRANCH   1   4
BRANCH   1   8
HETATM    8  C7  UNL     1      16.592  -4.594   8.065  1.00  0.00     0.013 C 
BRANCH   8   9
HETATM    9  C8  UNL     1      15.697  -5.485   8.371  1.00  0.00     0.025 C 
HETATM   10  S1  UNL     1      14.785  -6.316   6.994  1.00  0.00    -0.052 SA
HETATM   11  S2  UNL     1      12.937  -6.038   8.161  1.00  0.00    -0.047 SA
HETATM   12  C9  UNL     1      13.866  -6.335   9.690  1.00  0.00     0.079 A 
HETATM   13  C10 UNL     1      15.173  -6.056   9.592  1.00  0.00     0.055 A 
HETATM   14  C14 UNL     1      13.600  -6.837  10.933  1.00  0.00     0.170 A 
HETATM   15  C11 UNL     1      15.703  -6.419  10.846  1.00  0.00     0.164 A 
HETATM   16  N2  UNL     1      14.753  -6.892  11.660  1.00  0.00    -0.240 N 
HETATM   17  C12 UNL     1      14.868  -7.367  13.006  1.00  0.00     0.228 C 
HETATM   18  C13 UNL     1      16.194  -7.371  13.649  1.00  0.00     0.118 C 
HETATM   19  O2  UNL     1      13.886  -7.780  13.654  1.00  0.00    -0.273 OA
BRANCH  15  20
HETATM   20  O1  UNL     1      17.030  -6.336  11.268  1.00  0.00    -0.345 OA
ATOM     21  H1  UNL     1      17.469  -6.874  11.917  1.00  0.00     0.219 HD
ENDBRANCH  15  20
BRANCH  14  22
HETATM   22  O3  UNL     1      12.376  -7.252  11.455  1.00  0.00    -0.345 OA
ATOM     23  H3  UNL     1      12.101  -8.131  11.683  1.00  0.00     0.219 HD
ENDBRANCH  14  22
ENDBRANCH   8   9
ENDBRANCH   1   8
TORSDOF 6
ENDMDL
MODEL 5
REMARK VINA RESULT: -7.412530005      3.947      6.958
REMARK  6 active torsions:
REMARK  status: ('A' for Active; 'I' for Inactive)
REMARK    1  A    between atoms: C2_2  and  C3_3 
REMARK    2  A    between atoms: C3_3  and  C5_5 
REMARK    3  A    between atoms: C5_5  and  C7_8 
REMARK    4  A    between atoms: C7_8  and  C8_9 
REMARK    5  A    between atoms: C11_14  and  O1_15 
REMARK       I    between atoms: N2_17  and  C12_18 
REMARK    6  A    between atoms: C14_21  and  O3_22 
ROOT
HETATM    1  C5  UNL     1      14.455  -5.939   8.249  1.00  0.00     0.120 C 
HETATM    2  C6  UNL     1      15.730  -6.121   7.561  1.00  0.00     0.068 C 
HETATM    3  N1  UNL     1      16.751  -6.260   6.989  1.00  0.00    -0.197 NA
ENDROOT
BRANCH   1   4
HETATM    4  C3  UNL     1      14.691  -6.487   9.652  1.00  0.00     0.002 C 
HETATM    5  C4  UNL     1      14.089  -7.833   9.856  1.00  0.00     0.011 C 
BRANCH   4   6
HETATM    6  C2  UNL     1      14.198  -5.552  10.709  1.00  0.00     0.001 C 
HETATM    7  C1  UNL     1      13.101  -6.259  11.478  1.00  0.00     0.005 C 
ENDBRANCH   4   6
ENDBRANCH   1   4
BRANCH   1   8
HETATM    8  C7  UNL     1      14.104  -4.516   8.264  1.00  0.00     0.013 C 
BRANCH   8   9
HETATM    9  C8  UNL     1      14.589  -3.529   7.572  1.00  0.00     0.025 C 
HETATM   10  S1  UNL     1      13.889  -3.213   5.890  1.00  0.00    -0.052 SA
HETATM   11  S2  UNL     1      15.954  -2.946   5.172  1.00  0.00    -0.047 SA
HETATM   12  C9  UNL     1      16.393  -2.160   6.746  1.00  0.00     0.079 A 
HETATM   13  C10 UNL     1      15.610  -2.523   7.770  1.00  0.00     0.055 A 
HETATM   14  C14 UNL     1      17.294  -1.224   7.173  1.00  0.00     0.170 A 
HETATM   15  C11 UNL     1      16.074  -1.755   8.856  1.00  0.00     0.164 A 
HETATM   16  N2  UNL     1      17.094  -0.968   8.498  1.00  0.00    -0.240 N 
HETATM   17  C12 UNL     1      17.843  -0.039   9.290  1.00  0.00     0.228 C 
HETATM   18  C13 UNL     1      17.492   0.129  10.711  1.00  0.00     0.118 C 
HETATM   19  O2  UNL     1      18.782   0.634   8.819  1.00  0.00    -0.273 OA
BRANCH  15  20
HETATM   20  O1  UNL     1      15.591  -1.748  10.165  1.00  0.00    -0.345 OA
ATOM     21  H1  UNL     1      16.094  -1.736  10.970  1.00  0.00     0.219 HD
ENDBRANCH  15  20
BRANCH  14  22
HETATM   22  O3  UNL     1      18.289  -0.583   6.437  1.00  0.00    -0.345 OA
ATOM     23  H3  UNL     1      18.546   0.331   6.466  1.00  0.00     0.219 HD
ENDBRANCH  14  22
ENDBRANCH   8   9
ENDBRANCH   1   8
TORSDOF 6
ENDMDL
