MODEL 1
REMARK VINA RESULT: -7.834462170      0.000      0.000
REMARK  5 active torsions:
REMARK  status: ('A' for Active; 'I' for Inactive)
REMARK    1  A    between atoms: C2_2  and  C3_4 
REMARK    2  A    between atoms: C5_8  and  C6_9 
REMARK    3  A    between atoms: N2_10  and  N3_12 
REMARK    4  A    between atoms: N4_14  and  C7_16 
REMARK    5  A    between atoms: C8_17  and  O1_18 
ROOT
HETATM    1  N3  UNL     1      14.793  -4.465  10.069  1.00  0.00    -0.241 N 
ATOM      2  H3  UNL     1      14.269  -4.814  10.872  1.00  0.00     0.208 HD
HETATM    3  N4  UNL     1      14.577  -3.295   9.649  1.00  0.00    -0.267 N 
ATOM      4  H4  UNL     1      13.884  -2.698  10.101  1.00  0.00     0.190 HD
ENDROOT
BRANCH   1   5
HETATM    5  N2  UNL     1      15.714  -5.270   9.471  1.00  0.00    -0.295 N 
HETATM    6  C6  UNL     1      16.247  -6.282   9.972  1.00  0.00     0.138 C 
ATOM      7  H2  UNL     1      15.995  -5.023   8.522  1.00  0.00     0.187 HD
BRANCH   6   8
HETATM    8  C5  UNL     1      15.990  -6.799  11.284  1.00  0.00     0.050 A 
HETATM    9  N1  UNL     1      16.636  -6.696  12.439  1.00  0.00    -0.364 N 
HETATM   10  C4  UNL     1      15.964  -7.387  13.406  1.00  0.00     0.101 A 
ATOM     11  H1  UNL     1      17.503  -6.180  12.582  1.00  0.00     0.165 HD
HETATM   12  C3  UNL     1      14.844  -7.959  12.864  1.00  0.00    -0.002 A 
HETATM   13  C12 UNL     1      14.856  -7.596  11.544  1.00  0.00     0.045 A 
BRANCH  12  14
HETATM   14  C2  UNL     1      13.833  -8.791  13.547  1.00  0.00     0.017 C 
HETATM   15  C1  UNL     1      13.944  -8.899  15.027  1.00  0.00     0.062 C 
HETATM   16  S1  UNL     1      12.688  -9.521  12.679  1.00  0.00    -0.084 SA
ENDBRANCH  12  14
ENDBRANCH   6   8
ENDBRANCH   1   5
BRANCH   3  17
HETATM   17  C7  UNL     1      15.319  -2.831   8.533  1.00  0.00     0.177 A 
HETATM   18  C8  UNL     1      16.520  -2.151   8.488  1.00  0.00     0.191 A 
HETATM   19  N5  UNL     1      16.834  -1.921   7.199  1.00  0.00    -0.306 N 
HETATM   20  C9  UNL     1      18.013  -1.236   6.718  1.00  0.00     0.161 C 
HETATM   21  C10 UNL     1      15.852  -2.446   6.446  1.00  0.00     0.183 A 
HETATM   22  S2  UNL     1      15.789  -2.415   4.815  1.00  0.00    -0.040 SA
HETATM   23  N6  UNL     1      14.924  -3.003   7.261  1.00  0.00    -0.309 N 
HETATM   24  C11 UNL     1      13.718  -3.666   6.827  1.00  0.00     0.160 C 
BRANCH  18  25
HETATM   25  O1  UNL     1      17.249  -1.785   9.617  1.00  0.00    -0.343 OA
ATOM     26  H1  UNL     1      17.924  -1.117   9.618  1.00  0.00     0.219 HD
ENDBRANCH  18  25
ENDBRANCH   3  17
TORSDOF 5
ENDMDL
MODEL 2
REMARK VINA RESULT: -7.792679010      1.306      1.615
REMARK  5 active torsions:
REMARK  status: ('A' for Active; 'I' for Inactive)
REMARK    1  A    between atoms: C2_2  and  C3_4 
REMARK    2  A    between atoms: C5_8  and  C6_9 
REMARK    3  A    between atoms: N2_10  and  N3_12 
REMARK    4  A    between atoms: N4_14  and  C7_16 
REMARK    5  A    between atoms: C8_17  and  O1_18 
ROOT
HETATM    1  N3  UNL     1      13.719  -4.694   9.698  1.00  0.00    -0.241 N 
ATOM      2  H3  UNL     1      12.988  -5.165  10.231  1.00  0.00     0.208 HD
HETATM    3  N4  UNL     1      13.407  -3.757   8.912  1.00  0.00    -0.267 N 
ATOM      4  H4  UNL     1      12.434  -3.468   8.805  1.00  0.00     0.190 HD
ENDROOT
BRANCH   1   5
HETATM    5  N2  UNL     1      15.014  -5.088   9.846  1.00  0.00    -0.295 N 
HETATM    6  C6  UNL     1      15.405  -6.201  10.252  1.00  0.00     0.138 C 
ATOM      7  H2  UNL     1      15.733  -4.407   9.602  1.00  0.00     0.187 HD
BRANCH   6   8
HETATM    8  C5  UNL     1      14.561  -7.292  10.643  1.00  0.00     0.050 A 
HETATM    9  N1  UNL     1      13.868  -8.190   9.954  1.00  0.00    -0.364 N 
HETATM   10  C4  UNL     1      13.218  -9.028  10.814  1.00  0.00     0.101 A 
ATOM     11  H1  UNL     1      13.827  -8.246   8.937  1.00  0.00     0.165 HD
HETATM   12  C3  UNL     1      13.496  -8.664  12.105  1.00  0.00    -0.002 A 
HETATM   13  C12 UNL     1      14.331  -7.584  12.003  1.00  0.00     0.045 A 
BRANCH  12  14
HETATM   14  C2  UNL     1      13.006  -9.293  13.348  1.00  0.00     0.017 C 
HETATM   15  C1  UNL     1      13.732  -8.952  14.602  1.00  0.00     0.062 C 
HETATM   16  S1  UNL     1      11.742 -10.292  13.287  1.00  0.00    -0.084 SA
ENDBRANCH  12  14
ENDBRANCH   6   8
ENDBRANCH   1   5
BRANCH   3  17
HETATM   17  C7  UNL     1      14.440  -3.116   8.182  1.00  0.00     0.177 A 
HETATM   18  C8  UNL     1      15.486  -2.333   8.629  1.00  0.00     0.191 A 
HETATM   19  N5  UNL     1      16.214  -1.942   7.565  1.00  0.00    -0.306 N 
HETATM   20  C9  UNL     1      17.396  -1.111   7.600  1.00  0.00     0.161 C 
HETATM   21  C10 UNL     1      15.640  -2.469   6.470  1.00  0.00     0.183 A 
HETATM   22  S2  UNL     1      16.166  -2.274   4.937  1.00  0.00    -0.040 SA
HETATM   23  N6  UNL     1      14.554  -3.187   6.846  1.00  0.00    -0.309 N 
HETATM   24  C11 UNL     1      13.674  -3.904   5.955  1.00  0.00     0.160 C 
BRANCH  18  25
HETATM   25  O1  UNL     1      15.710  -2.024   9.969  1.00  0.00    -0.343 OA
ATOM     26  H1  UNL     1      16.481  -1.569  10.287  1.00  0.00     0.219 HD
ENDBRANCH  18  25
ENDBRANCH   3  17
TORSDOF 5
ENDMDL
MODEL 3
REMARK VINA RESULT: -7.766634496      1.793      2.263
REMARK  5 active torsions:
REMARK  status: ('A' for Active; 'I' for Inactive)
REMARK    1  A    between atoms: C2_2  and  C3_4 
REMARK    2  A    between atoms: C5_8  and  C6_9 
REMARK    3  A    between atoms: N2_10  and  N3_12 
REMARK    4  A    between atoms: N4_14  and  C7_16 
REMARK    5  A    between atoms: C8_17  and  O1_18 
ROOT
HETATM    1  N3  UNL     1      15.074  -3.915   9.710  1.00  0.00    -0.241 N 
ATOM      2  H3  UNL     1      14.405  -4.373  10.330  1.00  0.00     0.208 HD
HETATM    3  N4  UNL     1      15.067  -2.657   9.612  1.00  0.00    -0.267 N 
ATOM      4  H4  UNL     1      14.402  -2.095  10.144  1.00  0.00     0.190 HD
ENDROOT
BRANCH   1   5
HETATM    5  N2  UNL     1      15.957  -4.673   9.003  1.00  0.00    -0.295 N 
HETATM    6  C6  UNL     1      16.445  -5.765   9.360  1.00  0.00     0.138 C 
ATOM      7  H2  UNL     1      16.248  -4.313   8.094  1.00  0.00     0.187 HD
BRANCH   6   8
HETATM    8  C5  UNL     1      16.167  -6.441  10.593  1.00  0.00     0.050 A 
HETATM    9  N1  UNL     1      16.863  -6.605  11.711  1.00  0.00    -0.364 N 
HETATM   10  C4  UNL     1      16.137  -7.342  12.602  1.00  0.00     0.101 A 
ATOM     11  H1  UNL     1      17.799  -6.236  11.879  1.00  0.00     0.165 HD
HETATM   12  C3  UNL     1      14.929  -7.671  12.046  1.00  0.00    -0.002 A 
HETATM   13  C12 UNL     1      14.944  -7.112  10.796  1.00  0.00     0.045 A 
BRANCH  12  14
HETATM   14  C2  UNL     1      13.838  -8.458  12.654  1.00  0.00     0.017 C 
HETATM   15  C1  UNL     1      13.922  -8.696  14.121  1.00  0.00     0.062 C 
HETATM   16  S1  UNL     1      12.640  -9.005  11.725  1.00  0.00    -0.084 SA
ENDBRANCH  12  14
ENDBRANCH   6   8
ENDBRANCH   1   5
BRANCH   3  17
HETATM   17  C7  UNL     1      16.007  -2.042   8.746  1.00  0.00     0.177 A 
HETATM   18  C8  UNL     1      16.260  -2.271   7.407  1.00  0.00     0.191 A 
HETATM   19  N5  UNL     1      17.245  -1.444   7.010  1.00  0.00    -0.306 N 
HETATM   20  C9  UNL     1      17.809  -1.366   5.681  1.00  0.00     0.161 C 
HETATM   21  C10 UNL     1      17.607  -0.708   8.075  1.00  0.00     0.183 A 
HETATM   22  S2  UNL     1      18.769   0.439   8.085  1.00  0.00    -0.040 SA
HETATM   23  N6  UNL     1      16.849  -1.073   9.138  1.00  0.00    -0.309 N 
HETATM   24  C11 UNL     1      16.940  -0.510  10.464  1.00  0.00     0.160 C 
BRANCH  18  25
HETATM   25  O1  UNL     1      15.582  -3.213   6.638  1.00  0.00    -0.343 OA
ATOM     26  H1  UNL     1      14.923  -2.994   5.990  1.00  0.00     0.219 HD
ENDBRANCH  18  25
ENDBRANCH   3  17
TORSDOF 5
ENDMDL
MODEL 4
REMARK VINA RESULT: -7.688056737      1.699      2.226
REMARK  5 active torsions:
REMARK  status: ('A' for Active; 'I' for Inactive)
REMARK    1  A    between atoms: C2_2  and  C3_4 
REMARK    2  A    between atoms: C5_8  and  C6_9 
REMARK    3  A    between atoms: N2_10  and  N3_12 
REMARK    4  A    between atoms: N4_14  and  C7_16 
REMARK    5  A    between atoms: C8_17  and  O1_18 
ROOT
HETATM    1  N3  UNL     1      17.156  -3.382   9.269  1.00  0.00    -0.241 N 
ATOM      2  H3  UNL     1      17.472  -3.438  10.237  1.00  0.00     0.208 HD
HETATM    3  N4  UNL     1      16.844  -2.259   8.784  1.00  0.00    -0.267 N 
ATOM      4  H4  UNL     1      16.902  -1.411   9.348  1.00  0.00     0.190 HD
ENDROOT
BRANCH   1   5
HETATM    5  N2  UNL     1      17.078  -4.518   8.524  1.00  0.00    -0.295 N 
HETATM    6  C6  UNL     1      16.421  -5.542   8.804  1.00  0.00     0.138 C 
ATOM      7  H2  UNL     1      17.609  -4.535   7.653  1.00  0.00     0.187 HD
BRANCH   6   8
HETATM    8  C5  UNL     1      15.612  -5.721   9.974  1.00  0.00     0.050 A 
HETATM    9  N1  UNL     1      14.525  -5.106  10.424  1.00  0.00    -0.364 N 
HETATM   10  C4  UNL     1      14.137  -5.665  11.608  1.00  0.00     0.101 A 
ATOM     11  H1  UNL     1      14.053  -4.332   9.957  1.00  0.00     0.165 HD
HETATM   12  C3  UNL     1      14.998  -6.677  11.940  1.00  0.00    -0.002 A 
HETATM   13  C12 UNL     1      15.918  -6.714  10.926  1.00  0.00     0.045 A 
BRANCH  12  14
HETATM   14  C2  UNL     1      14.954  -7.547  13.132  1.00  0.00     0.017 C 
HETATM   15  C1  UNL     1      15.858  -7.184  14.258  1.00  0.00     0.062 C 
HETATM   16  S1  UNL     1      13.957  -8.812  13.156  1.00  0.00    -0.084 SA
ENDBRANCH  12  14
ENDBRANCH   6   8
ENDBRANCH   1   5
BRANCH   3  17
HETATM   17  C7  UNL     1      16.408  -2.205   7.435  1.00  0.00     0.177 A 
HETATM   18  C8  UNL     1      17.120  -1.928   6.285  1.00  0.00     0.191 A 
HETATM   19  N5  UNL     1      16.279  -1.992   5.235  1.00  0.00    -0.306 N 
HETATM   20  C9  UNL     1      16.626  -1.766   3.850  1.00  0.00     0.161 C 
HETATM   21  C10 UNL     1      15.062  -2.304   5.712  1.00  0.00     0.183 A 
HETATM   22  S2  UNL     1      13.711  -2.494   4.815  1.00  0.00    -0.040 SA
HETATM   23  N6  UNL     1      15.140  -2.435   7.059  1.00  0.00    -0.309 N 
HETATM   24  C11 UNL     1      14.040  -2.765   7.934  1.00  0.00     0.160 C 
BRANCH  18  25
HETATM   25  O1  UNL     1      18.481  -1.635   6.264  1.00  0.00    -0.343 OA
ATOM     26  H1  UNL     1      19.124  -2.060   6.820  1.00  0.00     0.219 HD
ENDBRANCH  18  25
ENDBRANCH   3  17
TORSDOF 5
ENDMDL
MODEL 5
REMARK VINA RESULT: -7.615792135      2.180      2.971
REMARK  5 active torsions:
REMARK  status: ('A' for Active; 'I' for Inactive)
REMARK    1  A    between atoms: C2_2  and  C3_4 
REMARK    2  A    between atoms: C5_8  and  C6_9 
REMARK    3  A    between atoms: N2_10  and  N3_12 
REMARK    4  A    between atoms: N4_14  and  C7_16 
REMARK    5  A    between atoms: C8_17  and  O1_18 
ROOT
HETATM    1  N3  UNL     1      14.779  -5.118  11.252  1.00  0.00    -0.241 N 
ATOM      2  H3  UNL     1      14.694  -5.061  12.267  1.00  0.00     0.208 HD
HETATM    3  N4  UNL     1      14.111  -4.329  10.528  1.00  0.00    -0.267 N 
ATOM      4  H4  UNL     1      13.488  -3.637  10.946  1.00  0.00     0.190 HD
ENDROOT
BRANCH   1   5
HETATM    5  N2  UNL     1      15.611  -6.045  10.702  1.00  0.00    -0.295 N 
HETATM    6  C6  UNL     1      15.660  -7.258  10.993  1.00  0.00     0.138 C 
ATOM      7  H2  UNL     1      16.256  -5.716   9.984  1.00  0.00     0.187 HD
BRANCH   6   8
HETATM    8  C5  UNL     1      14.842  -7.917  11.969  1.00  0.00     0.050 A 
HETATM    9  N1  UNL     1      14.923  -8.030  13.289  1.00  0.00    -0.364 N 
HETATM   10  C4  UNL     1      13.877  -8.776  13.752  1.00  0.00     0.101 A 
ATOM     11  H1  UNL     1      15.655  -7.621  13.869  1.00  0.00     0.165 HD
HETATM   12  C3  UNL     1      13.090  -9.163  12.700  1.00  0.00    -0.002 A 
HETATM   13  C12 UNL     1      13.688  -8.631  11.588  1.00  0.00     0.045 A 
BRANCH  12  14
HETATM   14  C2  UNL     1      11.860  -9.978  12.743  1.00  0.00     0.017 C 
HETATM   15  C1  UNL     1      11.625 -10.770  13.981  1.00  0.00     0.062 C 
HETATM   16  S1  UNL     1      10.858  -9.971  11.480  1.00  0.00    -0.084 SA
ENDBRANCH  12  14
ENDBRANCH   6   8
ENDBRANCH   1   5
BRANCH   3  17
HETATM   17  C7  UNL     1      14.247  -4.426   9.120  1.00  0.00     0.177 A 
HETATM   18  C8  UNL     1      13.808  -5.407   8.253  1.00  0.00     0.191 A 
HETATM   19  N5  UNL     1      14.171  -5.067   7.002  1.00  0.00    -0.306 N 
HETATM   20  C9  UNL     1      13.904  -5.826   5.800  1.00  0.00     0.161 C 
HETATM   21  C10 UNL     1      14.823  -3.894   7.077  1.00  0.00     0.183 A 
HETATM   22  S2  UNL     1      15.456  -3.078   5.812  1.00  0.00    -0.040 SA
HETATM   23  N6  UNL     1      14.870  -3.501   8.373  1.00  0.00    -0.309 N 
HETATM   24  C11 UNL     1      15.490  -2.291   8.859  1.00  0.00     0.160 C 
BRANCH  18  25
HETATM   25  O1  UNL     1      13.111  -6.544   8.654  1.00  0.00    -0.343 OA
ATOM     26  H1  UNL     1      13.035  -7.333   8.129  1.00  0.00     0.219 HD
ENDBRANCH  18  25
ENDBRANCH   3  17
TORSDOF 5
ENDMDL
