MODEL 1
REMARK VINA RESULT: -8.281585765      0.000      0.000
REMARK  10 active torsions:
REMARK  status: ('A' for Active; 'I' for Inactive)
REMARK    1  A    between atoms: O1_2  and  C2_3 
REMARK    2  A    between atoms: C2_3  and  O3_5 
REMARK    3  A    between atoms: O3_5  and  N1_6 
REMARK    4  A    between atoms: N1_6  and  C3_8 
REMARK    5  A    between atoms: C3_8  and  N2_10 
REMARK    6  A    between atoms: N2_10  and  N3_12 
REMARK    7  A    between atoms: N3_12  and  C4_14 
REMARK    8  A    between atoms: N5_18  and  C6_19 
REMARK    9  A    between atoms: C6_19  and  C7_20 
REMARK   10  A    between atoms: C13_26  and  O4_27 
ROOT
HETATM    1  C4  UNL     1      13.657  -5.021   8.856  1.00  0.00     0.173 A 
HETATM    2  N4  UNL     1      12.564  -5.824   8.998  1.00  0.00    -0.334 N 
ATOM      3  H4  UNL     1      11.642  -5.656   8.596  1.00  0.00     0.168 HD
HETATM    4  C5  UNL     1      12.914  -6.877   9.761  1.00  0.00     0.186 A 
HETATM    5  N5  UNL     1      14.202  -6.787  10.121  1.00  0.00    -0.320 N 
HETATM    6  C13 UNL     1      14.658  -5.635   9.558  1.00  0.00     0.190 A 
ENDROOT
BRANCH   1   7
HETATM    7  N3  UNL     1      13.746  -3.804   8.135  1.00  0.00    -0.280 N 
ATOM      8  H3  UNL     1      13.405  -3.750   7.176  1.00  0.00     0.189 HD
BRANCH   7   9
HETATM    9  N2  UNL     1      14.249  -2.793   8.689  1.00  0.00    -0.273 N 
ATOM     10  H2  UNL     1      13.725  -2.270   9.392  1.00  0.00     0.189 HD
BRANCH   9  11
HETATM   11  C3  UNL     1      15.561  -2.392   8.316  1.00  0.00     0.211 C 
HETATM   12  S1  UNL     1      15.953  -2.353   6.724  1.00  0.00    -0.037 SA
BRANCH  11  13
HETATM   13  N1  UNL     1      16.502  -2.035   9.313  1.00  0.00    -0.229 N 
ATOM     14  H1  UNL     1      17.319  -2.621   9.481  1.00  0.00     0.197 HD
BRANCH  13  15
HETATM   15  O3  UNL     1      16.307  -0.906  10.044  1.00  0.00    -0.173 OA
BRANCH  15  16
HETATM   16  C2  UNL     1      17.199   0.157   9.987  1.00  0.00     0.428 C 
HETATM   17  O2  UNL     1      17.681   0.577  11.056  1.00  0.00    -0.227 OA
BRANCH  16  18
HETATM   18  O1  UNL     1      17.571   0.762   8.803  1.00  0.00    -0.302 OA
HETATM   19  C1  UNL     1      18.754   0.505   8.112  1.00  0.00     0.215 C 
ENDBRANCH  16  18
ENDBRANCH  15  16
ENDBRANCH  13  15
ENDBRANCH  11  13
ENDBRANCH   9  11
ENDBRANCH   7   9
ENDBRANCH   1   7
BRANCH   6  20
HETATM   20  O4  UNL     1      15.957  -5.188   9.701  1.00  0.00    -0.343 OA
ATOM     21  H4  UNL     1      16.396  -4.976  10.517  1.00  0.00     0.219 HD
ENDBRANCH   6  20
BRANCH   5  22
HETATM   22  C6  UNL     1      14.957  -7.721  10.940  1.00  0.00     0.136 C 
BRANCH  22  23
HETATM   23  C7  UNL     1      14.749  -7.409  12.405  1.00  0.00     0.004 C 
HETATM   24  C8  UNL     1      16.103  -7.558  13.105  1.00  0.00     0.006 C 
HETATM   25  C9  UNL     1      15.892  -6.904  14.464  1.00  0.00     0.000 C 
HETATM   26  C10 UNL     1      14.912  -7.690  15.258  1.00  0.00     0.000 C 
HETATM   27  C11 UNL     1      14.010  -8.578  14.514  1.00  0.00     0.000 C 
HETATM   28  C12 UNL     1      13.787  -8.307  13.077  1.00  0.00     0.006 C 
ENDBRANCH  22  23
ENDBRANCH   5  22
TORSDOF 10
ENDMDL
MODEL 2
REMARK VINA RESULT: -8.141262874      1.265      1.771
REMARK  10 active torsions:
REMARK  status: ('A' for Active; 'I' for Inactive)
REMARK    1  A    between atoms: O1_2  and  C2_3 
REMARK    2  A    between atoms: C2_3  and  O3_5 
REMARK    3  A    between atoms: O3_5  and  N1_6 
REMARK    4  A    between atoms: N1_6  and  C3_8 
REMARK    5  A    between atoms: C3_8  and  N2_10 
REMARK    6  A    between atoms: N2_10  and  N3_12 
REMARK    7  A    between atoms: N3_12  and  C4_14 
REMARK    8  A    between atoms: N5_18  and  C6_19 
REMARK    9  A    between atoms: C6_19  and  C7_20 
REMARK   10  A    between atoms: C13_26  and  O4_27 
ROOT
HETATM    1  C4  UNL     1      14.755  -4.546   9.405  1.00  0.00     0.173 A 
HETATM    2  N4  UNL     1      13.432  -4.812   9.209  1.00  0.00    -0.334 N 
ATOM      3  H4  UNL     1      12.749  -4.180   8.791  1.00  0.00     0.168 HD
HETATM    4  C5  UNL     1      13.182  -6.054   9.665  1.00  0.00     0.186 A 
HETATM    5  N5  UNL     1      14.302  -6.608  10.151  1.00  0.00    -0.320 N 
HETATM    6  C13 UNL     1      15.273  -5.670   9.988  1.00  0.00     0.190 A 
ENDROOT
BRANCH   1   7
HETATM    7  N3  UNL     1      15.454  -3.359   9.075  1.00  0.00    -0.280 N 
ATOM      8  H3  UNL     1      14.970  -2.461   9.078  1.00  0.00     0.189 HD
BRANCH   7   9
HETATM    9  N2  UNL     1      16.675  -3.421   8.781  1.00  0.00    -0.273 N 
ATOM     10  H2  UNL     1      17.325  -3.949   9.365  1.00  0.00     0.189 HD
BRANCH   9  11
HETATM   11  C3  UNL     1      17.133  -2.743   7.619  1.00  0.00     0.211 C 
HETATM   12  S1  UNL     1      16.127  -2.617   6.329  1.00  0.00    -0.037 SA
BRANCH  11  13
HETATM   13  N1  UNL     1      18.437  -2.190   7.589  1.00  0.00    -0.229 N 
ATOM     14  H1  UNL     1      19.238  -2.748   7.886  1.00  0.00     0.197 HD
BRANCH  13  15
HETATM   15  O3  UNL     1      18.613  -0.911   7.163  1.00  0.00    -0.173 OA
BRANCH  15  16
HETATM   16  C2  UNL     1      18.562   0.160   8.045  1.00  0.00     0.428 C 
HETATM   17  O2  UNL     1      19.585   0.856   8.185  1.00  0.00    -0.227 OA
BRANCH  16  18
HETATM   18  O1  UNL     1      17.430   0.483   8.768  1.00  0.00    -0.302 OA
HETATM   19  C1  UNL     1      17.158   0.047  10.064  1.00  0.00     0.215 C 
ENDBRANCH  16  18
ENDBRANCH  15  16
ENDBRANCH  13  15
ENDBRANCH  11  13
ENDBRANCH   9  11
ENDBRANCH   7   9
ENDBRANCH   1   7
BRANCH   6  20
HETATM   20  O4  UNL     1      16.585  -5.868  10.371  1.00  0.00    -0.343 OA
ATOM     21  H4  UNL     1      16.950  -5.720  11.236  1.00  0.00     0.219 HD
ENDBRANCH   6  20
BRANCH   5  22
HETATM   22  C6  UNL     1      14.451  -7.933  10.732  1.00  0.00     0.136 C 
BRANCH  22  23
HETATM   23  C7  UNL     1      14.194  -7.876  12.222  1.00  0.00     0.004 C 
HETATM   24  C8  UNL     1      15.458  -8.376  12.927  1.00  0.00     0.006 C 
HETATM   25  C9  UNL     1      15.259  -7.967  14.380  1.00  0.00     0.000 C 
HETATM   26  C10 UNL     1      14.118  -8.719  14.965  1.00  0.00     0.000 C 
HETATM   27  C11 UNL     1      13.143  -9.288  14.028  1.00  0.00     0.000 C 
HETATM   28  C12 UNL     1      13.062  -8.716  12.666  1.00  0.00     0.006 C 
ENDBRANCH  22  23
ENDBRANCH   5  22
TORSDOF 10
ENDMDL
MODEL 3
REMARK VINA RESULT: -8.065738611      1.976      2.339
REMARK  10 active torsions:
REMARK  status: ('A' for Active; 'I' for Inactive)
REMARK    1  A    between atoms: O1_2  and  C2_3 
REMARK    2  A    between atoms: C2_3  and  O3_5 
REMARK    3  A    between atoms: O3_5  and  N1_6 
REMARK    4  A    between atoms: N1_6  and  C3_8 
REMARK    5  A    between atoms: C3_8  and  N2_10 
REMARK    6  A    between atoms: N2_10  and  N3_12 
REMARK    7  A    between atoms: N3_12  and  C4_14 
REMARK    8  A    between atoms: N5_18  and  C6_19 
REMARK    9  A    between atoms: C6_19  and  C7_20 
REMARK   10  A    between atoms: C13_26  and  O4_27 
ROOT
HETATM    1  C4  UNL     1      14.444  -4.555   9.001  1.00  0.00     0.173 A 
HETATM    2  N4  UNL     1      13.171  -5.042   8.968  1.00  0.00    -0.334 N 
ATOM      3  H4  UNL     1      12.369  -4.591   8.525  1.00  0.00     0.168 HD
HETATM    4  C5  UNL     1      13.154  -6.220   9.619  1.00  0.00     0.186 A 
HETATM    5  N5  UNL     1      14.379  -6.518  10.077  1.00  0.00    -0.320 N 
HETATM    6  C13 UNL     1      15.174  -5.484   9.692  1.00  0.00     0.190 A 
ENDROOT
BRANCH   1   7
HETATM    7  N3  UNL     1      14.920  -3.344   8.442  1.00  0.00    -0.280 N 
ATOM      8  H3  UNL     1      15.014  -3.247   7.431  1.00  0.00     0.189 HD
BRANCH   7   9
HETATM    9  N2  UNL     1      15.226  -2.389   9.202  1.00  0.00    -0.273 N 
ATOM     10  H2  UNL     1      14.516  -1.932   9.773  1.00  0.00     0.189 HD
BRANCH   9  11
HETATM   11  C3  UNL     1      16.581  -1.962   9.249  1.00  0.00     0.211 C 
HETATM   12  S1  UNL     1      16.920  -0.475   9.852  1.00  0.00    -0.037 SA
BRANCH  11  13
HETATM   13  N1  UNL     1      17.609  -2.815   8.779  1.00  0.00    -0.229 N 
ATOM     14  H1  UNL     1      18.209  -3.309   9.440  1.00  0.00     0.197 HD
BRANCH  13  15
HETATM   15  O3  UNL     1      17.791  -2.971   7.441  1.00  0.00    -0.173 OA
BRANCH  15  16
HETATM   16  C2  UNL     1      17.497  -1.950   6.546  1.00  0.00     0.428 C 
HETATM   17  O2  UNL     1      18.420  -1.192   6.196  1.00  0.00    -0.227 OA
BRANCH  16  18
HETATM   18  O1  UNL     1      16.231  -1.745   6.032  1.00  0.00    -0.302 OA
HETATM   19  C1  UNL     1      15.666  -2.474   4.987  1.00  0.00     0.215 C 
ENDBRANCH  16  18
ENDBRANCH  15  16
ENDBRANCH  13  15
ENDBRANCH  11  13
ENDBRANCH   9  11
ENDBRANCH   7   9
ENDBRANCH   1   7
BRANCH   6  20
HETATM   20  O4  UNL     1      16.523  -5.423   9.979  1.00  0.00    -0.343 OA
ATOM     21  H4  UNL     1      17.227  -5.815   9.476  1.00  0.00     0.219 HD
ENDBRANCH   6  20
BRANCH   5  22
HETATM   22  C6  UNL     1      14.777  -7.698  10.827  1.00  0.00     0.136 C 
BRANCH  22  23
HETATM   23  C7  UNL     1      14.624  -7.443  12.311  1.00  0.00     0.004 C 
HETATM   24  C8  UNL     1      15.998  -7.645  12.957  1.00  0.00     0.006 C 
HETATM   25  C9  UNL     1      15.845  -7.044  14.347  1.00  0.00     0.000 C 
HETATM   26  C10 UNL     1      14.878  -7.845  15.142  1.00  0.00     0.000 C 
HETATM   27  C11 UNL     1      13.935  -8.686  14.394  1.00  0.00     0.000 C 
HETATM   28  C12 UNL     1      13.668  -8.352  12.978  1.00  0.00     0.006 C 
ENDBRANCH  22  23
ENDBRANCH   5  22
TORSDOF 10
ENDMDL
MODEL 4
REMARK VINA RESULT: -8.048871763      2.241      2.880
REMARK  10 active torsions:
REMARK  status: ('A' for Active; 'I' for Inactive)
REMARK    1  A    between atoms: O1_2  and  C2_3 
REMARK    2  A    between atoms: C2_3  and  O3_5 
REMARK    3  A    between atoms: O3_5  and  N1_6 
REMARK    4  A    between atoms: N1_6  and  C3_8 
REMARK    5  A    between atoms: C3_8  and  N2_10 
REMARK    6  A    between atoms: N2_10  and  N3_12 
REMARK    7  A    between atoms: N3_12  and  C4_14 
REMARK    8  A    between atoms: N5_18  and  C6_19 
REMARK    9  A    between atoms: C6_19  and  C7_20 
REMARK   10  A    between atoms: C13_26  and  O4_27 
ROOT
HETATM    1  C4  UNL     1      15.061  -3.833   9.033  1.00  0.00     0.173 A 
HETATM    2  N4  UNL     1      13.717  -3.981   9.205  1.00  0.00    -0.334 N 
ATOM      3  H4  UNL     1      13.005  -3.285   8.981  1.00  0.00     0.168 HD
HETATM    4  C5  UNL     1      13.491  -5.203   9.722  1.00  0.00     0.186 A 
HETATM    5  N5  UNL     1      14.648  -5.859   9.892  1.00  0.00    -0.320 N 
HETATM    6  C13 UNL     1      15.617  -5.007   9.464  1.00  0.00     0.190 A 
ENDROOT
BRANCH   1   7
HETATM    7  N3  UNL     1      15.747  -2.706   8.516  1.00  0.00    -0.280 N 
ATOM      8  H3  UNL     1      15.244  -2.004   7.973  1.00  0.00     0.189 HD
BRANCH   7   9
HETATM    9  N2  UNL     1      16.979  -2.578   8.733  1.00  0.00    -0.273 N 
ATOM     10  H2  UNL     1      17.552  -3.388   8.972  1.00  0.00     0.189 HD
BRANCH   9  11
HETATM   11  C3  UNL     1      17.558  -1.283   8.639  1.00  0.00     0.211 C 
HETATM   12  S1  UNL     1      17.045  -0.111   9.666  1.00  0.00    -0.037 SA
BRANCH  11  13
HETATM   13  N1  UNL     1      18.559  -1.025   7.671  1.00  0.00    -0.229 N 
ATOM     14  H1  UNL     1      19.342  -0.410   7.893  1.00  0.00     0.197 HD
BRANCH  13  15
HETATM   15  O3  UNL     1      18.469  -1.602   6.444  1.00  0.00    -0.173 OA
BRANCH  15  16
HETATM   16  C2  UNL     1      17.442  -1.279   5.565  1.00  0.00     0.428 C 
HETATM   17  O2  UNL     1      17.679  -0.453   4.663  1.00  0.00    -0.227 OA
BRANCH  16  18
HETATM   18  O1  UNL     1      16.180  -1.833   5.650  1.00  0.00    -0.302 OA
HETATM   19  C1  UNL     1      15.446  -2.318   4.568  1.00  0.00     0.215 C 
ENDBRANCH  16  18
ENDBRANCH  15  16
ENDBRANCH  13  15
ENDBRANCH  11  13
ENDBRANCH   9  11
ENDBRANCH   7   9
ENDBRANCH   1   7
BRANCH   6  20
HETATM   20  O4  UNL     1      16.961  -5.323   9.480  1.00  0.00    -0.343 OA
ATOM     21  H4  UNL     1      17.674  -4.755   9.750  1.00  0.00     0.219 HD
ENDBRANCH   6  20
BRANCH   5  22
HETATM   22  C6  UNL     1      14.832  -7.200  10.423  1.00  0.00     0.136 C 
BRANCH  22  23
HETATM   23  C7  UNL     1      14.741  -7.176  11.933  1.00  0.00     0.004 C 
HETATM   24  C8  UNL     1      16.070  -7.701  12.483  1.00  0.00     0.006 C 
HETATM   25  C9  UNL     1      16.035  -7.325  13.958  1.00  0.00     0.000 C 
HETATM   26  C10 UNL     1      14.958  -8.082  14.649  1.00  0.00     0.000 C 
HETATM   27  C11 UNL     1      13.880  -8.622  13.811  1.00  0.00     0.000 C 
HETATM   28  C12 UNL     1      13.656  -8.018  12.479  1.00  0.00     0.006 C 
ENDBRANCH  22  23
ENDBRANCH   5  22
TORSDOF 10
ENDMDL
MODEL 5
REMARK VINA RESULT: -8.031046983      1.128      1.164
REMARK  10 active torsions:
REMARK  status: ('A' for Active; 'I' for Inactive)
REMARK    1  A    between atoms: O1_2  and  C2_3 
REMARK    2  A    between atoms: C2_3  and  O3_5 
REMARK    3  A    between atoms: O3_5  and  N1_6 
REMARK    4  A    between atoms: N1_6  and  C3_8 
REMARK    5  A    between atoms: C3_8  and  N2_10 
REMARK    6  A    between atoms: N2_10  and  N3_12 
REMARK    7  A    between atoms: N3_12  and  C4_14 
REMARK    8  A    between atoms: N5_18  and  C6_19 
REMARK    9  A    between atoms: C6_19  and  C7_20 
REMARK   10  A    between atoms: C13_26  and  O4_27 
ROOT
HETATM    1  C4  UNL     1      14.539  -4.090   8.909  1.00  0.00     0.173 A 
HETATM    2  N4  UNL     1      13.333  -4.549   9.352  1.00  0.00    -0.334 N 
ATOM      3  H4  UNL     1      12.424  -4.135   9.147  1.00  0.00     0.168 HD
HETATM    4  C5  UNL     1      13.552  -5.642  10.107  1.00  0.00     0.186 A 
HETATM    5  N5  UNL     1      14.864  -5.912  10.169  1.00  0.00    -0.320 N 
HETATM    6  C13 UNL     1      15.471  -4.948   9.426  1.00  0.00     0.190 A 
ENDROOT
BRANCH   1   7
HETATM    7  N3  UNL     1      14.784  -2.963   8.086  1.00  0.00    -0.280 N 
ATOM      8  H3  UNL     1      14.414  -2.048   8.344  1.00  0.00     0.189 HD
BRANCH   7   9
HETATM    9  N2  UNL     1      15.461  -3.100   7.035  1.00  0.00    -0.273 N 
ATOM     10  H2  UNL     1      15.138  -3.712   6.284  1.00  0.00     0.189 HD
BRANCH   9  11
HETATM   11  C3  UNL     1      16.684  -2.387   6.913  1.00  0.00     0.211 C 
HETATM   12  S1  UNL     1      17.066  -1.714   5.466  1.00  0.00    -0.037 SA
BRANCH  11  13
HETATM   13  N1  UNL     1      17.548  -2.268   8.029  1.00  0.00    -0.229 N 
ATOM     14  H1  UNL     1      18.516  -2.584   7.966  1.00  0.00     0.197 HD
BRANCH  13  15
HETATM   15  O3  UNL     1      17.078  -1.729   9.185  1.00  0.00    -0.173 OA
BRANCH  15  16
HETATM   16  C2  UNL     1      17.131  -0.362   9.422  1.00  0.00     0.428 C 
HETATM   17  O2  UNL     1      16.735   0.060  10.525  1.00  0.00    -0.227 OA
BRANCH  16  18
HETATM   18  O1  UNL     1      17.603   0.543   8.491  1.00  0.00    -0.302 OA
HETATM   19  C1  UNL     1      18.950   0.798   8.236  1.00  0.00     0.215 C 
ENDBRANCH  16  18
ENDBRANCH  15  16
ENDBRANCH  13  15
ENDBRANCH  11  13
ENDBRANCH   9  11
ENDBRANCH   7   9
ENDBRANCH   1   7
BRANCH   6  20
HETATM   20  O4  UNL     1      16.838  -4.883   9.246  1.00  0.00    -0.343 OA
ATOM     21  H4  UNL     1      17.483  -5.496   9.580  1.00  0.00     0.219 HD
ENDBRANCH   6  20
BRANCH   5  22
HETATM   22  C6  UNL     1      15.507  -7.005  10.881  1.00  0.00     0.136 C 
BRANCH  22  23
HETATM   23  C7  UNL     1      15.039  -7.031  12.320  1.00  0.00     0.004 C 
HETATM   24  C8  UNL     1      16.261  -7.318  13.197  1.00  0.00     0.006 C 
HETATM   25  C9  UNL     1      15.792  -6.987  14.606  1.00  0.00     0.000 C 
HETATM   26  C10 UNL     1      14.732  -7.942  15.025  1.00  0.00     0.000 C 
HETATM   27  C11 UNL     1      14.014  -8.651  13.959  1.00  0.00     0.000 C 
HETATM   28  C12 UNL     1      14.024  -8.068  12.599  1.00  0.00     0.006 C 
ENDBRANCH  22  23
ENDBRANCH   5  22
TORSDOF 10
ENDMDL
