MODEL 1
REMARK VINA RESULT: -9.831209420      0.000      0.000
REMARK  4 active torsions:
REMARK  status: ('A' for Active; 'I' for Inactive)
REMARK    1  A    between atoms: C2_2  and  C3_3 
REMARK    2  A    between atoms: C5_5  and  C6_6 
REMARK    3  A    between atoms: C7_11  and  C8_12 
REMARK    4  A    between atoms: C14_19  and  N3_20 
ROOT
HETATM    1  C3  UNL     1      27.494  41.557   9.406  1.00  0.00    -0.022 A 
HETATM    2  C4  UNL     1      26.295  41.730   8.698  1.00  0.00     0.026 A 
HETATM    3  C5  UNL     1      25.499  42.841   8.804  1.00  0.00     0.020 A 
HETATM    4  C13 UNL     1      25.867  43.862   9.642  1.00  0.00     0.054 A 
HETATM    5  C14 UNL     1      27.033  43.720  10.344  1.00  0.00     0.128 A 
HETATM    6  C15 UNL     1      27.847  42.585  10.237  1.00  0.00     0.086 A 
HETATM    7  N4  UNL     1      29.040  42.513  10.993  1.00  0.00    -0.099 NA
ENDROOT
BRANCH   3   8
HETATM    8  C6  UNL     1      24.259  42.979   8.048  1.00  0.00     0.174 A 
HETATM    9  N1  UNL     1      23.876  42.154   7.060  1.00  0.00    -0.277 N 
HETATM   10  N2  UNL     1      22.695  42.554   6.575  1.00  0.00    -0.281 N 
ATOM     11  H1  UNL     1      24.404  41.347   6.729  1.00  0.00     0.189 HD
HETATM   12  C7  UNL     1      22.366  43.644   7.292  1.00  0.00     0.144 A 
ATOM     13  H2  UNL     1      22.158  42.124   5.822  1.00  0.00     0.189 HD
HETATM   14  O1  UNL     1      23.318  43.874   8.164  1.00  0.00    -0.277 OA
BRANCH  12  15
HETATM   15  C8  UNL     1      21.111  44.406   7.070  1.00  0.00     0.062 C 
HETATM   16  C9  UNL     1      21.072  44.860   5.644  1.00  0.00     0.013 C 
HETATM   17  C10 UNL     1      20.810  46.333   5.677  1.00  0.00     0.001 C 
HETATM   18  C11 UNL     1      21.245  46.829   7.021  1.00  0.00     0.001 C 
HETATM   19  C12 UNL     1      21.060  45.655   7.936  1.00  0.00     0.013 C 
ENDBRANCH  12  15
ENDBRANCH   3   8
BRANCH   1  20
HETATM   20  C2  UNL     1      28.250  40.319   9.203  1.00  0.00    -0.015 A 
HETATM   21  C1  UNL     1      29.576  40.556   8.434  1.00  0.00     0.020 C 
HETATM   22  C16 UNL     1      27.627  39.021   8.842  1.00  0.00     0.015 A 
HETATM   23  C17 UNL     1      28.375  39.208  10.144  1.00  0.00     0.015 A 
ENDBRANCH   1  20
BRANCH   5  24
HETATM   24  N3  UNL     1      27.491  44.728  11.237  1.00  0.00    -0.114 N 
HETATM   25  O2  UNL     1      27.937  45.780  10.773  1.00  0.00    -0.532 OA
HETATM   26  O3  UNL     1      27.418  44.492  12.577  1.00  0.00    -0.532 OA
ENDBRANCH   5  24
TORSDOF 4
ENDMDL
MODEL 2
REMARK VINA RESULT: -9.112058066      1.713      2.108
REMARK  4 active torsions:
REMARK  status: ('A' for Active; 'I' for Inactive)
REMARK    1  A    between atoms: C2_2  and  C3_3 
REMARK    2  A    between atoms: C5_5  and  C6_6 
REMARK    3  A    between atoms: C7_11  and  C8_12 
REMARK    4  A    between atoms: C14_19  and  N3_20 
ROOT
HETATM    1  C3  UNL     1      26.843  42.675   9.758  1.00  0.00    -0.022 A 
HETATM    2  C4  UNL     1      25.657  43.291   9.332  1.00  0.00     0.026 A 
HETATM    3  C5  UNL     1      25.238  44.523   9.765  1.00  0.00     0.020 A 
HETATM    4  C13 UNL     1      26.001  45.220  10.667  1.00  0.00     0.054 A 
HETATM    5  C14 UNL     1      27.163  44.643  11.098  1.00  0.00     0.128 A 
HETATM    6  C15 UNL     1      27.592  43.384  10.657  1.00  0.00     0.086 A 
HETATM    7  N4  UNL     1      28.809  42.855  11.146  1.00  0.00    -0.099 NA
ENDROOT
BRANCH   3   8
HETATM    8  C6  UNL     1      23.996  45.127   9.296  1.00  0.00     0.174 A 
HETATM    9  N1  UNL     1      23.588  46.367   9.611  1.00  0.00    -0.277 N 
HETATM   10  N2  UNL     1      22.413  46.615   9.020  1.00  0.00    -0.281 N 
ATOM     11  H1  UNL     1      24.095  47.020  10.208  1.00  0.00     0.189 HD
HETATM   12  C7  UNL     1      22.114  45.496   8.337  1.00  0.00     0.144 A 
ATOM     13  H2  UNL     1      21.862  47.472   9.076  1.00  0.00     0.189 HD
HETATM   14  O1  UNL     1      23.077  44.624   8.520  1.00  0.00    -0.277 OA
BRANCH  12  15
HETATM   15  C8  UNL     1      20.875  45.350   7.531  1.00  0.00     0.062 C 
HETATM   16  C9  UNL     1      21.162  44.447   6.371  1.00  0.00     0.013 C 
HETATM   17  C10 UNL     1      20.706  45.178   5.147  1.00  0.00     0.001 C 
HETATM   18  C11 UNL     1      20.692  46.636   5.482  1.00  0.00     0.001 C 
HETATM   19  C12 UNL     1      20.426  46.684   6.957  1.00  0.00     0.013 C 
ENDBRANCH  12  15
ENDBRANCH   3   8
BRANCH   1  20
HETATM   20  C2  UNL     1      27.173  41.354   9.218  1.00  0.00    -0.015 A 
HETATM   21  C1  UNL     1      26.130  40.861   8.182  1.00  0.00     0.020 C 
HETATM   22  C16 UNL     1      27.707  40.238  10.038  1.00  0.00     0.015 A 
HETATM   23  C17 UNL     1      28.508  40.846   8.908  1.00  0.00     0.015 A 
ENDBRANCH   1  20
BRANCH   5  24
HETATM   24  N3  UNL     1      28.014  45.293  12.033  1.00  0.00    -0.114 N 
HETATM   25  O2  UNL     1      28.799  46.155  11.629  1.00  0.00    -0.532 OA
HETATM   26  O3  UNL     1      27.930  44.939  13.347  1.00  0.00    -0.532 OA
ENDBRANCH   5  24
TORSDOF 4
ENDMDL
MODEL 3
REMARK VINA RESULT: -9.110068965      2.052      3.417
REMARK  4 active torsions:
REMARK  status: ('A' for Active; 'I' for Inactive)
REMARK    1  A    between atoms: C2_2  and  C3_3 
REMARK    2  A    between atoms: C5_5  and  C6_6 
REMARK    3  A    between atoms: C7_11  and  C8_12 
REMARK    4  A    between atoms: C14_19  and  N3_20 
ROOT
HETATM    1  C3  UNL     1      27.156  43.640  10.478  1.00  0.00    -0.022 A 
HETATM    2  C4  UNL     1      25.975  43.732   9.726  1.00  0.00     0.026 A 
HETATM    3  C5  UNL     1      25.574  42.789   8.815  1.00  0.00     0.020 A 
HETATM    4  C13 UNL     1      26.349  41.677   8.604  1.00  0.00     0.054 A 
HETATM    5  C14 UNL     1      27.506  41.562   9.325  1.00  0.00     0.128 A 
HETATM    6  C15 UNL     1      27.918  42.526  10.255  1.00  0.00     0.086 A 
HETATM    7  N4  UNL     1      29.125  42.334  10.965  1.00  0.00    -0.099 NA
ENDROOT
BRANCH   3   8
HETATM    8  C6  UNL     1      24.337  42.925   8.054  1.00  0.00     0.174 A 
HETATM    9  N1  UNL     1      23.978  42.122   7.039  1.00  0.00    -0.277 N 
HETATM   10  N2  UNL     1      22.792  42.513   6.558  1.00  0.00    -0.281 N 
ATOM     11  H1  UNL     1      24.524  41.336   6.689  1.00  0.00     0.189 HD
HETATM   12  C7  UNL     1      22.437  43.574   7.304  1.00  0.00     0.144 A 
ATOM     13  H2  UNL     1      22.269  42.095   5.788  1.00  0.00     0.189 HD
HETATM   14  O1  UNL     1      23.378  43.797   8.190  1.00  0.00    -0.277 OA
BRANCH  12  15
HETATM   15  C8  UNL     1      21.169  44.318   7.095  1.00  0.00     0.062 C 
HETATM   16  C9  UNL     1      21.089  44.736   5.659  1.00  0.00     0.013 C 
HETATM   17  C10 UNL     1      20.812  46.207   5.663  1.00  0.00     0.001 C 
HETATM   18  C11 UNL     1      21.275  46.740   6.983  1.00  0.00     0.001 C 
HETATM   19  C12 UNL     1      21.125  45.587   7.931  1.00  0.00     0.013 C 
ENDBRANCH  12  15
ENDBRANCH   3   8
BRANCH   1  20
HETATM   20  C2  UNL     1      27.470  44.721  11.416  1.00  0.00    -0.015 A 
HETATM   21  C1  UNL     1      27.510  44.233  12.887  1.00  0.00     0.020 C 
HETATM   22  C16 UNL     1      26.920  46.095  11.305  1.00  0.00     0.015 A 
HETATM   23  C17 UNL     1      28.404  45.823  11.197  1.00  0.00     0.015 A 
ENDBRANCH   1  20
BRANCH   5  24
HETATM   24  N3  UNL     1      28.371  40.444   9.169  1.00  0.00    -0.114 N 
HETATM   25  O2  UNL     1      29.377  40.560   8.465  1.00  0.00    -0.532 OA
HETATM   26  O3  UNL     1      28.055  39.282   9.807  1.00  0.00    -0.532 OA
ENDBRANCH   5  24
TORSDOF 4
ENDMDL
MODEL 4
REMARK VINA RESULT: -9.035351103      2.101      3.390
REMARK  4 active torsions:
REMARK  status: ('A' for Active; 'I' for Inactive)
REMARK    1  A    between atoms: C2_2  and  C3_3 
REMARK    2  A    between atoms: C5_5  and  C6_6 
REMARK    3  A    between atoms: C7_11  and  C8_12 
REMARK    4  A    between atoms: C14_19  and  N3_20 
ROOT
HETATM    1  C3  UNL     1      27.309  43.550  10.358  1.00  0.00    -0.022 A 
HETATM    2  C4  UNL     1      26.110  43.668   9.641  1.00  0.00     0.026 A 
HETATM    3  C5  UNL     1      25.641  42.714   8.775  1.00  0.00     0.020 A 
HETATM    4  C13 UNL     1      26.362  41.565   8.577  1.00  0.00     0.054 A 
HETATM    5  C14 UNL     1      27.535  41.423   9.265  1.00  0.00     0.128 A 
HETATM    6  C15 UNL     1      28.017  42.398  10.150  1.00  0.00     0.086 A 
HETATM    7  N4  UNL     1      29.238  42.178  10.827  1.00  0.00    -0.099 NA
ENDROOT
BRANCH   3   8
HETATM    8  C6  UNL     1      24.386  42.878   8.049  1.00  0.00     0.174 A 
HETATM    9  N1  UNL     1      23.975  42.077   7.053  1.00  0.00    -0.277 N 
HETATM   10  N2  UNL     1      22.787  42.497   6.602  1.00  0.00    -0.281 N 
ATOM     11  H1  UNL     1      24.488  41.272   6.695  1.00  0.00     0.189 HD
HETATM   12  C7  UNL     1      22.484  43.574   7.347  1.00  0.00     0.144 A 
ATOM     13  H2  UNL     1      22.231  42.087   5.852  1.00  0.00     0.189 HD
HETATM   14  O1  UNL     1      23.457  43.778   8.203  1.00  0.00    -0.277 OA
BRANCH  12  15
HETATM   15  C8  UNL     1      21.232  44.352   7.167  1.00  0.00     0.062 C 
HETATM   16  C9  UNL     1      21.109  44.736   5.725  1.00  0.00     0.013 C 
HETATM   17  C10 UNL     1      20.877  46.215   5.701  1.00  0.00     0.001 C 
HETATM   18  C11 UNL     1      21.406  46.766   6.988  1.00  0.00     0.001 C 
HETATM   19  C12 UNL     1      21.259  45.642   7.971  1.00  0.00     0.013 C 
ENDBRANCH  12  15
ENDBRANCH   3   8
BRANCH   1  20
HETATM   20  C2  UNL     1      27.698  44.646  11.250  1.00  0.00    -0.015 A 
HETATM   21  C1  UNL     1      27.392  46.039  10.642  1.00  0.00     0.020 C 
HETATM   22  C16 UNL     1      28.947  44.655  12.050  1.00  0.00     0.015 A 
HETATM   23  C17 UNL     1      27.584  44.667  12.707  1.00  0.00     0.015 A 
ENDBRANCH   1  20
BRANCH   5  24
HETATM   24  N3  UNL     1      28.348  40.266   9.119  1.00  0.00    -0.114 N 
HETATM   25  O2  UNL     1      28.023  39.229   9.703  1.00  0.00    -0.532 OA
HETATM   26  O3  UNL     1      29.461  40.346   8.336  1.00  0.00    -0.532 OA
ENDBRANCH   5  24
TORSDOF 4
ENDMDL
MODEL 5
REMARK VINA RESULT: -8.927791255      3.304      5.007
REMARK  4 active torsions:
REMARK  status: ('A' for Active; 'I' for Inactive)
REMARK    1  A    between atoms: C2_2  and  C3_3 
REMARK    2  A    between atoms: C5_5  and  C6_6 
REMARK    3  A    between atoms: C7_11  and  C8_12 
REMARK    4  A    between atoms: C14_19  and  N3_20 
ROOT
HETATM    1  C3  UNL     1      27.903  41.282   9.506  1.00  0.00    -0.022 A 
HETATM    2  C4  UNL     1      27.313  42.516   9.814  1.00  0.00     0.026 A 
HETATM    3  C5  UNL     1      26.072  42.900   9.374  1.00  0.00     0.020 A 
HETATM    4  C13 UNL     1      25.339  42.050   8.585  1.00  0.00     0.054 A 
HETATM    5  C14 UNL     1      25.891  40.839   8.271  1.00  0.00     0.128 A 
HETATM    6  C15 UNL     1      27.160  40.446   8.720  1.00  0.00     0.086 A 
HETATM    7  N4  UNL     1      27.662  39.175   8.355  1.00  0.00    -0.099 NA
ENDROOT
BRANCH   3   8
HETATM    8  C6  UNL     1      25.495  44.194   9.718  1.00  0.00     0.174 A 
HETATM    9  N1  UNL     1      24.593  44.848   8.968  1.00  0.00    -0.277 N 
HETATM   10  N2  UNL     1      24.267  46.001   9.562  1.00  0.00    -0.281 N 
ATOM     11  H1  UNL     1      24.214  44.516   8.081  1.00  0.00     0.189 HD
HETATM   12  C7  UNL     1      24.993  46.036  10.694  1.00  0.00     0.144 A 
ATOM     13  H2  UNL     1      23.609  46.705   9.228  1.00  0.00     0.189 HD
HETATM   14  O1  UNL     1      25.716  44.944  10.761  1.00  0.00    -0.277 OA
BRANCH  12  15
HETATM   15  C8  UNL     1      24.929  47.163  11.659  1.00  0.00     0.062 C 
HETATM   16  C9  UNL     1      24.747  48.438  10.895  1.00  0.00     0.013 C 
HETATM   17  C10 UNL     1      25.815  49.372  11.373  1.00  0.00     0.001 C 
HETATM   18  C11 UNL     1      26.912  48.531  11.945  1.00  0.00     0.001 C 
HETATM   19  C12 UNL     1      26.223  47.296  12.445  1.00  0.00     0.013 C 
ENDBRANCH  12  15
ENDBRANCH   3   8
BRANCH   1  20
HETATM   20  C2  UNL     1      29.238  40.997  10.040  1.00  0.00    -0.015 A 
HETATM   21  C1  UNL     1      29.253  39.747  10.957  1.00  0.00     0.020 C 
HETATM   22  C16 UNL     1      30.177  42.044  10.516  1.00  0.00     0.015 A 
HETATM   23  C17 UNL     1      30.510  41.155   9.338  1.00  0.00     0.015 A 
ENDBRANCH   1  20
BRANCH   5  24
HETATM   24  N3  UNL     1      25.204  39.896   7.458  1.00  0.00    -0.114 N 
HETATM   25  O2  UNL     1      24.943  40.192   6.289  1.00  0.00    -0.532 OA
HETATM   26  O3  UNL     1      24.859  38.695   8.002  1.00  0.00    -0.532 OA
ENDBRANCH   5  24
TORSDOF 4
ENDMDL
