MODEL 1
REMARK VINA RESULT: -9.300883197      0.000      0.000
REMARK  7 active torsions:
REMARK  status: ('A' for Active; 'I' for Inactive)
REMARK    1  A    between atoms: O1_2  and  C2_3 
REMARK    2  A    between atoms: C2_3  and  O3_5 
REMARK    3  A    between atoms: O3_5  and  C3_6 
REMARK    4  A    between atoms: C5_8  and  C6_9 
REMARK    5  A    between atoms: C7_10  and  C8_11 
REMARK    6  A    between atoms: C10_13  and  C11_14 
REMARK    7  A    between atoms: C18_24  and  O5_25 
ROOT
HETATM    1  C3  UNL     1      29.297  46.727  15.431  1.00  0.00     0.115 A 
HETATM    2  C4  UNL     1      28.960  45.814  14.469  1.00  0.00     0.051 A 
HETATM    3  C5  UNL     1      28.034  46.120  13.462  1.00  0.00    -0.033 A 
HETATM    4  C16 UNL     1      27.465  47.380  13.468  1.00  0.00     0.014 A 
HETATM    5  C17 UNL     1      27.796  48.323  14.440  1.00  0.00     0.040 A 
HETATM    6  C18 UNL     1      28.717  47.967  15.410  1.00  0.00     0.099 A 
ENDROOT
BRANCH   3   7
HETATM    7  C6  UNL     1      27.715  45.109  12.466  1.00  0.00     0.014 C 
HETATM    8  C7  UNL     1      26.868  45.314  11.483  1.00  0.00     0.040 C 
BRANCH   8   9
HETATM    9  C8  UNL     1      26.597  44.247  10.517  1.00  0.00     0.100 A 
HETATM   10  C9  UNL     1      27.483  43.256  10.130  1.00  0.00     0.066 A 
HETATM   11  C10 UNL     1      26.844  42.463   9.216  1.00  0.00     0.039 A 
HETATM   12  N1  UNL     1      25.613  42.993   9.083  1.00  0.00    -0.265 N 
HETATM   13  O4  UNL     1      25.501  44.032   9.856  1.00  0.00    -0.238 OA
ATOM     14  H1  UNL     1      24.880  42.635   8.471  1.00  0.00     0.194 HD
BRANCH  11  15
HETATM   15  C11 UNL     1      27.427  41.280   8.540  1.00  0.00     0.037 C 
HETATM   16  C12 UNL     1      26.414  40.168   8.491  1.00  0.00     0.011 C 
HETATM   17  C13 UNL     1      27.123  38.883   8.761  1.00  0.00     0.001 C 
HETATM   18  C14 UNL     1      28.304  39.288   9.596  1.00  0.00     0.001 C 
HETATM   19  C15 UNL     1      28.606  40.722   9.308  1.00  0.00     0.011 C 
ENDBRANCH  11  15
ENDBRANCH   8   9
ENDBRANCH   3   7
BRANCH   1  20
HETATM   20  O3  UNL     1      30.203  46.409  16.404  1.00  0.00    -0.253 OA
BRANCH  20  21
HETATM   21  C2  UNL     1      30.811  45.162  16.439  1.00  0.00     0.411 C 
HETATM   22  O2  UNL     1      31.938  45.075  15.845  1.00  0.00    -0.229 OA
BRANCH  21  23
HETATM   23  O1  UNL     1      30.245  44.068  17.077  1.00  0.00    -0.303 OA
HETATM   24  C1  UNL     1      31.081  43.201  17.813  1.00  0.00     0.215 C 
ENDBRANCH  21  23
ENDBRANCH  20  21
ENDBRANCH   1  20
BRANCH   6  25
HETATM   25  O5  UNL     1      29.064  48.877  16.384  1.00  0.00    -0.358 OA
ATOM     26  H5  UNL     1      28.737  48.750  17.266  1.00  0.00     0.217 HD
ENDBRANCH   6  25
TORSDOF 7
ENDMDL
MODEL 2
REMARK VINA RESULT: -9.271377725      1.360      1.842
REMARK  7 active torsions:
REMARK  status: ('A' for Active; 'I' for Inactive)
REMARK    1  A    between atoms: O1_2  and  C2_3 
REMARK    2  A    between atoms: C2_3  and  O3_5 
REMARK    3  A    between atoms: O3_5  and  C3_6 
REMARK    4  A    between atoms: C5_8  and  C6_9 
REMARK    5  A    between atoms: C7_10  and  C8_11 
REMARK    6  A    between atoms: C10_13  and  C11_14 
REMARK    7  A    between atoms: C18_24  and  O5_25 
ROOT
HETATM    1  C3  UNL     1      29.575  46.555  15.601  1.00  0.00     0.115 A 
HETATM    2  C4  UNL     1      29.064  45.591  14.775  1.00  0.00     0.051 A 
HETATM    3  C5  UNL     1      28.071  45.887  13.831  1.00  0.00    -0.033 A 
HETATM    4  C16 UNL     1      27.616  47.191  13.759  1.00  0.00     0.014 A 
HETATM    5  C17 UNL     1      28.124  48.186  14.592  1.00  0.00     0.040 A 
HETATM    6  C18 UNL     1      29.105  47.837  15.505  1.00  0.00     0.099 A 
ENDROOT
BRANCH   3   7
HETATM    7  C6  UNL     1      27.566  44.821  12.979  1.00  0.00     0.014 C 
HETATM    8  C7  UNL     1      28.231  44.356  11.947  1.00  0.00     0.040 C 
BRANCH   8   9
HETATM    9  C8  UNL     1      27.658  43.280  11.133  1.00  0.00     0.100 A 
HETATM   10  C9  UNL     1      27.316  43.368   9.795  1.00  0.00     0.066 A 
HETATM   11  C10 UNL     1      26.818  42.150   9.415  1.00  0.00     0.039 A 
HETATM   12  N1  UNL     1      26.875  41.382  10.519  1.00  0.00    -0.265 N 
HETATM   13  O4  UNL     1      27.370  42.070  11.503  1.00  0.00    -0.238 OA
ATOM     14  H1  UNL     1      26.575  40.408  10.575  1.00  0.00     0.194 HD
BRANCH  11  15
HETATM   15  C11 UNL     1      26.330  41.801   8.059  1.00  0.00     0.037 C 
HETATM   16  C12 UNL     1      25.047  42.535   7.773  1.00  0.00     0.011 C 
HETATM   17  C13 UNL     1      24.133  41.604   7.051  1.00  0.00     0.001 C 
HETATM   18  C14 UNL     1      24.567  40.240   7.507  1.00  0.00     0.001 C 
HETATM   19  C15 UNL     1      25.990  40.330   7.949  1.00  0.00     0.011 C 
ENDBRANCH  11  15
ENDBRANCH   8   9
ENDBRANCH   3   7
BRANCH   1  20
HETATM   20  O3  UNL     1      30.543  46.246  16.514  1.00  0.00    -0.253 OA
BRANCH  20  21
HETATM   21  C2  UNL     1      31.112  44.980  16.557  1.00  0.00     0.411 C 
HETATM   22  O2  UNL     1      32.207  44.839  15.914  1.00  0.00    -0.229 OA
BRANCH  21  23
HETATM   23  O1  UNL     1      30.543  43.923  17.252  1.00  0.00    -0.303 OA
HETATM   24  C1  UNL     1      31.381  43.068  17.999  1.00  0.00     0.215 C 
ENDBRANCH  21  23
ENDBRANCH  20  21
ENDBRANCH   1  20
BRANCH   6  25
HETATM   25  O5  UNL     1      29.626  48.798  16.343  1.00  0.00    -0.358 OA
ATOM     26  H5  UNL     1      29.579  49.709  16.078  1.00  0.00     0.217 HD
ENDBRANCH   6  25
TORSDOF 7
ENDMDL
MODEL 3
REMARK VINA RESULT: -9.072950048      0.818      1.086
REMARK  7 active torsions:
REMARK  status: ('A' for Active; 'I' for Inactive)
REMARK    1  A    between atoms: O1_2  and  C2_3 
REMARK    2  A    between atoms: C2_3  and  O3_5 
REMARK    3  A    between atoms: O3_5  and  C3_6 
REMARK    4  A    between atoms: C5_8  and  C6_9 
REMARK    5  A    between atoms: C7_10  and  C8_11 
REMARK    6  A    between atoms: C10_13  and  C11_14 
REMARK    7  A    between atoms: C18_24  and  O5_25 
ROOT
HETATM    1  C3  UNL     1      29.215  47.275  15.366  1.00  0.00     0.115 A 
HETATM    2  C4  UNL     1      28.738  46.505  14.341  1.00  0.00     0.051 A 
HETATM    3  C5  UNL     1      27.712  46.959  13.501  1.00  0.00    -0.033 A 
HETATM    4  C16 UNL     1      27.190  48.216  13.739  1.00  0.00     0.014 A 
HETATM    5  C17 UNL     1      27.663  49.015  14.779  1.00  0.00     0.040 A 
HETATM    6  C18 UNL     1      28.678  48.516  15.577  1.00  0.00     0.099 A 
ENDROOT
BRANCH   3   7
HETATM    7  C6  UNL     1      27.246  46.096  12.426  1.00  0.00     0.014 C 
HETATM    8  C7  UNL     1      27.622  44.844  12.300  1.00  0.00     0.040 C 
BRANCH   8   9
HETATM    9  C8  UNL     1      27.110  44.035  11.190  1.00  0.00     0.100 A 
HETATM   10  C9  UNL     1      27.801  43.035  10.528  1.00  0.00     0.066 A 
HETATM   11  C10 UNL     1      26.973  42.530   9.562  1.00  0.00     0.039 A 
HETATM   12  N1  UNL     1      25.829  43.232   9.671  1.00  0.00    -0.265 N 
HETATM   13  O4  UNL     1      25.942  44.101  10.630  1.00  0.00    -0.238 OA
ATOM     14  H1  UNL     1      25.001  43.101   9.090  1.00  0.00     0.194 HD
BRANCH  11  15
HETATM   15  C11 UNL     1      27.312  41.439   8.617  1.00  0.00     0.037 C 
HETATM   16  C12 UNL     1      26.081  40.630   8.308  1.00  0.00     0.011 C 
HETATM   17  C13 UNL     1      26.474  39.191   8.256  1.00  0.00     0.001 C 
HETATM   18  C14 UNL     1      27.675  39.109   9.155  1.00  0.00     0.001 C 
HETATM   19  C15 UNL     1      28.300  40.464   9.219  1.00  0.00     0.011 C 
ENDBRANCH  11  15
ENDBRANCH   8   9
ENDBRANCH   3   7
BRANCH   1  20
HETATM   20  O3  UNL     1      30.217  46.814  16.174  1.00  0.00    -0.253 OA
BRANCH  20  21
HETATM   21  C2  UNL     1      30.595  45.479  16.159  1.00  0.00     0.411 C 
HETATM   22  O2  UNL     1      29.884  44.690  16.869  1.00  0.00    -0.229 OA
BRANCH  21  23
HETATM   23  O1  UNL     1      31.674  45.011  15.423  1.00  0.00    -0.303 OA
HETATM   24  C1  UNL     1      32.503  44.018  15.986  1.00  0.00     0.215 C 
ENDBRANCH  21  23
ENDBRANCH  20  21
ENDBRANCH   1  20
BRANCH   6  25
HETATM   25  O5  UNL     1      29.166  49.282  16.613  1.00  0.00    -0.358 OA
ATOM     26  H5  UNL     1      30.023  49.681  16.523  1.00  0.00     0.217 HD
ENDBRANCH   6  25
TORSDOF 7
ENDMDL
MODEL 4
REMARK VINA RESULT: -8.894640905      2.531      3.386
REMARK  7 active torsions:
REMARK  status: ('A' for Active; 'I' for Inactive)
REMARK    1  A    between atoms: O1_2  and  C2_3 
REMARK    2  A    between atoms: C2_3  and  O3_5 
REMARK    3  A    between atoms: O3_5  and  C3_6 
REMARK    4  A    between atoms: C5_8  and  C6_9 
REMARK    5  A    between atoms: C7_10  and  C8_11 
REMARK    6  A    between atoms: C10_13  and  C11_14 
REMARK    7  A    between atoms: C18_24  and  O5_25 
ROOT
HETATM    1  C3  UNL     1      28.133  49.227  15.533  1.00  0.00     0.115 A 
HETATM    2  C4  UNL     1      28.218  47.931  15.103  1.00  0.00     0.051 A 
HETATM    3  C5  UNL     1      27.654  47.526  13.885  1.00  0.00    -0.033 A 
HETATM    4  C16 UNL     1      27.005  48.480  13.124  1.00  0.00     0.014 A 
HETATM    5  C17 UNL     1      26.909  49.805  13.547  1.00  0.00     0.040 A 
HETATM    6  C18 UNL     1      27.483  50.149  14.758  1.00  0.00     0.099 A 
ENDROOT
BRANCH   3   7
HETATM    7  C6  UNL     1      27.777  46.135  13.478  1.00  0.00     0.014 C 
HETATM    8  C7  UNL     1      27.389  45.695  12.304  1.00  0.00     0.040 C 
BRANCH   8   9
HETATM    9  C8  UNL     1      27.544  44.278  11.965  1.00  0.00     0.100 A 
HETATM   10  C9  UNL     1      27.945  43.775  10.740  1.00  0.00     0.066 A 
HETATM   11  C10 UNL     1      27.961  42.409  10.839  1.00  0.00     0.039 A 
HETATM   12  N1  UNL     1      27.574  42.139  12.100  1.00  0.00    -0.265 N 
HETATM   13  O4  UNL     1      27.339  43.251  12.730  1.00  0.00    -0.238 OA
ATOM     14  H1  UNL     1      27.480  41.205  12.500  1.00  0.00     0.194 HD
BRANCH  11  15
HETATM   15  C11 UNL     1      28.333  41.468   9.755  1.00  0.00     0.037 C 
HETATM   16  C12 UNL     1      27.090  40.915   9.110  1.00  0.00     0.011 C 
HETATM   17  C13 UNL     1      27.320  39.468   8.829  1.00  0.00     0.001 C 
HETATM   18  C14 UNL     1      28.327  39.052   9.863  1.00  0.00     0.001 C 
HETATM   19  C15 UNL     1      29.082  40.267  10.290  1.00  0.00     0.011 C 
ENDBRANCH  11  15
ENDBRANCH   8   9
ENDBRANCH   3   7
BRANCH   1  20
HETATM   20  O3  UNL     1      28.689  49.602  16.725  1.00  0.00    -0.253 OA
BRANCH  20  21
HETATM   21  C2  UNL     1      29.976  50.117  16.786  1.00  0.00     0.411 C 
HETATM   22  O2  UNL     1      30.913  49.260  16.928  1.00  0.00    -0.229 OA
BRANCH  21  23
HETATM   23  O1  UNL     1      30.248  51.475  16.699  1.00  0.00    -0.303 OA
HETATM   24  C1  UNL     1      30.939  51.960  15.569  1.00  0.00     0.215 C 
ENDBRANCH  21  23
ENDBRANCH  20  21
ENDBRANCH   1  20
BRANCH   6  25
HETATM   25  O5  UNL     1      27.404  51.451  15.202  1.00  0.00    -0.358 OA
ATOM     26  H5  UNL     1      26.634  51.722  15.687  1.00  0.00     0.217 HD
ENDBRANCH   6  25
TORSDOF 7
ENDMDL
MODEL 5
REMARK VINA RESULT: -8.865416843      5.517      8.875
REMARK  7 active torsions:
REMARK  status: ('A' for Active; 'I' for Inactive)
REMARK    1  A    between atoms: O1_2  and  C2_3 
REMARK    2  A    between atoms: C2_3  and  O3_5 
REMARK    3  A    between atoms: O3_5  and  C3_6 
REMARK    4  A    between atoms: C5_8  and  C6_9 
REMARK    5  A    between atoms: C7_10  and  C8_11 
REMARK    6  A    between atoms: C10_13  and  C11_14 
REMARK    7  A    between atoms: C18_24  and  O5_25 
ROOT
HETATM    1  C3  UNL     1      27.155  41.293   9.081  1.00  0.00     0.115 A 
HETATM    2  C4  UNL     1      26.163  41.953   8.409  1.00  0.00     0.051 A 
HETATM    3  C5  UNL     1      25.240  41.266   7.608  1.00  0.00    -0.033 A 
HETATM    4  C16 UNL     1      25.360  39.892   7.515  1.00  0.00     0.014 A 
HETATM    5  C17 UNL     1      26.364  39.203   8.194  1.00  0.00     0.040 A 
HETATM    6  C18 UNL     1      27.248  39.932   8.970  1.00  0.00     0.099 A 
ENDROOT
BRANCH   3   7
HETATM    7  C6  UNL     1      24.206  42.022   6.916  1.00  0.00     0.014 C 
HETATM    8  C7  UNL     1      23.336  42.781   7.541  1.00  0.00     0.040 C 
BRANCH   8   9
HETATM    9  C8  UNL     1      22.322  43.512   6.777  1.00  0.00     0.100 A 
HETATM   10  C9  UNL     1      21.643  44.641   7.201  1.00  0.00     0.066 A 
HETATM   11  C10 UNL     1      20.789  45.012   6.197  1.00  0.00     0.039 A 
HETATM   12  N1  UNL     1      20.978  44.108   5.217  1.00  0.00    -0.265 N 
HETATM   13  O4  UNL     1      21.878  43.248   5.587  1.00  0.00    -0.238 OA
ATOM     14  H1  UNL     1      20.489  44.099   4.322  1.00  0.00     0.194 HD
BRANCH  11  15
HETATM   15  C11 UNL     1      19.868  46.173   6.230  1.00  0.00     0.037 C 
HETATM   16  C12 UNL     1      18.710  45.881   7.146  1.00  0.00     0.011 C 
HETATM   17  C13 UNL     1      17.472  46.426   6.515  1.00  0.00     0.001 C 
HETATM   18  C14 UNL     1      17.773  46.401   5.043  1.00  0.00     0.001 C 
HETATM   19  C15 UNL     1      19.256  46.440   4.872  1.00  0.00     0.011 C 
ENDBRANCH  11  15
ENDBRANCH   8   9
ENDBRANCH   3   7
BRANCH   1  20
HETATM   20  O3  UNL     1      28.045  41.981   9.858  1.00  0.00    -0.253 OA
BRANCH  20  21
HETATM   21  C2  UNL     1      27.619  42.739  10.939  1.00  0.00     0.411 C 
HETATM   22  O2  UNL     1      26.962  42.111  11.836  1.00  0.00    -0.229 OA
BRANCH  21  23
HETATM   23  O1  UNL     1      27.882  44.097  11.055  1.00  0.00    -0.303 OA
HETATM   24  C1  UNL     1      27.167  45.001  10.242  1.00  0.00     0.215 C 
ENDBRANCH  21  23
ENDBRANCH  20  21
ENDBRANCH   1  20
BRANCH   6  25
HETATM   25  O5  UNL     1      28.251  39.278   9.652  1.00  0.00    -0.358 OA
ATOM     26  H5  UNL     1      29.153  39.438   9.402  1.00  0.00     0.217 HD
ENDBRANCH   6  25
TORSDOF 7
ENDMDL
