MODEL 1
REMARK VINA RESULT: -6.934733836      0.000      0.000
REMARK  21 active torsions:
REMARK  status: ('A' for Active; 'I' for Inactive)
REMARK    1  A    between atoms: C2_2  and  C3_3 
REMARK    2  A    between atoms: C3_3  and  C4_4 
REMARK    3  A    between atoms: C4_4  and  C5_5 
REMARK    4  A    between atoms: C7_8  and  C8_9 
REMARK    5  A    between atoms: C8_9  and  C9_10 
REMARK    6  A    between atoms: C10_11  and  C11_12 
REMARK    7  A    between atoms: C11_12  and  C12_13 
REMARK    8  A    between atoms: C12_13  and  C13_14 
REMARK    9  A    between atoms: C13_14  and  O2_15 
REMARK   10  A    between atoms: C13_14  and  C23_29 
REMARK   11  A    between atoms: O2_15  and  C14_16 
REMARK   12  A    between atoms: C14_16  and  C15_17 
REMARK   13  A    between atoms: C15_17  and  C16_18 
REMARK   14  A    between atoms: C16_18  and  O4_20 
REMARK   15  A    between atoms: O4_20  and  C17_21 
REMARK   16  A    between atoms: C20_24  and  O5_25 
REMARK   17  A    between atoms: C24_31  and  C25_32 
REMARK   18  A    between atoms: C25_32  and  O7_33 
REMARK   19  A    between atoms: C26_35  and  O8_36 
REMARK   20  A    between atoms: C27_38  and  O9_39 
REMARK   21  A    between atoms: C28_41  and  O10_42 
ROOT
HETATM    1  C13 UNL     1      34.913  26.044  21.186  1.00  0.00     0.153 C 
ENDROOT
BRANCH   1   2
HETATM    2  C12 UNL     1      33.436  26.420  20.922  1.00  0.00     0.038 C 
BRANCH   2   3
HETATM    3  C11 UNL     1      33.184  27.839  20.586  1.00  0.00     0.029 C 
BRANCH   3   4
HETATM    4  C10 UNL     1      32.959  27.939  19.095  1.00  0.00    -0.031 C 
HETATM    5  C9  UNL     1      32.191  27.097  18.460  1.00  0.00    -0.030 C 
BRANCH   5   6
HETATM    6  C8  UNL     1      31.957  27.179  16.991  1.00  0.00     0.039 C 
BRANCH   6   7
HETATM    7  C7  UNL     1      31.443  28.540  16.657  1.00  0.00     0.067 C 
HETATM    8  C6  UNL     1      32.376  29.282  15.761  1.00  0.00     0.140 C 
HETATM    9  C5  UNL     1      32.044  30.669  15.392  1.00  0.00     0.084 C 
HETATM   10  O1  UNL     1      33.375  28.750  15.352  1.00  0.00    -0.297 OA
HETATM   11  C32 UNL     1      30.557  30.842  15.339  1.00  0.00    -0.076 C 
HETATM   12  C31 UNL     1      29.715  29.868  15.604  1.00  0.00    -0.019 C 
HETATM   13  C33 UNL     1      30.031  32.183  14.968  1.00  0.00     0.044 C 
HETATM   14  C29 UNL     1      30.105  28.480  15.990  1.00  0.00     0.016 C 
HETATM   15  C30 UNL     1      30.073  27.565  14.795  1.00  0.00     0.015 C 
BRANCH   9  16
HETATM   16  C4  UNL     1      32.601  31.689  16.314  1.00  0.00     0.020 C 
BRANCH  16  17
HETATM   17  C3  UNL     1      32.764  31.295  17.743  1.00  0.00     0.027 C 
BRANCH  17  18
HETATM   18  C2  UNL     1      31.696  31.829  18.594  1.00  0.00    -0.037 C 
HETATM   19  C1  UNL     1      30.807  31.108  19.217  1.00  0.00     0.007 C 
ENDBRANCH  17  18
ENDBRANCH  16  17
ENDBRANCH   9  16
ENDBRANCH   6   7
ENDBRANCH   5   6
ENDBRANCH   3   4
ENDBRANCH   2   3
ENDBRANCH   1   2
BRANCH   1  20
HETATM   20  O2  UNL     1      34.872  25.732  22.583  1.00  0.00    -0.383 OA
BRANCH  20  21
HETATM   21  C14 UNL     1      35.279  26.740  23.392  1.00  0.00     0.178 C 
BRANCH  21  22
HETATM   22  C15 UNL     1      36.444  27.484  22.866  1.00  0.00     0.137 C 
BRANCH  22  23
HETATM   23  C16 UNL     1      36.071  28.892  22.470  1.00  0.00     0.261 C 
HETATM   24  O3  UNL     1      35.273  29.589  23.132  1.00  0.00    -0.265 OA
BRANCH  23  25
HETATM   25  O4  UNL     1      36.613  29.473  21.334  1.00  0.00    -0.316 OA
BRANCH  25  26
HETATM   26  C17 UNL     1      36.466  29.000  20.027  1.00  0.00     0.132 C 
HETATM   27  C18 UNL     1      37.571  28.100  19.582  1.00  0.00     0.035 C 
HETATM   28  C19 UNL     1      37.196  27.414  18.320  1.00  0.00     0.034 C 
HETATM   29  C20 UNL     1      36.519  28.228  17.295  1.00  0.00     0.118 C 
HETATM   30  C21 UNL     1      35.828  29.461  17.732  1.00  0.00     0.034 C 
HETATM   31  C22 UNL     1      36.362  30.088  18.988  1.00  0.00     0.035 C 
BRANCH  29  32
HETATM   32  O5  UNL     1      35.584  27.420  16.626  1.00  0.00    -0.396 OA
ATOM     33  H5  UNL     1      34.773  27.421  17.121  1.00  0.00     0.210 HD
ENDBRANCH  29  32
ENDBRANCH  25  26
ENDBRANCH  23  25
ENDBRANCH  22  23
ENDBRANCH  21  22
ENDBRANCH  20  21
ENDBRANCH   1  20
BRANCH   1  34
HETATM   34  C23 UNL     1      35.226  24.797  20.463  1.00  0.00     0.182 C 
HETATM   35  O6  UNL     1      34.641  23.725  21.211  1.00  0.00    -0.370 OA
HETATM   36  C24 UNL     1      34.529  22.604  20.382  1.00  0.00     0.177 C 
HETATM   37  C26 UNL     1      35.497  22.570  19.255  1.00  0.00     0.180 C 
HETATM   38  C27 UNL     1      36.818  23.254  19.510  1.00  0.00     0.180 C 
HETATM   39  C28 UNL     1      36.709  24.393  20.510  1.00  0.00     0.180 C 
BRANCH  36  40
HETATM   40  C25 UNL     1      34.563  21.361  21.197  1.00  0.00     0.198 C 
BRANCH  40  41
HETATM   41  O7  UNL     1      35.656  21.312  22.054  1.00  0.00    -0.398 OA
ATOM     42  H7  UNL     1      35.403  21.258  22.969  1.00  0.00     0.209 HD
ENDBRANCH  40  41
ENDBRANCH  36  40
BRANCH  37  43
HETATM   43  O8  UNL     1      35.784  21.261  18.880  1.00  0.00    -0.390 OA
ATOM     44  H8  UNL     1      36.178  20.778  19.596  1.00  0.00     0.210 HD
ENDBRANCH  37  43
BRANCH  38  45
HETATM   45  O9  UNL     1      37.791  22.382  19.997  1.00  0.00    -0.390 OA
ATOM     46  H9  UNL     1      38.162  22.671  20.823  1.00  0.00     0.210 HD
ENDBRANCH  38  45
BRANCH  39  47
HETATM   47  O10 UNL     1      36.930  23.847  21.804  1.00  0.00    -0.390 OA
ATOM     48  H10 UNL     1      36.161  23.325  22.006  1.00  0.00     0.210 HD
ENDBRANCH  39  47
ENDBRANCH   1  34
TORSDOF 21
ENDMDL
MODEL 2
REMARK VINA RESULT: -6.914626021      2.108      3.693
REMARK  21 active torsions:
REMARK  status: ('A' for Active; 'I' for Inactive)
REMARK    1  A    between atoms: C2_2  and  C3_3 
REMARK    2  A    between atoms: C3_3  and  C4_4 
REMARK    3  A    between atoms: C4_4  and  C5_5 
REMARK    4  A    between atoms: C7_8  and  C8_9 
REMARK    5  A    between atoms: C8_9  and  C9_10 
REMARK    6  A    between atoms: C10_11  and  C11_12 
REMARK    7  A    between atoms: C11_12  and  C12_13 
REMARK    8  A    between atoms: C12_13  and  C13_14 
REMARK    9  A    between atoms: C13_14  and  O2_15 
REMARK   10  A    between atoms: C13_14  and  C23_29 
REMARK   11  A    between atoms: O2_15  and  C14_16 
REMARK   12  A    between atoms: C14_16  and  C15_17 
REMARK   13  A    between atoms: C15_17  and  C16_18 
REMARK   14  A    between atoms: C16_18  and  O4_20 
REMARK   15  A    between atoms: O4_20  and  C17_21 
REMARK   16  A    between atoms: C20_24  and  O5_25 
REMARK   17  A    between atoms: C24_31  and  C25_32 
REMARK   18  A    between atoms: C25_32  and  O7_33 
REMARK   19  A    between atoms: C26_35  and  O8_36 
REMARK   20  A    between atoms: C27_38  and  O9_39 
REMARK   21  A    between atoms: C28_41  and  O10_42 
ROOT
HETATM    1  C13 UNL     1      35.889  26.384  20.854  1.00  0.00     0.153 C 
ENDROOT
BRANCH   1   2
HETATM    2  C12 UNL     1      35.427  26.246  22.324  1.00  0.00     0.038 C 
BRANCH   2   3
HETATM    3  C11 UNL     1      34.878  27.473  22.944  1.00  0.00     0.029 C 
BRANCH   3   4
HETATM    4  C10 UNL     1      33.669  27.905  22.148  1.00  0.00    -0.031 C 
HETATM    5  C9  UNL     1      33.657  29.021  21.473  1.00  0.00    -0.030 C 
BRANCH   5   6
HETATM    6  C8  UNL     1      32.475  29.465  20.681  1.00  0.00     0.039 C 
BRANCH   6   7
HETATM    7  C7  UNL     1      32.872  29.599  19.250  1.00  0.00     0.067 C 
HETATM    8  C6  UNL     1      31.967  28.829  18.347  1.00  0.00     0.140 C 
HETATM    9  C5  UNL     1      32.266  28.805  16.905  1.00  0.00     0.084 C 
HETATM   10  O1  UNL     1      31.016  28.244  18.797  1.00  0.00    -0.297 OA
HETATM   11  C32 UNL     1      32.919  30.090  16.496  1.00  0.00    -0.076 C 
HETATM   12  C31 UNL     1      33.177  31.061  17.344  1.00  0.00    -0.019 C 
HETATM   13  C33 UNL     1      33.283  30.254  15.064  1.00  0.00     0.044 C 
HETATM   14  C29 UNL     1      32.867  31.028  18.804  1.00  0.00     0.016 C 
HETATM   15  C30 UNL     1      31.573  31.741  19.091  1.00  0.00     0.015 C 
BRANCH   9  16
HETATM   16  C4  UNL     1      33.141  27.682  16.487  1.00  0.00     0.020 C 
BRANCH  16  17
HETATM   17  C3  UNL     1      33.826  26.918  17.569  1.00  0.00     0.027 C 
BRANCH  17  18
HETATM   18  C2  UNL     1      33.322  25.546  17.688  1.00  0.00    -0.037 C 
HETATM   19  C1  UNL     1      32.526  25.123  18.628  1.00  0.00     0.007 C 
ENDBRANCH  17  18
ENDBRANCH  16  17
ENDBRANCH   9  16
ENDBRANCH   6   7
ENDBRANCH   5   6
ENDBRANCH   3   4
ENDBRANCH   2   3
ENDBRANCH   1   2
BRANCH   1  20
HETATM   20  O2  UNL     1      37.234  26.844  21.031  1.00  0.00    -0.383 OA
BRANCH  20  21
HETATM   21  C14 UNL     1      37.473  28.079  20.528  1.00  0.00     0.178 C 
BRANCH  21  22
HETATM   22  C15 UNL     1      37.476  28.122  19.049  1.00  0.00     0.137 C 
BRANCH  22  23
HETATM   23  C16 UNL     1      36.696  29.304  18.527  1.00  0.00     0.261 C 
HETATM   24  O3  UNL     1      36.410  30.290  19.239  1.00  0.00    -0.265 OA
BRANCH  23  25
HETATM   25  O4  UNL     1      36.260  29.337  17.212  1.00  0.00    -0.316 OA
BRANCH  25  26
HETATM   26  C17 UNL     1      36.904  29.986  16.154  1.00  0.00     0.132 C 
HETATM   27  C18 UNL     1      36.410  31.373  15.905  1.00  0.00     0.035 C 
HETATM   28  C19 UNL     1      37.330  32.087  14.985  1.00  0.00     0.034 C 
HETATM   29  C20 UNL     1      37.845  31.326  13.834  1.00  0.00     0.118 C 
HETATM   30  C21 UNL     1      37.842  29.848  13.922  1.00  0.00     0.034 C 
HETATM   31  C22 UNL     1      36.806  29.259  14.837  1.00  0.00     0.035 C 
BRANCH  29  32
HETATM   32  O5  UNL     1      39.162  31.742  13.574  1.00  0.00    -0.396 OA
ATOM     33  H5  UNL     1      39.597  31.071  13.060  1.00  0.00     0.210 HD
ENDBRANCH  29  32
ENDBRANCH  25  26
ENDBRANCH  23  25
ENDBRANCH  22  23
ENDBRANCH  21  22
ENDBRANCH  20  21
ENDBRANCH   1  20
BRANCH   1  34
HETATM   34  C23 UNL     1      35.956  25.042  20.245  1.00  0.00     0.182 C 
HETATM   35  O6  UNL     1      35.251  24.153  21.119  1.00  0.00    -0.370 OA
HETATM   36  C24 UNL     1      34.913  22.996  20.410  1.00  0.00     0.177 C 
HETATM   37  C26 UNL     1      35.797  22.701  19.252  1.00  0.00     0.180 C 
HETATM   38  C27 UNL     1      37.223  23.178  19.382  1.00  0.00     0.180 C 
HETATM   39  C28 UNL     1      37.355  24.406  20.269  1.00  0.00     0.180 C 
BRANCH  36  40
HETATM   40  C25 UNL     1      34.795  21.843  21.342  1.00  0.00     0.198 C 
BRANCH  40  41
HETATM   41  O7  UNL     1      35.940  21.652  22.106  1.00  0.00    -0.398 OA
ATOM     42  H7  UNL     1      35.976  20.789  22.503  1.00  0.00     0.209 HD
ENDBRANCH  40  41
ENDBRANCH  36  40
BRANCH  37  43
HETATM   43  O8  UNL     1      35.848  21.334  18.996  1.00  0.00    -0.390 OA
ATOM     44  H8  UNL     1      35.997  21.164  18.073  1.00  0.00     0.210 HD
ENDBRANCH  37  43
BRANCH  38  45
HETATM   45  O9  UNL     1      38.070  22.206  19.912  1.00  0.00    -0.390 OA
ATOM     46  H9  UNL     1      38.957  22.521  20.038  1.00  0.00     0.210 HD
ENDBRANCH  38  45
BRANCH  39  47
HETATM   47  O10 UNL     1      37.560  23.950  21.600  1.00  0.00    -0.390 OA
ATOM     48  H10 UNL     1      38.292  23.344  21.563  1.00  0.00     0.210 HD
ENDBRANCH  39  47
ENDBRANCH   1  34
TORSDOF 21
ENDMDL
MODEL 3
REMARK VINA RESULT: -6.906535483      1.136      2.348
REMARK  21 active torsions:
REMARK  status: ('A' for Active; 'I' for Inactive)
REMARK    1  A    between atoms: C2_2  and  C3_3 
REMARK    2  A    between atoms: C3_3  and  C4_4 
REMARK    3  A    between atoms: C4_4  and  C5_5 
REMARK    4  A    between atoms: C7_8  and  C8_9 
REMARK    5  A    between atoms: C8_9  and  C9_10 
REMARK    6  A    between atoms: C10_11  and  C11_12 
REMARK    7  A    between atoms: C11_12  and  C12_13 
REMARK    8  A    between atoms: C12_13  and  C13_14 
REMARK    9  A    between atoms: C13_14  and  O2_15 
REMARK   10  A    between atoms: C13_14  and  C23_29 
REMARK   11  A    between atoms: O2_15  and  C14_16 
REMARK   12  A    between atoms: C14_16  and  C15_17 
REMARK   13  A    between atoms: C15_17  and  C16_18 
REMARK   14  A    between atoms: C16_18  and  O4_20 
REMARK   15  A    between atoms: O4_20  and  C17_21 
REMARK   16  A    between atoms: C20_24  and  O5_25 
REMARK   17  A    between atoms: C24_31  and  C25_32 
REMARK   18  A    between atoms: C25_32  and  O7_33 
REMARK   19  A    between atoms: C26_35  and  O8_36 
REMARK   20  A    between atoms: C27_38  and  O9_39 
REMARK   21  A    between atoms: C28_41  and  O10_42 
ROOT
HETATM    1  C13 UNL     1      35.310  26.006  21.220  1.00  0.00     0.153 C 
ENDROOT
BRANCH   1   2
HETATM    2  C12 UNL     1      33.827  26.411  21.048  1.00  0.00     0.038 C 
BRANCH   2   3
HETATM    3  C11 UNL     1      33.245  26.170  19.709  1.00  0.00     0.029 C 
BRANCH   3   4
HETATM    4  C10 UNL     1      32.356  27.340  19.360  1.00  0.00    -0.031 C 
HETATM    5  C9  UNL     1      32.371  28.443  20.058  1.00  0.00    -0.030 C 
BRANCH   5   6
HETATM    6  C8  UNL     1      31.503  29.609  19.731  1.00  0.00     0.039 C 
BRANCH   6   7
HETATM    7  C7  UNL     1      31.656  29.937  18.283  1.00  0.00     0.067 C 
HETATM    8  C6  UNL     1      30.368  29.799  17.542  1.00  0.00     0.140 C 
HETATM    9  C5  UNL     1      30.366  30.024  16.087  1.00  0.00     0.084 C 
HETATM   10  O1  UNL     1      29.358  29.513  18.131  1.00  0.00    -0.297 OA
HETATM   11  C32 UNL     1      31.408  31.038  15.724  1.00  0.00    -0.076 C 
HETATM   12  C31 UNL     1      32.192  31.605  16.613  1.00  0.00    -0.019 C 
HETATM   13  C33 UNL     1      31.544  31.405  14.289  1.00  0.00     0.044 C 
HETATM   14  C29 UNL     1      32.164  31.330  18.080  1.00  0.00     0.016 C 
HETATM   15  C30 UNL     1      31.355  32.373  18.804  1.00  0.00     0.015 C 
BRANCH   9  16
HETATM   16  C4  UNL     1      30.608  28.799  15.286  1.00  0.00     0.020 C 
BRANCH  16  17
HETATM   17  C3  UNL     1      31.214  27.635  15.993  1.00  0.00     0.027 C 
BRANCH  17  18
HETATM   18  C2  UNL     1      32.628  27.448  15.649  1.00  0.00    -0.037 C 
HETATM   19  C1  UNL     1      33.242  28.044  14.667  1.00  0.00     0.007 C 
ENDBRANCH  17  18
ENDBRANCH  16  17
ENDBRANCH   9  16
ENDBRANCH   6   7
ENDBRANCH   5   6
ENDBRANCH   3   4
ENDBRANCH   2   3
ENDBRANCH   1   2
BRANCH   1  20
HETATM   20  O2  UNL     1      35.351  25.702  22.619  1.00  0.00    -0.383 OA
BRANCH  20  21
HETATM   21  C14 UNL     1      35.412  26.789  23.425  1.00  0.00     0.178 C 
BRANCH  21  22
HETATM   22  C15 UNL     1      36.350  27.827  22.945  1.00  0.00     0.137 C 
BRANCH  22  23
HETATM   23  C16 UNL     1      35.634  29.118  22.628  1.00  0.00     0.261 C 
HETATM   24  O3  UNL     1      34.794  29.628  23.398  1.00  0.00    -0.265 OA
BRANCH  23  25
HETATM   25  O4  UNL     1      35.891  29.796  21.447  1.00  0.00    -0.316 OA
BRANCH  25  26
HETATM   26  C17 UNL     1      35.977  29.218  20.176  1.00  0.00     0.132 C 
HETATM   27  C18 UNL     1      37.360  28.808  19.791  1.00  0.00     0.035 C 
HETATM   28  C19 UNL     1      37.321  27.949  18.583  1.00  0.00     0.034 C 
HETATM   29  C20 UNL     1      36.401  28.353  17.505  1.00  0.00     0.118 C 
HETATM   30  C21 UNL     1      35.263  29.232  17.858  1.00  0.00     0.034 C 
HETATM   31  C22 UNL     1      35.472  30.103  19.065  1.00  0.00     0.035 C 
BRANCH  29  32
HETATM   32  O5  UNL     1      35.883  27.196  16.899  1.00  0.00    -0.396 OA
ATOM     33  H5  UNL     1      36.198  27.154  16.004  1.00  0.00     0.210 HD
ENDBRANCH  29  32
ENDBRANCH  25  26
ENDBRANCH  23  25
ENDBRANCH  22  23
ENDBRANCH  21  22
ENDBRANCH  20  21
ENDBRANCH   1  20
BRANCH   1  34
HETATM   34  C23 UNL     1      35.552  24.750  20.486  1.00  0.00     0.182 C 
HETATM   35  O6  UNL     1      34.931  23.702  21.239  1.00  0.00    -0.370 OA
HETATM   36  C24 UNL     1      34.752  22.592  20.407  1.00  0.00     0.177 C 
HETATM   37  C26 UNL     1      35.697  22.519  19.263  1.00  0.00     0.180 C 
HETATM   38  C27 UNL     1      37.053  23.140  19.497  1.00  0.00     0.180 C 
HETATM   39  C28 UNL     1      37.015  24.277  20.504  1.00  0.00     0.180 C 
BRANCH  36  40
HETATM   40  C25 UNL     1      34.743  21.345  21.217  1.00  0.00     0.198 C 
BRANCH  40  41
HETATM   41  O7  UNL     1      35.786  21.292  22.133  1.00  0.00    -0.398 OA
ATOM     42  H7  UNL     1      36.142  20.417  22.233  1.00  0.00     0.209 HD
ENDBRANCH  40  41
ENDBRANCH  36  40
BRANCH  37  43
HETATM   43  O8  UNL     1      35.916  21.200  18.877  1.00  0.00    -0.390 OA
ATOM     44  H8  UNL     1      35.877  21.109  17.932  1.00  0.00     0.210 HD
ENDBRANCH  37  43
BRANCH  38  45
HETATM   45  O9  UNL     1      37.992  22.221  19.963  1.00  0.00    -0.390 OA
ATOM     46  H9  UNL     1      38.883  22.456  19.729  1.00  0.00     0.210 HD
ENDBRANCH  38  45
BRANCH  39  47
HETATM   47  O10 UNL     1      37.233  23.715  21.792  1.00  0.00    -0.390 OA
ATOM     48  H10 UNL     1      37.012  22.793  21.719  1.00  0.00     0.210 HD
ENDBRANCH  39  47
ENDBRANCH   1  34
TORSDOF 21
ENDMDL
MODEL 4
REMARK VINA RESULT: -6.894773293      1.746      3.438
REMARK  21 active torsions:
REMARK  status: ('A' for Active; 'I' for Inactive)
REMARK    1  A    between atoms: C2_2  and  C3_3 
REMARK    2  A    between atoms: C3_3  and  C4_4 
REMARK    3  A    between atoms: C4_4  and  C5_5 
REMARK    4  A    between atoms: C7_8  and  C8_9 
REMARK    5  A    between atoms: C8_9  and  C9_10 
REMARK    6  A    between atoms: C10_11  and  C11_12 
REMARK    7  A    between atoms: C11_12  and  C12_13 
REMARK    8  A    between atoms: C12_13  and  C13_14 
REMARK    9  A    between atoms: C13_14  and  O2_15 
REMARK   10  A    between atoms: C13_14  and  C23_29 
REMARK   11  A    between atoms: O2_15  and  C14_16 
REMARK   12  A    between atoms: C14_16  and  C15_17 
REMARK   13  A    between atoms: C15_17  and  C16_18 
REMARK   14  A    between atoms: C16_18  and  O4_20 
REMARK   15  A    between atoms: O4_20  and  C17_21 
REMARK   16  A    between atoms: C20_24  and  O5_25 
REMARK   17  A    between atoms: C24_31  and  C25_32 
REMARK   18  A    between atoms: C25_32  and  O7_33 
REMARK   19  A    between atoms: C26_35  and  O8_36 
REMARK   20  A    between atoms: C27_38  and  O9_39 
REMARK   21  A    between atoms: C28_41  and  O10_42 
ROOT
HETATM    1  C13 UNL     1      37.563  27.735  20.321  1.00  0.00     0.153 C 
ENDROOT
BRANCH   1   2
HETATM    2  C12 UNL     1      36.509  28.842  20.084  1.00  0.00     0.038 C 
BRANCH   2   3
HETATM    3  C11 UNL     1      36.868  29.868  19.080  1.00  0.00     0.029 C 
BRANCH   3   4
HETATM    4  C10 UNL     1      36.016  29.647  17.852  1.00  0.00    -0.031 C 
HETATM    5  C9  UNL     1      36.318  30.186  16.702  1.00  0.00    -0.030 C 
BRANCH   5   6
HETATM    6  C8  UNL     1      35.491  29.979  15.480  1.00  0.00     0.039 C 
BRANCH   6   7
HETATM    7  C7  UNL     1      34.055  29.901  15.874  1.00  0.00     0.067 C 
HETATM    8  C6  UNL     1      33.332  31.177  15.597  1.00  0.00     0.140 C 
HETATM    9  C5  UNL     1      31.917  31.285  15.992  1.00  0.00     0.084 C 
HETATM   10  O1  UNL     1      33.901  32.092  15.061  1.00  0.00    -0.297 OA
HETATM   11  C32 UNL     1      31.258  29.942  15.904  1.00  0.00    -0.076 C 
HETATM   12  C31 UNL     1      31.898  28.855  15.535  1.00  0.00    -0.019 C 
HETATM   13  C33 UNL     1      29.815  29.857  16.254  1.00  0.00     0.044 C 
HETATM   14  C29 UNL     1      33.341  28.797  15.158  1.00  0.00     0.016 C 
HETATM   15  C30 UNL     1      33.505  28.850  13.663  1.00  0.00     0.015 C 
BRANCH   9  16
HETATM   16  C4  UNL     1      31.710  31.818  17.361  1.00  0.00     0.020 C 
BRANCH  16  17
HETATM   17  C3  UNL     1      32.712  31.435  18.396  1.00  0.00     0.027 C 
BRANCH  17  18
HETATM   18  C2  UNL     1      32.083  31.048  19.664  1.00  0.00    -0.037 C 
HETATM   19  C1  UNL     1      30.830  30.724  19.807  1.00  0.00     0.007 C 
ENDBRANCH  17  18
ENDBRANCH  16  17
ENDBRANCH   9  16
ENDBRANCH   6   7
ENDBRANCH   5   6
ENDBRANCH   3   4
ENDBRANCH   2   3
ENDBRANCH   1   2
BRANCH   1  20
HETATM   20  O2  UNL     1      37.576  27.670  21.752  1.00  0.00    -0.383 OA
BRANCH  20  21
HETATM   21  C14 UNL     1      36.569  28.350  22.351  1.00  0.00     0.178 C 
BRANCH  21  22
HETATM   22  C15 UNL     1      35.695  27.495  23.184  1.00  0.00     0.137 C 
BRANCH  22  23
HETATM   23  C16 UNL     1      34.328  27.331  22.566  1.00  0.00     0.261 C 
HETATM   24  O3  UNL     1      33.360  28.060  22.867  1.00  0.00    -0.265 OA
BRANCH  23  25
HETATM   25  O4  UNL     1      34.094  26.342  21.623  1.00  0.00    -0.316 OA
BRANCH  25  26
HETATM   26  C17 UNL     1      33.132  26.392  20.609  1.00  0.00     0.132 C 
HETATM   27  C18 UNL     1      32.862  25.072  19.966  1.00  0.00     0.035 C 
HETATM   28  C19 UNL     1      31.640  25.152  19.128  1.00  0.00     0.034 C 
HETATM   29  C20 UNL     1      31.473  26.362  18.305  1.00  0.00     0.118 C 
HETATM   30  C21 UNL     1      32.207  27.583  18.709  1.00  0.00     0.034 C 
HETATM   31  C22 UNL     1      33.467  27.348  19.492  1.00  0.00     0.035 C 
BRANCH  29  32
HETATM   32  O5  UNL     1      30.106  26.679  18.243  1.00  0.00    -0.396 OA
ATOM     33  H5  UNL     1      29.959  27.487  18.721  1.00  0.00     0.210 HD
ENDBRANCH  29  32
ENDBRANCH  25  26
ENDBRANCH  23  25
ENDBRANCH  22  23
ENDBRANCH  21  22
ENDBRANCH  20  21
ENDBRANCH   1  20
BRANCH   1  34
HETATM   34  C23 UNL     1      37.030  26.453  19.825  1.00  0.00     0.182 C 
HETATM   35  O6  UNL     1      37.523  25.431  20.699  1.00  0.00    -0.370 OA
HETATM   36  C24 UNL     1      36.731  24.288  20.550  1.00  0.00     0.177 C 
HETATM   37  C26 UNL     1      36.048  24.176  19.235  1.00  0.00     0.180 C 
HETATM   38  C27 UNL     1      36.766  24.815  18.071  1.00  0.00     0.180 C 
HETATM   39  C28 UNL     1      37.634  25.991  18.488  1.00  0.00     0.180 C 
BRANCH  36  40
HETATM   40  C25 UNL     1      37.521  23.073  20.884  1.00  0.00     0.198 C 
BRANCH  40  41
HETATM   41  O7  UNL     1      38.736  23.022  20.213  1.00  0.00    -0.398 OA
ATOM     42  H7  UNL     1      38.923  22.162  19.857  1.00  0.00     0.209 HD
ENDBRANCH  40  41
ENDBRANCH  36  40
BRANCH  37  43
HETATM   43  O8  UNL     1      35.828  22.845  18.895  1.00  0.00    -0.390 OA
ATOM     44  H8  UNL     1      35.248  22.774  18.146  1.00  0.00     0.210 HD
ENDBRANCH  37  43
BRANCH  38  45
HETATM   45  O9  UNL     1      37.596  23.922  17.395  1.00  0.00    -0.390 OA
ATOM     46  H9  UNL     1      37.850  24.237  16.535  1.00  0.00     0.210 HD
ENDBRANCH  38  45
BRANCH  39  47
HETATM   47  O10 UNL     1      38.926  25.481  18.792  1.00  0.00    -0.390 OA
ATOM     48  H10 UNL     1      39.503  25.798  18.106  1.00  0.00     0.210 HD
ENDBRANCH  39  47
ENDBRANCH   1  34
TORSDOF 21
ENDMDL
MODEL 5
REMARK VINA RESULT: -6.705498234      3.311      4.933
REMARK  21 active torsions:
REMARK  status: ('A' for Active; 'I' for Inactive)
REMARK    1  A    between atoms: C2_2  and  C3_3 
REMARK    2  A    between atoms: C3_3  and  C4_4 
REMARK    3  A    between atoms: C4_4  and  C5_5 
REMARK    4  A    between atoms: C7_8  and  C8_9 
REMARK    5  A    between atoms: C8_9  and  C9_10 
REMARK    6  A    between atoms: C10_11  and  C11_12 
REMARK    7  A    between atoms: C11_12  and  C12_13 
REMARK    8  A    between atoms: C12_13  and  C13_14 
REMARK    9  A    between atoms: C13_14  and  O2_15 
REMARK   10  A    between atoms: C13_14  and  C23_29 
REMARK   11  A    between atoms: O2_15  and  C14_16 
REMARK   12  A    between atoms: C14_16  and  C15_17 
REMARK   13  A    between atoms: C15_17  and  C16_18 
REMARK   14  A    between atoms: C16_18  and  O4_20 
REMARK   15  A    between atoms: O4_20  and  C17_21 
REMARK   16  A    between atoms: C20_24  and  O5_25 
REMARK   17  A    between atoms: C24_31  and  C25_32 
REMARK   18  A    between atoms: C25_32  and  O7_33 
REMARK   19  A    between atoms: C26_35  and  O8_36 
REMARK   20  A    between atoms: C27_38  and  O9_39 
REMARK   21  A    between atoms: C28_41  and  O10_42 
ROOT
HETATM    1  C13 UNL     1      37.442  27.858  20.411  1.00  0.00     0.153 C 
ENDROOT
BRANCH   1   2
HETATM    2  C12 UNL     1      37.600  28.823  19.212  1.00  0.00     0.038 C 
BRANCH   2   3
HETATM    3  C11 UNL     1      36.463  29.740  18.970  1.00  0.00     0.029 C 
BRANCH   3   4
HETATM    4  C10 UNL     1      36.470  30.127  17.510  1.00  0.00    -0.031 C 
HETATM    5  C9  UNL     1      37.088  29.407  16.614  1.00  0.00    -0.030 C 
BRANCH   5   6
HETATM    6  C8  UNL     1      37.106  29.773  15.169  1.00  0.00     0.039 C 
BRANCH   6   7
HETATM    7  C7  UNL     1      36.622  31.176  15.017  1.00  0.00     0.067 C 
HETATM    8  C6  UNL     1      37.633  32.042  14.344  1.00  0.00     0.140 C 
HETATM    9  C5  UNL     1      37.334  33.475  14.178  1.00  0.00     0.084 C 
HETATM   10  O1  UNL     1      38.667  31.571  13.946  1.00  0.00    -0.297 OA
HETATM   11  C32 UNL     1      35.858  33.674  14.018  1.00  0.00    -0.076 C 
HETATM   12  C31 UNL     1      34.997  32.681  14.042  1.00  0.00    -0.019 C 
HETATM   13  C33 UNL     1      35.366  35.064  13.825  1.00  0.00     0.044 C 
HETATM   14  C29 UNL     1      35.352  31.244  14.229  1.00  0.00     0.016 C 
HETATM   15  C30 UNL     1      35.432  30.537  12.902  1.00  0.00     0.015 C 
BRANCH   9  16
HETATM   16  C4  UNL     1      37.801  34.324  15.302  1.00  0.00     0.020 C 
BRANCH  16  17
HETATM   17  C3  UNL     1      38.858  35.330  14.997  1.00  0.00     0.027 C 
BRANCH  17  18
HETATM   18  C2  UNL     1      38.667  36.581  15.739  1.00  0.00    -0.037 C 
HETATM   19  C1  UNL     1      37.517  37.045  16.138  1.00  0.00     0.007 C 
ENDBRANCH  17  18
ENDBRANCH  16  17
ENDBRANCH   9  16
ENDBRANCH   6   7
ENDBRANCH   5   6
ENDBRANCH   3   4
ENDBRANCH   2   3
ENDBRANCH   1   2
BRANCH   1  20
HETATM   20  O2  UNL     1      36.378  28.490  21.133  1.00  0.00    -0.383 OA
BRANCH  20  21
HETATM   21  C14 UNL     1      36.493  28.411  22.480  1.00  0.00     0.178 C 
BRANCH  21  22
HETATM   22  C15 UNL     1      35.338  27.756  23.133  1.00  0.00     0.137 C 
BRANCH  22  23
HETATM   23  C16 UNL     1      34.131  28.662  23.162  1.00  0.00     0.261 C 
HETATM   24  O3  UNL     1      34.017  29.609  23.968  1.00  0.00    -0.265 OA
BRANCH  23  25
HETATM   25  O4  UNL     1      33.084  28.470  22.274  1.00  0.00    -0.316 OA
BRANCH  25  26
HETATM   26  C17 UNL     1      32.962  29.063  21.014  1.00  0.00     0.132 C 
HETATM   27  C18 UNL     1      31.812  30.008  20.899  1.00  0.00     0.035 C 
HETATM   28  C19 UNL     1      31.928  30.807  19.654  1.00  0.00     0.034 C 
HETATM   29  C20 UNL     1      32.351  30.091  18.438  1.00  0.00     0.118 C 
HETATM   30  C21 UNL     1      33.087  28.817  18.604  1.00  0.00     0.034 C 
HETATM   31  C22 UNL     1      32.815  28.077  19.883  1.00  0.00     0.035 C 
BRANCH  29  32
HETATM   32  O5  UNL     1      33.144  30.952  17.662  1.00  0.00    -0.396 OA
ATOM     33  H5  UNL     1      34.030  30.942  18.005  1.00  0.00     0.210 HD
ENDBRANCH  29  32
ENDBRANCH  25  26
ENDBRANCH  23  25
ENDBRANCH  22  23
ENDBRANCH  21  22
ENDBRANCH  20  21
ENDBRANCH   1  20
BRANCH   1  34
HETATM   34  C23 UNL     1      36.935  26.563  19.919  1.00  0.00     0.182 C 
HETATM   35  O6  UNL     1      37.459  25.553  20.790  1.00  0.00    -0.370 OA
HETATM   36  C24 UNL     1      36.693  24.392  20.648  1.00  0.00     0.177 C 
HETATM   37  C26 UNL     1      36.002  24.264  19.339  1.00  0.00     0.180 C 
HETATM   38  C27 UNL     1      36.696  24.918  18.169  1.00  0.00     0.180 C 
HETATM   39  C28 UNL     1      37.539  26.115  18.578  1.00  0.00     0.180 C 
BRANCH  36  40
HETATM   40  C25 UNL     1      37.514  23.197  20.977  1.00  0.00     0.198 C 
BRANCH  40  41
HETATM   41  O7  UNL     1      38.730  23.180  20.305  1.00  0.00    -0.398 OA
ATOM     42  H7  UNL     1      39.401  22.697  20.773  1.00  0.00     0.209 HD
ENDBRANCH  40  41
ENDBRANCH  36  40
BRANCH  37  43
HETATM   43  O8  UNL     1      35.812  22.927  19.001  1.00  0.00    -0.390 OA
ATOM     44  H8  UNL     1      35.351  22.462  19.690  1.00  0.00     0.210 HD
ENDBRANCH  37  43
BRANCH  38  45
HETATM   45  O9  UNL     1      37.541  24.044  17.487  1.00  0.00    -0.390 OA
ATOM     46  H9  UNL     1      37.695  23.236  17.963  1.00  0.00     0.210 HD
ENDBRANCH  38  45
BRANCH  39  47
HETATM   47  O10 UNL     1      38.845  25.636  18.872  1.00  0.00    -0.390 OA
ATOM     48  H10 UNL     1      38.811  24.692  18.767  1.00  0.00     0.210 HD
ENDBRANCH  39  47
ENDBRANCH   1  34
TORSDOF 21
ENDMDL
