MODEL 1
REMARK VINA RESULT: -6.868951741      0.000      0.000
REMARK  20 active torsions:
REMARK  status: ('A' for Active; 'I' for Inactive)
REMARK    1  A    between atoms: C2_2  and  O1_3 
REMARK    2  A    between atoms: O1_3  and  C3_4 
REMARK    3  A    between atoms: C3_4  and  O2_5 
REMARK    4  A    between atoms: O2_5  and  C4_6 
REMARK    5  A    between atoms: C5_8  and  O4_9 
REMARK    6  A    between atoms: C11_17  and  C12_18 
REMARK    7  A    between atoms: C13_19  and  C15_21 
REMARK    8  A    between atoms: C15_21  and  C17_23 
REMARK    9  A    between atoms: C17_23  and  C18_24 
REMARK   10  A    between atoms: C18_24  and  C19_25 
REMARK   11  A    between atoms: C19_25  and  C20_26 
REMARK   12  A    between atoms: C20_26  and  C21_27 
REMARK   13  A    between atoms: C21_27  and  C22_28 
REMARK   14  A    between atoms: C22_28  and  N1_29 
REMARK   15  A    between atoms: C23_33  and  O6_34 
REMARK   16  A    between atoms: C25_37  and  C26_38 
REMARK   17  A    between atoms: C25_37  and  C27_41 
REMARK   18  A    between atoms: C26_38  and  O7_39 
REMARK   19  A    between atoms: C27_41  and  C28_42 
REMARK   20  A    between atoms: C33_48  and  O9_49 
ROOT
HETATM    1  C4  UNL     1      35.098  23.030  19.882  1.00  0.00     0.304 C 
HETATM    2  O3  UNL     1      36.081  22.940  20.806  1.00  0.00    -0.327 OA
HETATM    3  C5  UNL     1      36.462  24.190  21.289  1.00  0.00     0.275 C 
HETATM    4  C6  UNL     1      35.691  25.244  20.491  1.00  0.00     0.091 C 
HETATM    5  C7  UNL     1      36.608  25.445  19.360  1.00  0.00     0.174 A 
HETATM    6  O5  UNL     1      37.863  25.439  19.078  1.00  0.00    -0.368 OA
HETATM    7  C8  UNL     1      37.143  26.620  18.861  1.00  0.00     0.086 A 
HETATM    8  C9  UNL     1      38.423  27.456  18.831  1.00  0.00     0.049 C 
HETATM    9  C10 UNL     1      36.404  27.005  17.622  1.00  0.00     0.052 C 
HETATM   10  C11 UNL     1      35.172  27.928  17.937  1.00  0.00     0.046 C 
HETATM   11  C23 UNL     1      34.252  27.036  18.732  1.00  0.00     0.072 C 
HETATM   12  C24 UNL     1      34.526  27.258  20.061  1.00  0.00     0.056 C 
HETATM   13  C25 UNL     1      35.243  26.462  21.158  1.00  0.00     0.022 C 
HETATM   14  C29 UNL     1      32.751  27.010  18.642  1.00  0.00     0.039 C 
HETATM   15  C30 UNL     1      32.054  27.278  17.390  1.00  0.00     0.017 C 
HETATM   16  C31 UNL     1      32.387  25.685  19.322  1.00  0.00    -0.020 C 
HETATM   17  C32 UNL     1      33.329  24.576  19.463  1.00  0.00     0.013 C 
HETATM   18  C33 UNL     1      34.468  24.377  20.282  1.00  0.00     0.141 C 
ENDROOT
BRANCH  10  19
HETATM   19  C12 UNL     1      34.694  28.521  16.721  1.00  0.00    -0.016 C 
HETATM   20  C13 UNL     1      35.015  29.784  16.329  1.00  0.00    -0.083 C 
HETATM   21  C14 UNL     1      35.900  30.517  17.257  1.00  0.00     0.043 C 
BRANCH  20  22
HETATM   22  C15 UNL     1      34.505  30.351  15.082  1.00  0.00     0.010 C 
HETATM   23  C16 UNL     1      35.122  31.734  14.801  1.00  0.00     0.015 C 
BRANCH  22  24
HETATM   24  C17 UNL     1      33.050  30.524  15.031  1.00  0.00     0.009 C 
BRANCH  24  25
HETATM   25  C18 UNL     1      32.362  31.579  15.773  1.00  0.00     0.001 C 
BRANCH  25  26
HETATM   26  C19 UNL     1      31.631  31.160  17.029  1.00  0.00     0.000 C 
BRANCH  26  27
HETATM   27  C20 UNL     1      32.346  31.716  18.214  1.00  0.00     0.002 C 
BRANCH  27  28
HETATM   28  C21 UNL     1      32.685  30.633  19.209  1.00  0.00     0.027 C 
BRANCH  28  29
HETATM   29  C22 UNL     1      31.497  30.214  20.047  1.00  0.00     0.229 C 
BRANCH  29  30
HETATM   30  N1  UNL     1      32.021  29.461  21.182  1.00  0.00    -0.079 N 
ATOM     31  H13 UNL     1      32.934  29.043  21.000  1.00  0.00     0.274 HD
ATOM     32  H12 UNL     1      32.303  30.055  21.962  1.00  0.00     0.274 HD
ATOM     33  H11 UNL     1      31.310  28.775  21.438  1.00  0.00     0.274 HD
ENDBRANCH  29  30
ENDBRANCH  28  29
ENDBRANCH  27  28
ENDBRANCH  26  27
ENDBRANCH  25  26
ENDBRANCH  24  25
ENDBRANCH  22  24
ENDBRANCH  20  22
ENDBRANCH  10  19
BRANCH  11  34
HETATM   34  O6  UNL     1      34.243  26.104  17.768  1.00  0.00    -0.388 OA
ATOM     35  H6  UNL     1      34.852  25.555  18.247  1.00  0.00     0.210 HD
ENDBRANCH  11  34
BRANCH  13  36
HETATM   36  C26 UNL     1      34.372  26.374  22.385  1.00  0.00     0.178 C 
BRANCH  36  37
HETATM   37  O7  UNL     1      34.987  26.093  23.566  1.00  0.00    -0.400 OA
ATOM     38  H7  UNL     1      34.522  25.531  24.176  1.00  0.00     0.209 HD
ENDBRANCH  36  37
ENDBRANCH  13  36
BRANCH  13  39
HETATM   39  C27 UNL     1      36.317  27.430  21.704  1.00  0.00     0.027 C 
BRANCH  39  40
HETATM   40  C28 UNL     1      36.114  28.818  21.848  1.00  0.00     0.255 C 
HETATM   41  O8  UNL     1      35.823  29.529  22.792  1.00  0.00    -0.303 OA
ENDBRANCH  39  40
ENDBRANCH  13  39
BRANCH   3  42
HETATM   42  O4  UNL     1      37.832  24.169  21.056  1.00  0.00    -0.370 OA
ATOM     43  H4  UNL     1      37.980  25.047  20.725  1.00  0.00     0.212 HD
ENDBRANCH   3  42
BRANCH  18  44
HETATM   44  O9  UNL     1      34.024  23.976  21.577  1.00  0.00    -0.380 OA
ATOM     45  H9  UNL     1      33.567  24.780  21.791  1.00  0.00     0.211 HD
ENDBRANCH  18  44
BRANCH   1  46
HETATM   46  O2  UNL     1      34.186  21.992  20.215  1.00  0.00    -0.334 OA
BRANCH  46  47
HETATM   47  C3  UNL     1      34.559  20.807  19.651  1.00  0.00     0.341 C 
BRANCH  47  48
HETATM   48  O1  UNL     1      35.154  20.950  18.419  1.00  0.00    -0.367 OA
BRANCH  48  49
HETATM   49  C2  UNL     1      34.540  20.329  17.375  1.00  0.00     0.166 C 
HETATM   50  C1  UNL     1      33.209  20.911  17.028  1.00  0.00     0.033 C 
ENDBRANCH  48  49
ENDBRANCH  47  48
ENDBRANCH  46  47
ENDBRANCH   1  46
TORSDOF 20
ENDMDL
MODEL 2
REMARK VINA RESULT: -6.426287912      1.758      2.632
REMARK  20 active torsions:
REMARK  status: ('A' for Active; 'I' for Inactive)
REMARK    1  A    between atoms: C2_2  and  O1_3 
REMARK    2  A    between atoms: O1_3  and  C3_4 
REMARK    3  A    between atoms: C3_4  and  O2_5 
REMARK    4  A    between atoms: O2_5  and  C4_6 
REMARK    5  A    between atoms: C5_8  and  O4_9 
REMARK    6  A    between atoms: C11_17  and  C12_18 
REMARK    7  A    between atoms: C13_19  and  C15_21 
REMARK    8  A    between atoms: C15_21  and  C17_23 
REMARK    9  A    between atoms: C17_23  and  C18_24 
REMARK   10  A    between atoms: C18_24  and  C19_25 
REMARK   11  A    between atoms: C19_25  and  C20_26 
REMARK   12  A    between atoms: C20_26  and  C21_27 
REMARK   13  A    between atoms: C21_27  and  C22_28 
REMARK   14  A    between atoms: C22_28  and  N1_29 
REMARK   15  A    between atoms: C23_33  and  O6_34 
REMARK   16  A    between atoms: C25_37  and  C26_38 
REMARK   17  A    between atoms: C25_37  and  C27_41 
REMARK   18  A    between atoms: C26_38  and  O7_39 
REMARK   19  A    between atoms: C27_41  and  C28_42 
REMARK   20  A    between atoms: C33_48  and  O9_49 
ROOT
HETATM    1  C4  UNL     1      35.473  23.292  19.002  1.00  0.00     0.304 C 
HETATM    2  O3  UNL     1      36.663  23.087  19.609  1.00  0.00    -0.327 OA
HETATM    3  C5  UNL     1      37.095  24.211  20.310  1.00  0.00     0.275 C 
HETATM    4  C6  UNL     1      36.095  25.336  20.032  1.00  0.00     0.091 C 
HETATM    5  C7  UNL     1      36.682  25.917  18.815  1.00  0.00     0.174 A 
HETATM    6  O5  UNL     1      37.821  26.125  18.256  1.00  0.00    -0.368 OA
HETATM    7  C8  UNL     1      37.014  27.233  18.543  1.00  0.00     0.086 A 
HETATM    8  C9  UNL     1      38.202  28.190  18.441  1.00  0.00     0.049 C 
HETATM    9  C10 UNL     1      35.965  27.828  17.663  1.00  0.00     0.052 C 
HETATM   10  C11 UNL     1      34.812  28.496  18.496  1.00  0.00     0.046 C 
HETATM   11  C23 UNL     1      34.170  27.335  19.213  1.00  0.00     0.072 C 
HETATM   12  C24 UNL     1      34.764  27.246  20.449  1.00  0.00     0.056 C 
HETATM   13  C25 UNL     1      35.776  26.288  21.089  1.00  0.00     0.022 C 
HETATM   14  C29 UNL     1      32.699  27.161  19.473  1.00  0.00     0.039 C 
HETATM   15  C30 UNL     1      31.693  27.653  18.540  1.00  0.00     0.017 C 
HETATM   16  C31 UNL     1      32.585  25.675  19.834  1.00  0.00    -0.020 C 
HETATM   17  C32 UNL     1      33.584  24.681  19.444  1.00  0.00     0.013 C 
HETATM   18  C33 UNL     1      34.903  24.415  19.888  1.00  0.00     0.141 C 
ENDROOT
BRANCH  10  19
HETATM   19  C12 UNL     1      34.010  29.316  17.634  1.00  0.00    -0.016 C 
HETATM   20  C13 UNL     1      33.490  30.515  18.015  1.00  0.00    -0.083 C 
HETATM   21  C14 UNL     1      33.808  30.920  19.399  1.00  0.00     0.043 C 
BRANCH  20  22
HETATM   22  C15 UNL     1      32.677  31.320  17.104  1.00  0.00     0.010 C 
HETATM   23  C16 UNL     1      31.320  31.682  17.736  1.00  0.00     0.015 C 
BRANCH  22  24
HETATM   24  C17 UNL     1      32.383  30.687  15.815  1.00  0.00     0.009 C 
BRANCH  24  25
HETATM   25  C18 UNL     1      32.898  31.210  14.551  1.00  0.00     0.001 C 
BRANCH  25  26
HETATM   26  C19 UNL     1      34.213  31.955  14.610  1.00  0.00     0.000 C 
BRANCH  26  27
HETATM   27  C20 UNL     1      35.328  30.965  14.650  1.00  0.00     0.002 C 
BRANCH  27  28
HETATM   28  C21 UNL     1      36.488  31.479  15.467  1.00  0.00     0.027 C 
BRANCH  28  29
HETATM   29  C22 UNL     1      37.330  32.490  14.719  1.00  0.00     0.229 C 
BRANCH  29  30
HETATM   30  N1  UNL     1      37.626  33.573  15.653  1.00  0.00    -0.079 N 
ATOM     31  H13 UNL     1      37.162  33.462  16.555  1.00  0.00     0.274 HD
ATOM     32  H12 UNL     1      38.586  33.553  15.998  1.00  0.00     0.274 HD
ATOM     33  H11 UNL     1      37.387  34.446  15.183  1.00  0.00     0.274 HD
ENDBRANCH  29  30
ENDBRANCH  28  29
ENDBRANCH  27  28
ENDBRANCH  26  27
ENDBRANCH  25  26
ENDBRANCH  24  25
ENDBRANCH  22  24
ENDBRANCH  20  22
ENDBRANCH  10  19
BRANCH  11  34
HETATM   34  O6  UNL     1      33.959  26.679  18.062  1.00  0.00    -0.388 OA
ATOM     35  H6  UNL     1      33.456  26.003  18.500  1.00  0.00     0.210 HD
ENDBRANCH  11  34
BRANCH  13  36
HETATM   36  C26 UNL     1      35.253  25.797  22.415  1.00  0.00     0.178 C 
BRANCH  36  37
HETATM   37  O7  UNL     1      33.973  26.128  22.740  1.00  0.00    -0.400 OA
ATOM     38  H7  UNL     1      33.557  25.625  23.431  1.00  0.00     0.209 HD
ENDBRANCH  36  37
ENDBRANCH  13  36
BRANCH  13  39
HETATM   39  C27 UNL     1      36.906  27.205  21.609  1.00  0.00     0.027 C 
BRANCH  39  40
HETATM   40  C28 UNL     1      36.747  28.107  22.682  1.00  0.00     0.255 C 
HETATM   41  O8  UNL     1      36.428  29.279  22.751  1.00  0.00    -0.303 OA
ENDBRANCH  39  40
ENDBRANCH  13  39
BRANCH   3  42
HETATM   42  O4  UNL     1      38.359  24.405  19.766  1.00  0.00    -0.370 OA
ATOM     43  H4  UNL     1      38.828  24.772  20.506  1.00  0.00     0.212 HD
ENDBRANCH   3  42
BRANCH  18  44
HETATM   44  O9  UNL     1      34.825  23.655  21.092  1.00  0.00    -0.380 OA
ATOM     45  H9  UNL     1      34.795  24.393  21.688  1.00  0.00     0.211 HD
ENDBRANCH  18  44
BRANCH   1  46
HETATM   46  O2  UNL     1      34.727  22.107  19.245  1.00  0.00    -0.334 OA
BRANCH  46  47
HETATM   47  C3  UNL     1      34.484  21.430  18.086  1.00  0.00     0.341 C 
BRANCH  47  48
HETATM   48  O1  UNL     1      35.596  20.802  17.574  1.00  0.00    -0.367 OA
BRANCH  48  49
HETATM   49  C2  UNL     1      35.657  20.689  16.219  1.00  0.00     0.166 C 
HETATM   50  C1  UNL     1      34.974  21.800  15.492  1.00  0.00     0.033 C 
ENDBRANCH  48  49
ENDBRANCH  47  48
ENDBRANCH  46  47
ENDBRANCH   1  46
TORSDOF 20
ENDMDL
MODEL 3
REMARK VINA RESULT: -6.304572009      1.769      2.708
REMARK  20 active torsions:
REMARK  status: ('A' for Active; 'I' for Inactive)
REMARK    1  A    between atoms: C2_2  and  O1_3 
REMARK    2  A    between atoms: O1_3  and  C3_4 
REMARK    3  A    between atoms: C3_4  and  O2_5 
REMARK    4  A    between atoms: O2_5  and  C4_6 
REMARK    5  A    between atoms: C5_8  and  O4_9 
REMARK    6  A    between atoms: C11_17  and  C12_18 
REMARK    7  A    between atoms: C13_19  and  C15_21 
REMARK    8  A    between atoms: C15_21  and  C17_23 
REMARK    9  A    between atoms: C17_23  and  C18_24 
REMARK   10  A    between atoms: C18_24  and  C19_25 
REMARK   11  A    between atoms: C19_25  and  C20_26 
REMARK   12  A    between atoms: C20_26  and  C21_27 
REMARK   13  A    between atoms: C21_27  and  C22_28 
REMARK   14  A    between atoms: C22_28  and  N1_29 
REMARK   15  A    between atoms: C23_33  and  O6_34 
REMARK   16  A    between atoms: C25_37  and  C26_38 
REMARK   17  A    between atoms: C25_37  and  C27_41 
REMARK   18  A    between atoms: C26_38  and  O7_39 
REMARK   19  A    between atoms: C27_41  and  C28_42 
REMARK   20  A    between atoms: C33_48  and  O9_49 
ROOT
HETATM    1  C4  UNL     1      36.077  23.615  18.513  1.00  0.00     0.304 C 
HETATM    2  O3  UNL     1      37.325  23.725  19.019  1.00  0.00    -0.327 OA
HETATM    3  C5  UNL     1      37.483  24.881  19.780  1.00  0.00     0.275 C 
HETATM    4  C6  UNL     1      36.185  25.685  19.665  1.00  0.00     0.091 C 
HETATM    5  C7  UNL     1      36.473  26.482  18.463  1.00  0.00     0.174 A 
HETATM    6  O5  UNL     1      37.452  27.044  17.848  1.00  0.00    -0.368 OA
HETATM    7  C8  UNL     1      36.393  27.852  18.280  1.00  0.00     0.086 A 
HETATM    8  C9  UNL     1      37.249  29.116  18.178  1.00  0.00     0.049 C 
HETATM    9  C10 UNL     1      35.145  28.172  17.527  1.00  0.00     0.052 C 
HETATM   10  C11 UNL     1      33.929  28.427  18.489  1.00  0.00     0.046 C 
HETATM   11  C23 UNL     1      33.708  27.089  19.148  1.00  0.00     0.072 C 
HETATM   12  C24 UNL     1      34.411  27.101  20.330  1.00  0.00     0.056 C 
HETATM   13  C25 UNL     1      35.705  26.439  20.818  1.00  0.00     0.022 C 
HETATM   14  C29 UNL     1      32.376  26.483  19.493  1.00  0.00     0.039 C 
HETATM   15  C30 UNL     1      31.192  26.719  18.674  1.00  0.00     0.017 C 
HETATM   16  C31 UNL     1      32.719  25.008  19.735  1.00  0.00    -0.020 C 
HETATM   17  C32 UNL     1      33.919  24.370  19.197  1.00  0.00     0.013 C 
HETATM   18  C33 UNL     1      35.294  24.470  19.527  1.00  0.00     0.141 C 
ENDROOT
BRANCH  10  19
HETATM   19  C12 UNL     1      32.855  29.031  17.754  1.00  0.00    -0.016 C 
HETATM   20  C13 UNL     1      32.382  30.281  18.015  1.00  0.00    -0.083 C 
HETATM   21  C14 UNL     1      33.057  30.983  19.125  1.00  0.00     0.043 C 
BRANCH  20  22
HETATM   22  C15 UNL     1      31.284  30.860  17.243  1.00  0.00     0.010 C 
HETATM   23  C16 UNL     1      30.771  29.877  16.173  1.00  0.00     0.015 C 
BRANCH  22  24
HETATM   24  C17 UNL     1      31.610  32.106  16.543  1.00  0.00     0.009 C 
BRANCH  24  25
HETATM   25  C18 UNL     1      31.959  32.139  15.124  1.00  0.00     0.001 C 
BRANCH  25  26
HETATM   26  C19 UNL     1      33.407  32.412  14.786  1.00  0.00     0.000 C 
BRANCH  26  27
HETATM   27  C20 UNL     1      34.173  31.135  14.870  1.00  0.00     0.002 C 
BRANCH  27  28
HETATM   28  C21 UNL     1      35.353  31.263  15.802  1.00  0.00     0.027 C 
BRANCH  28  29
HETATM   29  C22 UNL     1      36.661  31.463  15.068  1.00  0.00     0.229 C 
BRANCH  29  30
HETATM   30  N1  UNL     1      37.190  32.759  15.483  1.00  0.00    -0.079 N 
ATOM     31  H13 UNL     1      36.614  33.543  15.178  1.00  0.00     0.274 HD
ATOM     32  H12 UNL     1      37.110  32.921  16.487  1.00  0.00     0.274 HD
ATOM     33  H11 UNL     1      38.151  32.811  15.143  1.00  0.00     0.274 HD
ENDBRANCH  29  30
ENDBRANCH  28  29
ENDBRANCH  27  28
ENDBRANCH  26  27
ENDBRANCH  25  26
ENDBRANCH  24  25
ENDBRANCH  22  24
ENDBRANCH  20  22
ENDBRANCH  10  19
BRANCH  11  34
HETATM   34  O6  UNL     1      33.589  26.471  17.964  1.00  0.00    -0.388 OA
ATOM     35  H6  UNL     1      32.652  26.369  18.072  1.00  0.00     0.210 HD
ENDBRANCH  11  34
BRANCH  13  36
HETATM   36  C26 UNL     1      35.463  25.739  22.130  1.00  0.00     0.178 C 
BRANCH  36  37
HETATM   37  O7  UNL     1      34.188  25.735  22.607  1.00  0.00    -0.400 OA
ATOM     38  H7  UNL     1      33.735  24.899  22.633  1.00  0.00     0.209 HD
ENDBRANCH  36  37
ENDBRANCH  13  36
BRANCH  13  39
HETATM   39  C27 UNL     1      36.572  27.609  21.334  1.00  0.00     0.027 C 
BRANCH  39  40
HETATM   40  C28 UNL     1      36.297  28.317  22.523  1.00  0.00     0.255 C 
HETATM   41  O8  UNL     1      36.045  29.483  22.764  1.00  0.00    -0.303 OA
ENDBRANCH  39  40
ENDBRANCH  13  39
BRANCH   3  42
HETATM   42  O4  UNL     1      38.586  25.464  19.169  1.00  0.00    -0.370 OA
ATOM     43  H4  UNL     1      39.280  25.238  19.777  1.00  0.00     0.212 HD
ENDBRANCH   3  42
BRANCH  18  44
HETATM   44  O9  UNL     1      35.541  23.648  20.665  1.00  0.00    -0.380 OA
ATOM     45  H9  UNL     1      36.203  23.097  20.263  1.00  0.00     0.211 HD
ENDBRANCH  18  44
BRANCH   1  46
HETATM   46  O2  UNL     1      35.721  22.252  18.707  1.00  0.00    -0.334 OA
BRANCH  46  47
HETATM   47  C3  UNL     1      35.680  21.579  17.521  1.00  0.00     0.341 C 
BRANCH  47  48
HETATM   48  O1  UNL     1      34.956  20.411  17.578  1.00  0.00    -0.367 OA
BRANCH  48  49
HETATM   49  C2  UNL     1      33.818  20.441  18.324  1.00  0.00     0.166 C 
HETATM   50  C1  UNL     1      33.765  19.389  19.383  1.00  0.00     0.033 C 
ENDBRANCH  48  49
ENDBRANCH  47  48
ENDBRANCH  46  47
ENDBRANCH   1  46
TORSDOF 20
ENDMDL
MODEL 4
REMARK VINA RESULT: -6.301304300      1.931      2.801
REMARK  20 active torsions:
REMARK  status: ('A' for Active; 'I' for Inactive)
REMARK    1  A    between atoms: C2_2  and  O1_3 
REMARK    2  A    between atoms: O1_3  and  C3_4 
REMARK    3  A    between atoms: C3_4  and  O2_5 
REMARK    4  A    between atoms: O2_5  and  C4_6 
REMARK    5  A    between atoms: C5_8  and  O4_9 
REMARK    6  A    between atoms: C11_17  and  C12_18 
REMARK    7  A    between atoms: C13_19  and  C15_21 
REMARK    8  A    between atoms: C15_21  and  C17_23 
REMARK    9  A    between atoms: C17_23  and  C18_24 
REMARK   10  A    between atoms: C18_24  and  C19_25 
REMARK   11  A    between atoms: C19_25  and  C20_26 
REMARK   12  A    between atoms: C20_26  and  C21_27 
REMARK   13  A    between atoms: C21_27  and  C22_28 
REMARK   14  A    between atoms: C22_28  and  N1_29 
REMARK   15  A    between atoms: C23_33  and  O6_34 
REMARK   16  A    between atoms: C25_37  and  C26_38 
REMARK   17  A    between atoms: C25_37  and  C27_41 
REMARK   18  A    between atoms: C26_38  and  O7_39 
REMARK   19  A    between atoms: C27_41  and  C28_42 
REMARK   20  A    between atoms: C33_48  and  O9_49 
ROOT
HETATM    1  C4  UNL     1      35.105  23.340  19.206  1.00  0.00     0.304 C 
HETATM    2  O3  UNL     1      36.219  23.265  19.968  1.00  0.00    -0.327 OA
HETATM    3  C5  UNL     1      36.514  24.480  20.585  1.00  0.00     0.275 C 
HETATM    4  C6  UNL     1      35.509  25.512  20.068  1.00  0.00     0.091 C 
HETATM    5  C7  UNL     1      36.215  25.993  18.870  1.00  0.00     0.174 A 
HETATM    6  O5  UNL     1      37.404  26.204  18.429  1.00  0.00    -0.368 OA
HETATM    7  C8  UNL     1      36.521  27.289  18.495  1.00  0.00     0.086 A 
HETATM    8  C9  UNL     1      37.672  28.295  18.427  1.00  0.00     0.049 C 
HETATM    9  C10 UNL     1      35.564  27.729  17.437  1.00  0.00     0.052 C 
HETATM   10  C11 UNL     1      34.290  28.416  18.049  1.00  0.00     0.046 C 
HETATM   11  C23 UNL     1      33.615  27.303  18.811  1.00  0.00     0.072 C 
HETATM   12  C24 UNL     1      34.057  27.379  20.111  1.00  0.00     0.056 C 
HETATM   13  C25 UNL     1      35.022  26.551  20.968  1.00  0.00     0.022 C 
HETATM   14  C29 UNL     1      32.132  27.077  18.915  1.00  0.00     0.039 C 
HETATM   15  C30 UNL     1      31.228  27.410  17.821  1.00  0.00     0.017 C 
HETATM   16  C31 UNL     1      32.038  25.633  19.423  1.00  0.00    -0.020 C 
HETATM   17  C32 UNL     1      33.118  24.660  19.266  1.00  0.00     0.013 C 
HETATM   18  C33 UNL     1      34.383  24.516  19.889  1.00  0.00     0.141 C 
ENDROOT
BRANCH  10  19
HETATM   19  C12 UNL     1      33.566  29.095  17.013  1.00  0.00    -0.016 C 
HETATM   20  C13 UNL     1      33.112  30.372  17.133  1.00  0.00    -0.083 C 
HETATM   21  C14 UNL     1      33.415  31.022  18.424  1.00  0.00     0.043 C 
BRANCH  20  22
HETATM   22  C15 UNL     1      32.377  31.027  16.052  1.00  0.00     0.010 C 
HETATM   23  C16 UNL     1      31.744  29.997  15.099  1.00  0.00     0.015 C 
BRANCH  22  24
HETATM   24  C17 UNL     1      33.176  31.931  15.220  1.00  0.00     0.009 C 
BRANCH  24  25
HETATM   25  C18 UNL     1      34.343  31.474  14.467  1.00  0.00     0.001 C 
BRANCH  25  26
HETATM   26  C19 UNL     1      35.678  32.066  14.858  1.00  0.00     0.000 C 
BRANCH  26  27
HETATM   27  C20 UNL     1      36.383  31.115  15.765  1.00  0.00     0.002 C 
BRANCH  27  28
HETATM   28  C21 UNL     1      37.121  30.056  14.984  1.00  0.00     0.027 C 
BRANCH  28  29
HETATM   29  C22 UNL     1      37.915  30.626  13.828  1.00  0.00     0.229 C 
BRANCH  29  30
HETATM   30  N1  UNL     1      38.714  29.534  13.280  1.00  0.00    -0.079 N 
ATOM     31  H13 UNL     1      39.494  29.267  13.881  1.00  0.00     0.274 HD
ATOM     32  H12 UNL     1      38.228  28.638  13.291  1.00  0.00     0.274 HD
ATOM     33  H11 UNL     1      39.007  29.820  12.345  1.00  0.00     0.274 HD
ENDBRANCH  29  30
ENDBRANCH  28  29
ENDBRANCH  27  28
ENDBRANCH  26  27
ENDBRANCH  25  26
ENDBRANCH  24  25
ENDBRANCH  22  24
ENDBRANCH  20  22
ENDBRANCH  10  19
BRANCH  11  34
HETATM   34  O6  UNL     1      33.575  26.519  17.723  1.00  0.00    -0.388 OA
ATOM     35  H6  UNL     1      34.088  25.844  18.150  1.00  0.00     0.210 HD
ENDBRANCH  11  34
BRANCH  13  36
HETATM   36  C26 UNL     1      34.362  26.175  22.269  1.00  0.00     0.178 C 
BRANCH  36  37
HETATM   37  O7  UNL     1      35.178  25.905  23.325  1.00  0.00    -0.400 OA
ATOM     38  H7  UNL     1      34.928  26.262  24.170  1.00  0.00     0.209 HD
ENDBRANCH  36  37
ENDBRANCH  13  36
BRANCH  13  39
HETATM   39  C27 UNL     1      36.040  27.579  21.511  1.00  0.00     0.027 C 
BRANCH  39  40
HETATM   40  C28 UNL     1      35.717  28.923  21.791  1.00  0.00     0.255 C 
HETATM   41  O8  UNL     1      35.832  29.625  22.778  1.00  0.00    -0.303 OA
ENDBRANCH  39  40
ENDBRANCH  13  39
BRANCH   3  42
HETATM   42  O4  UNL     1      37.825  24.685  20.174  1.00  0.00    -0.370 OA
ATOM     43  H4  UNL     1      37.886  25.632  20.206  1.00  0.00     0.212 HD
ENDBRANCH   3  42
BRANCH  18  44
HETATM   44  O9  UNL     1      34.190  23.884  21.152  1.00  0.00    -0.380 OA
ATOM     45  H9  UNL     1      34.025  24.676  21.649  1.00  0.00     0.211 HD
ENDBRANCH  18  44
BRANCH   1  46
HETATM   46  O2  UNL     1      34.386  22.147  19.491  1.00  0.00    -0.334 OA
BRANCH  46  47
HETATM   47  C3  UNL     1      34.226  21.387  18.369  1.00  0.00     0.341 C 
BRANCH  47  48
HETATM   48  O1  UNL     1      35.412  20.924  17.847  1.00  0.00    -0.367 OA
BRANCH  48  49
HETATM   49  C2  UNL     1      35.440  20.715  16.503  1.00  0.00     0.166 C 
HETATM   50  C1  UNL     1      35.221  21.952  15.697  1.00  0.00     0.033 C 
ENDBRANCH  48  49
ENDBRANCH  47  48
ENDBRANCH  46  47
ENDBRANCH   1  46
TORSDOF 20
ENDMDL
MODEL 5
REMARK VINA RESULT: -6.275857524      2.131      4.024
REMARK  20 active torsions:
REMARK  status: ('A' for Active; 'I' for Inactive)
REMARK    1  A    between atoms: C2_2  and  O1_3 
REMARK    2  A    between atoms: O1_3  and  C3_4 
REMARK    3  A    between atoms: C3_4  and  O2_5 
REMARK    4  A    between atoms: O2_5  and  C4_6 
REMARK    5  A    between atoms: C5_8  and  O4_9 
REMARK    6  A    between atoms: C11_17  and  C12_18 
REMARK    7  A    between atoms: C13_19  and  C15_21 
REMARK    8  A    between atoms: C15_21  and  C17_23 
REMARK    9  A    between atoms: C17_23  and  C18_24 
REMARK   10  A    between atoms: C18_24  and  C19_25 
REMARK   11  A    between atoms: C19_25  and  C20_26 
REMARK   12  A    between atoms: C20_26  and  C21_27 
REMARK   13  A    between atoms: C21_27  and  C22_28 
REMARK   14  A    between atoms: C22_28  and  N1_29 
REMARK   15  A    between atoms: C23_33  and  O6_34 
REMARK   16  A    between atoms: C25_37  and  C26_38 
REMARK   17  A    between atoms: C25_37  and  C27_41 
REMARK   18  A    between atoms: C26_38  and  O7_39 
REMARK   19  A    between atoms: C27_41  and  C28_42 
REMARK   20  A    between atoms: C33_48  and  O9_49 
ROOT
HETATM    1  C4  UNL     1      36.253  24.544  20.602  1.00  0.00     0.304 C 
HETATM    2  O3  UNL     1      37.315  24.317  19.796  1.00  0.00    -0.327 OA
HETATM    3  C5  UNL     1      37.604  25.415  18.989  1.00  0.00     0.275 C 
HETATM    4  C6  UNL     1      36.514  26.462  19.232  1.00  0.00     0.091 C 
HETATM    5  C7  UNL     1      35.517  26.041  18.236  1.00  0.00     0.174 A 
HETATM    6  O5  UNL     1      35.433  25.510  17.068  1.00  0.00    -0.368 OA
HETATM    7  C8  UNL     1      34.891  26.788  17.253  1.00  0.00     0.086 A 
HETATM    8  C9  UNL     1      34.896  27.063  15.748  1.00  0.00     0.049 C 
HETATM    9  C10 UNL     1      33.504  27.117  17.698  1.00  0.00     0.052 C 
HETATM   10  C11 UNL     1      33.449  28.474  18.488  1.00  0.00     0.046 C 
HETATM   11  C23 UNL     1      34.251  28.195  19.735  1.00  0.00     0.072 C 
HETATM   12  C24 UNL     1      35.540  28.603  19.484  1.00  0.00     0.056 C 
HETATM   13  C25 UNL     1      36.863  27.878  19.210  1.00  0.00     0.022 C 
HETATM   14  C29 UNL     1      33.943  28.701  21.116  1.00  0.00     0.039 C 
HETATM   15  C30 UNL     1      32.572  28.907  21.568  1.00  0.00     0.017 C 
HETATM   16  C31 UNL     1      34.799  27.800  22.014  1.00  0.00    -0.020 C 
HETATM   17  C32 UNL     1      35.288  26.488  21.593  1.00  0.00     0.013 C 
HETATM   18  C33 UNL     1      36.292  26.082  20.679  1.00  0.00     0.141 C 
ENDROOT
BRANCH  10  19
HETATM   19  C12 UNL     1      32.085  28.900  18.615  1.00  0.00    -0.016 C 
HETATM   20  C13 UNL     1      31.633  30.100  18.159  1.00  0.00    -0.083 C 
HETATM   21  C14 UNL     1      32.657  30.949  17.519  1.00  0.00     0.043 C 
BRANCH  20  22
HETATM   22  C15 UNL     1      30.234  30.497  18.309  1.00  0.00     0.010 C 
HETATM   23  C16 UNL     1      29.848  30.644  19.793  1.00  0.00     0.015 C 
BRANCH  22  24
HETATM   24  C17 UNL     1      29.262  29.574  17.715  1.00  0.00     0.009 C 
BRANCH  24  25
HETATM   25  C18 UNL     1      29.275  29.234  16.292  1.00  0.00     0.001 C 
BRANCH  25  26
HETATM   26  C19 UNL     1      29.699  27.827  15.934  1.00  0.00     0.000 C 
BRANCH  26  27
HETATM   27  C20 UNL     1      29.302  26.905  17.038  1.00  0.00     0.002 C 
BRANCH  27  28
HETATM   28  C21 UNL     1      30.245  25.732  17.139  1.00  0.00     0.027 C 
BRANCH  28  29
HETATM   29  C22 UNL     1      30.299  25.141  18.531  1.00  0.00     0.229 C 
BRANCH  29  30
HETATM   30  N1  UNL     1      28.989  25.361  19.138  1.00  0.00    -0.079 N 
ATOM     31  H13 UNL     1      28.403  26.004  18.605  1.00  0.00     0.274 HD
ATOM     32  H12 UNL     1      28.378  24.547  19.077  1.00  0.00     0.274 HD
ATOM     33  H11 UNL     1      29.153  25.669  20.097  1.00  0.00     0.274 HD
ENDBRANCH  29  30
ENDBRANCH  28  29
ENDBRANCH  27  28
ENDBRANCH  26  27
ENDBRANCH  25  26
ENDBRANCH  24  25
ENDBRANCH  22  24
ENDBRANCH  20  22
ENDBRANCH  10  19
BRANCH  11  34
HETATM   34  O6  UNL     1      33.491  27.133  20.044  1.00  0.00    -0.388 OA
ATOM     35  H6  UNL     1      33.299  26.962  19.130  1.00  0.00     0.210 HD
ENDBRANCH  11  34
BRANCH  13  36
HETATM   36  C26 UNL     1      37.939  28.404  20.124  1.00  0.00     0.178 C 
BRANCH  36  37
HETATM   37  O7  UNL     1      39.222  28.046  19.847  1.00  0.00    -0.400 OA
ATOM     38  H7  UNL     1      39.528  27.216  20.198  1.00  0.00     0.209 HD
ENDBRANCH  36  37
ENDBRANCH  13  36
BRANCH  13  39
HETATM   39  C27 UNL     1      37.371  28.482  17.881  1.00  0.00     0.027 C 
BRANCH  39  40
HETATM   40  C28 UNL     1      36.880  29.686  17.334  1.00  0.00     0.255 C 
HETATM   41  O8  UNL     1      36.735  30.092  16.196  1.00  0.00    -0.303 OA
ENDBRANCH  39  40
ENDBRANCH  13  39
BRANCH   3  42
HETATM   42  O4  UNL     1      37.589  24.838  17.724  1.00  0.00    -0.370 OA
ATOM     43  H4  UNL     1      37.808  25.582  17.176  1.00  0.00     0.212 HD
ENDBRANCH   3  42
BRANCH  18  44
HETATM   44  O9  UNL     1      37.557  26.185  21.330  1.00  0.00    -0.380 OA
ATOM     45  H9  UNL     1      37.779  27.048  21.003  1.00  0.00     0.211 HD
ENDBRANCH  18  44
BRANCH   1  46
HETATM   46  O2  UNL     1      36.636  24.022  21.868  1.00  0.00    -0.334 OA
BRANCH  46  47
HETATM   47  C3  UNL     1      36.419  22.677  21.933  1.00  0.00     0.341 C 
BRANCH  47  48
HETATM   48  O1  UNL     1      35.113  22.319  21.687  1.00  0.00    -0.367 OA
BRANCH  48  49
HETATM   49  C2  UNL     1      34.899  21.026  21.321  1.00  0.00     0.166 C 
HETATM   50  C1  UNL     1      34.508  20.863  19.889  1.00  0.00     0.033 C 
ENDBRANCH  48  49
ENDBRANCH  47  48
ENDBRANCH  46  47
ENDBRANCH   1  46
TORSDOF 20
ENDMDL
