MODEL 1
REMARK VINA RESULT: -5.999480561      0.000      0.000
REMARK  20 active torsions:
REMARK  status: ('A' for Active; 'I' for Inactive)
REMARK    1  A    between atoms: C2_2  and  C3_3 
REMARK    2  A    between atoms: C3_3  and  C4_4 
REMARK    3  A    between atoms: C4_4  and  C5_5 
REMARK    4  A    between atoms: C5_5  and  C6_6 
REMARK    5  A    between atoms: C6_6  and  C7_7 
REMARK    6  A    between atoms: C7_7  and  C8_8 
REMARK    7  A    between atoms: C8_8  and  C9_9 
REMARK    8  A    between atoms: C9_9  and  C10_10 
REMARK    9  A    between atoms: C10_10  and  C11_11 
REMARK   10  A    between atoms: C11_11  and  C12_12 
REMARK   11  A    between atoms: C12_12  and  O2_14 
REMARK   12  A    between atoms: O2_14  and  C13_15 
REMARK   13  A    between atoms: C15_17  and  O3_18 
REMARK   14  A    between atoms: C20_25  and  O4_26 
REMARK   15  A    between atoms: O4_26  and  C21_27 
REMARK   16  A    between atoms: C22_29  and  C23_30 
REMARK   17  A    between atoms: C23_30  and  O6_31 
REMARK   18  A    between atoms: C24_33  and  O7_34 
REMARK   19  A    between atoms: C25_36  and  O8_37 
REMARK   20  A    between atoms: C26_39  and  O9_40 
ROOT
HETATM    1  C13 UNL     1      33.568  25.511  15.953  1.00  0.00     0.141 C 
HETATM    2  C14 UNL     1      33.756  24.232  15.098  1.00  0.00     0.066 C 
HETATM    3  C15 UNL     1      35.187  23.775  15.130  1.00  0.00     0.138 C 
HETATM    4  C16 UNL     1      35.548  23.423  16.581  1.00  0.00     0.149 C 
HETATM    5  N1  UNL     1      35.421  24.543  17.441  1.00  0.00    -0.403 N 
HETATM    6  C17 UNL     1      36.683  24.898  17.955  1.00  0.00     0.144 C 
HETATM    7  C18 UNL     1      34.254  24.645  18.218  1.00  0.00     0.057 C 
HETATM    8  C19 UNL     1      33.957  23.216  18.731  1.00  0.00     0.041 C 
HETATM    9  C20 UNL     1      34.337  25.477  19.441  1.00  0.00     0.152 C 
HETATM   10  C27 UNL     1      34.044  26.942  19.231  1.00  0.00     0.035 C 
HETATM   11  C28 UNL     1      32.628  27.070  18.811  1.00  0.00     0.012 C 
HETATM   12  C29 UNL     1      32.101  25.962  17.977  1.00  0.00    -0.039 C 
HETATM   13  C30 UNL     1      31.154  25.117  18.847  1.00  0.00     0.015 C 
HETATM   14  C31 UNL     1      31.198  26.606  16.940  1.00  0.00     0.015 C 
HETATM   15  C32 UNL     1      33.111  25.080  17.330  1.00  0.00     0.053 C 
ENDROOT
BRANCH   9  16
HETATM   16  O4  UNL     1      35.493  25.405  20.186  1.00  0.00    -0.351 OA
BRANCH  16  17
HETATM   17  C21 UNL     1      35.787  26.517  20.942  1.00  0.00     0.292 C 
HETATM   18  O5  UNL     1      37.153  26.855  20.861  1.00  0.00    -0.348 OA
HETATM   19  C22 UNL     1      37.265  28.193  21.224  1.00  0.00     0.179 C 
HETATM   20  C24 UNL     1      36.426  28.572  22.411  1.00  0.00     0.180 C 
HETATM   21  C25 UNL     1      35.927  27.419  23.217  1.00  0.00     0.183 C 
HETATM   22  C26 UNL     1      35.531  26.214  22.391  1.00  0.00     0.204 C 
BRANCH  19  23
HETATM   23  C23 UNL     1      38.704  28.615  21.404  1.00  0.00     0.198 C 
BRANCH  23  24
HETATM   24  O6  UNL     1      39.064  28.609  22.757  1.00  0.00    -0.398 OA
ATOM     25  H6  UNL     1      40.002  28.500  22.860  1.00  0.00     0.209 HD
ENDBRANCH  23  24
ENDBRANCH  19  23
BRANCH  20  26
HETATM   26  O7  UNL     1      35.376  29.447  22.047  1.00  0.00    -0.390 OA
ATOM     27  H7  UNL     1      34.700  29.477  22.714  1.00  0.00     0.210 HD
ENDBRANCH  20  26
BRANCH  21  28
HETATM   28  O8  UNL     1      34.761  27.847  23.878  1.00  0.00    -0.390 OA
ATOM     29  H8  UNL     1      34.407  28.576  23.380  1.00  0.00     0.210 HD
ENDBRANCH  21  28
BRANCH  22  30
HETATM   30  O9  UNL     1      36.415  25.181  22.780  1.00  0.00    -0.388 OA
ATOM     31  H9  UNL     1      36.511  24.589  22.043  1.00  0.00     0.210 HD
ENDBRANCH  22  30
ENDBRANCH  16  17
ENDBRANCH   9  16
BRANCH   1  32
HETATM   32  O2  UNL     1      34.701  26.303  15.911  1.00  0.00    -0.315 OA
BRANCH  32  33
HETATM   33  C12 UNL     1      34.730  27.511  15.236  1.00  0.00     0.259 C 
HETATM   34  O1  UNL     1      35.325  27.567  14.131  1.00  0.00    -0.265 OA
BRANCH  33  35
HETATM   35  C11 UNL     1      34.081  28.738  15.772  1.00  0.00     0.111 C 
BRANCH  35  36
HETATM   36  C10 UNL     1      34.886  29.444  16.809  1.00  0.00     0.010 C 
BRANCH  36  37
HETATM   37  C9  UNL     1      34.247  30.663  17.382  1.00  0.00     0.000 C 
BRANCH  37  38
HETATM   38  C8  UNL     1      33.971  30.556  18.872  1.00  0.00     0.000 C 
BRANCH  38  39
HETATM   39  C7  UNL     1      32.774  31.341  19.281  1.00  0.00     0.000 C 
BRANCH  39  40
HETATM   40  C6  UNL     1      31.715  30.455  19.886  1.00  0.00     0.000 C 
BRANCH  40  41
HETATM   41  C5  UNL     1      30.622  30.107  18.942  1.00  0.00     0.000 C 
BRANCH  41  42
HETATM   42  C4  UNL     1      30.560  31.043  17.780  1.00  0.00     0.000 C 
BRANCH  42  43
HETATM   43  C3  UNL     1      30.609  30.313  16.460  1.00  0.00    -0.000 C 
BRANCH  43  44
HETATM   44  C2  UNL     1      31.202  31.209  15.378  1.00  0.00    -0.005 C 
HETATM   45  C1  UNL     1      31.381  32.574  15.969  1.00  0.00     0.005 C 
ENDBRANCH  43  44
ENDBRANCH  42  43
ENDBRANCH  41  42
ENDBRANCH  40  41
ENDBRANCH  39  40
ENDBRANCH  38  39
ENDBRANCH  37  38
ENDBRANCH  36  37
ENDBRANCH  35  36
ENDBRANCH  33  35
ENDBRANCH  32  33
ENDBRANCH   1  32
BRANCH   3  46
HETATM   46  O3  UNL     1      35.275  22.602  14.412  1.00  0.00    -0.394 OA
ATOM     47  H3  UNL     1      35.035  21.887  14.989  1.00  0.00     0.210 HD
ENDBRANCH   3  46
TORSDOF 20
ENDMDL
MODEL 2
REMARK VINA RESULT: -5.921495595      2.454      5.064
REMARK  20 active torsions:
REMARK  status: ('A' for Active; 'I' for Inactive)
REMARK    1  A    between atoms: C2_2  and  C3_3 
REMARK    2  A    between atoms: C3_3  and  C4_4 
REMARK    3  A    between atoms: C4_4  and  C5_5 
REMARK    4  A    between atoms: C5_5  and  C6_6 
REMARK    5  A    between atoms: C6_6  and  C7_7 
REMARK    6  A    between atoms: C7_7  and  C8_8 
REMARK    7  A    between atoms: C8_8  and  C9_9 
REMARK    8  A    between atoms: C9_9  and  C10_10 
REMARK    9  A    between atoms: C10_10  and  C11_11 
REMARK   10  A    between atoms: C11_11  and  C12_12 
REMARK   11  A    between atoms: C12_12  and  O2_14 
REMARK   12  A    between atoms: O2_14  and  C13_15 
REMARK   13  A    between atoms: C15_17  and  O3_18 
REMARK   14  A    between atoms: C20_25  and  O4_26 
REMARK   15  A    between atoms: O4_26  and  C21_27 
REMARK   16  A    between atoms: C22_29  and  C23_30 
REMARK   17  A    between atoms: C23_30  and  O6_31 
REMARK   18  A    between atoms: C24_33  and  O7_34 
REMARK   19  A    between atoms: C25_36  and  O8_37 
REMARK   20  A    between atoms: C26_39  and  O9_40 
ROOT
HETATM    1  C13 UNL     1      33.482  29.353  17.812  1.00  0.00     0.141 C 
HETATM    2  C14 UNL     1      34.564  30.022  16.928  1.00  0.00     0.066 C 
HETATM    3  C15 UNL     1      35.805  30.305  17.727  1.00  0.00     0.138 C 
HETATM    4  C16 UNL     1      36.372  28.968  18.226  1.00  0.00     0.149 C 
HETATM    5  N1  UNL     1      35.453  28.286  19.062  1.00  0.00    -0.403 N 
HETATM    6  C17 UNL     1      35.974  28.189  20.367  1.00  0.00     0.144 C 
HETATM    7  C18 UNL     1      34.692  27.249  18.493  1.00  0.00     0.057 C 
HETATM    8  C19 UNL     1      35.660  26.466  17.574  1.00  0.00     0.041 C 
HETATM    9  C20 UNL     1      34.146  26.234  19.423  1.00  0.00     0.152 C 
HETATM   10  C27 UNL     1      32.802  26.578  20.017  1.00  0.00     0.035 C 
HETATM   11  C28 UNL     1      31.811  26.619  18.915  1.00  0.00     0.012 C 
HETATM   12  C29 UNL     1      32.320  27.103  17.608  1.00  0.00    -0.039 C 
HETATM   13  C30 UNL     1      32.444  25.893  16.665  1.00  0.00     0.015 C 
HETATM   14  C31 UNL     1      31.210  27.946  17.008  1.00  0.00     0.015 C 
HETATM   15  C32 UNL     1      33.605  27.855  17.634  1.00  0.00     0.053 C 
ENDROOT
BRANCH   9  16
HETATM   16  O4  UNL     1      34.948  25.824  20.464  1.00  0.00    -0.351 OA
BRANCH  16  17
HETATM   17  C21 UNL     1      35.580  24.614  20.292  1.00  0.00     0.292 C 
HETATM   18  O5  UNL     1      34.833  23.553  20.842  1.00  0.00    -0.348 OA
HETATM   19  C22 UNL     1      35.267  22.385  20.225  1.00  0.00     0.179 C 
HETATM   20  C24 UNL     1      36.758  22.301  20.063  1.00  0.00     0.180 C 
HETATM   21  C25 UNL     1      37.532  23.262  20.903  1.00  0.00     0.183 C 
HETATM   22  C26 UNL     1      36.883  24.622  21.042  1.00  0.00     0.204 C 
BRANCH  19  23
HETATM   23  C23 UNL     1      34.709  21.149  20.891  1.00  0.00     0.198 C 
BRANCH  23  24
HETATM   24  O6  UNL     1      35.325  20.925  22.129  1.00  0.00    -0.398 OA
ATOM     25  H6  UNL     1      35.151  20.045  22.442  1.00  0.00     0.209 HD
ENDBRANCH  23  24
ENDBRANCH  19  23
BRANCH  20  26
HETATM   26  O7  UNL     1      37.139  22.373  18.703  1.00  0.00    -0.390 OA
ATOM     27  H7  UNL     1      37.724  23.103  18.543  1.00  0.00     0.210 HD
ENDBRANCH  20  26
BRANCH  21  28
HETATM   28  O8  UNL     1      38.766  23.475  20.262  1.00  0.00    -0.390 OA
ATOM     29  H8  UNL     1      39.404  22.912  20.686  1.00  0.00     0.210 HD
ENDBRANCH  21  28
BRANCH  22  30
HETATM   30  O9  UNL     1      36.588  24.763  22.418  1.00  0.00    -0.388 OA
ATOM     31  H9  UNL     1      35.765  25.233  22.491  1.00  0.00     0.210 HD
ENDBRANCH  22  30
ENDBRANCH  16  17
ENDBRANCH   9  16
BRANCH   1  32
HETATM   32  O2  UNL     1      33.552  29.816  19.114  1.00  0.00    -0.315 OA
BRANCH  32  33
HETATM   33  C12 UNL     1      32.457  30.362  19.761  1.00  0.00     0.259 C 
HETATM   34  O1  UNL     1      31.922  29.707  20.691  1.00  0.00    -0.265 OA
BRANCH  33  35
HETATM   35  C11 UNL     1      31.897  31.690  19.395  1.00  0.00     0.111 C 
BRANCH  35  36
HETATM   36  C10 UNL     1      30.914  31.645  18.275  1.00  0.00     0.010 C 
BRANCH  36  37
HETATM   37  C9  UNL     1      31.375  32.272  17.004  1.00  0.00     0.000 C 
BRANCH  37  38
HETATM   38  C8  UNL     1      30.937  31.512  15.763  1.00  0.00     0.000 C 
BRANCH  38  39
HETATM   39  C7  UNL     1      31.979  31.520  14.701  1.00  0.00     0.000 C 
BRANCH  39  40
HETATM   40  C6  UNL     1      32.740  32.820  14.685  1.00  0.00     0.000 C 
BRANCH  40  41
HETATM   41  C5  UNL     1      32.155  33.839  13.774  1.00  0.00     0.000 C 
BRANCH  41  42
HETATM   42  C4  UNL     1      32.041  35.179  14.423  1.00  0.00     0.000 C 
BRANCH  42  43
HETATM   43  C3  UNL     1      30.686  35.392  15.052  1.00  0.00    -0.000 C 
BRANCH  43  44
HETATM   44  C2  UNL     1      29.603  34.698  14.234  1.00  0.00    -0.005 C 
HETATM   45  C1  UNL     1      28.307  35.394  14.517  1.00  0.00     0.005 C 
ENDBRANCH  43  44
ENDBRANCH  42  43
ENDBRANCH  41  42
ENDBRANCH  40  41
ENDBRANCH  39  40
ENDBRANCH  38  39
ENDBRANCH  37  38
ENDBRANCH  36  37
ENDBRANCH  35  36
ENDBRANCH  33  35
ENDBRANCH  32  33
ENDBRANCH   1  32
BRANCH   3  46
HETATM   46  O3  UNL     1      36.748  30.834  16.873  1.00  0.00    -0.394 OA
ATOM     47  H3  UNL     1      36.351  31.564  16.413  1.00  0.00     0.210 HD
ENDBRANCH   3  46
TORSDOF 20
ENDMDL
MODEL 3
REMARK VINA RESULT: -5.899979860      2.377      6.153
REMARK  20 active torsions:
REMARK  status: ('A' for Active; 'I' for Inactive)
REMARK    1  A    between atoms: C2_2  and  C3_3 
REMARK    2  A    between atoms: C3_3  and  C4_4 
REMARK    3  A    between atoms: C4_4  and  C5_5 
REMARK    4  A    between atoms: C5_5  and  C6_6 
REMARK    5  A    between atoms: C6_6  and  C7_7 
REMARK    6  A    between atoms: C7_7  and  C8_8 
REMARK    7  A    between atoms: C8_8  and  C9_9 
REMARK    8  A    between atoms: C9_9  and  C10_10 
REMARK    9  A    between atoms: C10_10  and  C11_11 
REMARK   10  A    between atoms: C11_11  and  C12_12 
REMARK   11  A    between atoms: C12_12  and  O2_14 
REMARK   12  A    between atoms: O2_14  and  C13_15 
REMARK   13  A    between atoms: C15_17  and  O3_18 
REMARK   14  A    between atoms: C20_25  and  O4_26 
REMARK   15  A    between atoms: O4_26  and  C21_27 
REMARK   16  A    between atoms: C22_29  and  C23_30 
REMARK   17  A    between atoms: C23_30  and  O6_31 
REMARK   18  A    between atoms: C24_33  and  O7_34 
REMARK   19  A    between atoms: C25_36  and  O8_37 
REMARK   20  A    between atoms: C26_39  and  O9_40 
ROOT
HETATM    1  C13 UNL     1      34.099  29.722  18.091  1.00  0.00     0.141 C 
HETATM    2  C14 UNL     1      33.246  30.787  18.826  1.00  0.00     0.066 C 
HETATM    3  C15 UNL     1      32.001  30.171  19.399  1.00  0.00     0.138 C 
HETATM    4  C16 UNL     1      32.418  29.114  20.433  1.00  0.00     0.149 C 
HETATM    5  N1  UNL     1      33.193  28.083  19.846  1.00  0.00    -0.403 N 
HETATM    6  C17 UNL     1      32.498  26.860  19.919  1.00  0.00     0.144 C 
HETATM    7  C18 UNL     1      34.590  28.145  19.996  1.00  0.00     0.057 C 
HETATM    8  C19 UNL     1      34.843  28.594  21.455  1.00  0.00     0.041 C 
HETATM    9  C20 UNL     1      35.334  26.872  19.857  1.00  0.00     0.152 C 
HETATM   10  C27 UNL     1      35.736  26.525  18.444  1.00  0.00     0.035 C 
HETATM   11  C28 UNL     1      36.699  27.551  17.976  1.00  0.00     0.012 C 
HETATM   12  C29 UNL     1      36.477  28.925  18.492  1.00  0.00    -0.039 C 
HETATM   13  C30 UNL     1      37.566  29.225  19.537  1.00  0.00     0.015 C 
HETATM   14  C31 UNL     1      36.782  29.864  17.338  1.00  0.00     0.015 C 
HETATM   15  C32 UNL     1      35.134  29.208  19.069  1.00  0.00     0.053 C 
ENDROOT
BRANCH   9  16
HETATM   16  O4  UNL     1      34.771  25.740  20.399  1.00  0.00    -0.351 OA
BRANCH  16  17
HETATM   17  C21 UNL     1      35.492  24.578  20.241  1.00  0.00     0.292 C 
HETATM   18  O5  UNL     1      34.791  23.459  20.734  1.00  0.00    -0.348 OA
HETATM   19  C22 UNL     1      35.334  22.334  20.122  1.00  0.00     0.179 C 
HETATM   20  C24 UNL     1      36.833  22.353  20.038  1.00  0.00     0.180 C 
HETATM   21  C25 UNL     1      37.496  23.348  20.932  1.00  0.00     0.183 C 
HETATM   22  C26 UNL     1      36.750  24.659  21.058  1.00  0.00     0.204 C 
BRANCH  19  23
HETATM   23  C23 UNL     1      34.828  21.051  20.739  1.00  0.00     0.198 C 
BRANCH  23  24
HETATM   24  O6  UNL     1      35.288  20.911  22.054  1.00  0.00    -0.398 OA
ATOM     25  H6  UNL     1      35.485  20.003  22.251  1.00  0.00     0.209 HD
ENDBRANCH  23  24
ENDBRANCH  19  23
BRANCH  20  26
HETATM   26  O7  UNL     1      37.277  22.477  18.701  1.00  0.00    -0.390 OA
ATOM     27  H7  UNL     1      38.218  22.360  18.634  1.00  0.00     0.210 HD
ENDBRANCH  20  26
BRANCH  21  28
HETATM   28  O8  UNL     1      38.744  23.655  20.360  1.00  0.00    -0.390 OA
ATOM     29  H8  UNL     1      38.745  24.586  20.171  1.00  0.00     0.210 HD
ENDBRANCH  21  28
BRANCH  22  30
HETATM   30  O9  UNL     1      36.376  24.753  22.419  1.00  0.00    -0.388 OA
ATOM     31  H9  UNL     1      37.142  25.022  22.912  1.00  0.00     0.210 HD
ENDBRANCH  22  30
ENDBRANCH  16  17
ENDBRANCH   9  16
BRANCH   1  32
HETATM   32  O2  UNL     1      33.292  28.763  17.505  1.00  0.00    -0.315 OA
BRANCH  32  33
HETATM   33  C12 UNL     1      33.443  28.383  16.182  1.00  0.00     0.259 C 
HETATM   34  O1  UNL     1      33.801  29.250  15.346  1.00  0.00    -0.265 OA
BRANCH  33  35
HETATM   35  C11 UNL     1      33.199  26.990  15.722  1.00  0.00     0.111 C 
BRANCH  35  36
HETATM   36  C10 UNL     1      34.354  26.376  15.008  1.00  0.00     0.010 C 
BRANCH  36  37
HETATM   37  C9  UNL     1      34.071  25.065  14.357  1.00  0.00     0.000 C 
BRANCH  37  38
HETATM   38  C8  UNL     1      35.074  23.983  14.717  1.00  0.00     0.000 C 
BRANCH  38  39
HETATM   39  C7  UNL     1      35.087  23.689  16.176  1.00  0.00     0.000 C 
BRANCH  39  40
HETATM   40  C6  UNL     1      34.488  22.338  16.471  1.00  0.00     0.000 C 
BRANCH  40  41
HETATM   41  C5  UNL     1      33.160  22.410  17.134  1.00  0.00     0.000 C 
BRANCH  41  42
HETATM   42  C4  UNL     1      32.883  23.765  17.700  1.00  0.00     0.000 C 
BRANCH  42  43
HETATM   43  C3  UNL     1      31.475  24.224  17.411  1.00  0.00    -0.000 C 
BRANCH  43  44
HETATM   44  C2  UNL     1      30.894  23.453  16.231  1.00  0.00    -0.005 C 
HETATM   45  C1  UNL     1      30.502  24.453  15.187  1.00  0.00     0.005 C 
ENDBRANCH  43  44
ENDBRANCH  42  43
ENDBRANCH  41  42
ENDBRANCH  40  41
ENDBRANCH  39  40
ENDBRANCH  38  39
ENDBRANCH  37  38
ENDBRANCH  36  37
ENDBRANCH  35  36
ENDBRANCH  33  35
ENDBRANCH  32  33
ENDBRANCH   1  32
BRANCH   3  46
HETATM   46  O3  UNL     1      31.324  31.149  20.094  1.00  0.00    -0.394 OA
ATOM     47  H3  UNL     1      30.468  30.807  20.322  1.00  0.00     0.210 HD
ENDBRANCH   3  46
TORSDOF 20
ENDMDL
MODEL 4
REMARK VINA RESULT: -5.849268076      2.361      6.224
REMARK  20 active torsions:
REMARK  status: ('A' for Active; 'I' for Inactive)
REMARK    1  A    between atoms: C2_2  and  C3_3 
REMARK    2  A    between atoms: C3_3  and  C4_4 
REMARK    3  A    between atoms: C4_4  and  C5_5 
REMARK    4  A    between atoms: C5_5  and  C6_6 
REMARK    5  A    between atoms: C6_6  and  C7_7 
REMARK    6  A    between atoms: C7_7  and  C8_8 
REMARK    7  A    between atoms: C8_8  and  C9_9 
REMARK    8  A    between atoms: C9_9  and  C10_10 
REMARK    9  A    between atoms: C10_10  and  C11_11 
REMARK   10  A    between atoms: C11_11  and  C12_12 
REMARK   11  A    between atoms: C12_12  and  O2_14 
REMARK   12  A    between atoms: O2_14  and  C13_15 
REMARK   13  A    between atoms: C15_17  and  O3_18 
REMARK   14  A    between atoms: C20_25  and  O4_26 
REMARK   15  A    between atoms: O4_26  and  C21_27 
REMARK   16  A    between atoms: C22_29  and  C23_30 
REMARK   17  A    between atoms: C23_30  and  O6_31 
REMARK   18  A    between atoms: C24_33  and  O7_34 
REMARK   19  A    between atoms: C25_36  and  O8_37 
REMARK   20  A    between atoms: C26_39  and  O9_40 
ROOT
HETATM    1  C13 UNL     1      34.129  29.692  18.000  1.00  0.00     0.141 C 
HETATM    2  C14 UNL     1      33.289  30.781  18.712  1.00  0.00     0.066 C 
HETATM    3  C15 UNL     1      32.048  30.187  19.315  1.00  0.00     0.138 C 
HETATM    4  C16 UNL     1      32.471  29.159  20.375  1.00  0.00     0.149 C 
HETATM    5  N1  UNL     1      33.236  28.108  19.810  1.00  0.00    -0.403 N 
HETATM    6  C17 UNL     1      32.537  26.891  19.925  1.00  0.00     0.144 C 
HETATM    7  C18 UNL     1      34.635  28.168  19.943  1.00  0.00     0.057 C 
HETATM    8  C19 UNL     1      34.905  28.659  21.386  1.00  0.00     0.041 C 
HETATM    9  C20 UNL     1      35.372  26.889  19.833  1.00  0.00     0.152 C 
HETATM   10  C27 UNL     1      35.758  26.500  18.427  1.00  0.00     0.035 C 
HETATM   11  C28 UNL     1      36.720  27.508  17.920  1.00  0.00     0.012 C 
HETATM   12  C29 UNL     1      36.509  28.897  18.398  1.00  0.00    -0.039 C 
HETATM   13  C30 UNL     1      37.610  29.222  19.423  1.00  0.00     0.015 C 
HETATM   14  C31 UNL     1      36.806  29.801  17.215  1.00  0.00     0.015 C 
HETATM   15  C32 UNL     1      35.173  29.203  18.981  1.00  0.00     0.053 C 
ENDROOT
BRANCH   9  16
HETATM   16  O4  UNL     1      34.810  25.775  20.414  1.00  0.00    -0.351 OA
BRANCH  16  17
HETATM   17  C21 UNL     1      35.512  24.602  20.260  1.00  0.00     0.292 C 
HETATM   18  O5  UNL     1      34.805  23.499  20.781  1.00  0.00    -0.348 OA
HETATM   19  C22 UNL     1      35.322  22.359  20.176  1.00  0.00     0.179 C 
HETATM   20  C24 UNL     1      36.820  22.356  20.066  1.00  0.00     0.180 C 
HETATM   21  C25 UNL     1      37.512  23.353  20.935  1.00  0.00     0.183 C 
HETATM   22  C26 UNL     1      36.786  24.676  21.054  1.00  0.00     0.204 C 
BRANCH  19  23
HETATM   23  C23 UNL     1      34.809  21.092  20.820  1.00  0.00     0.198 C 
BRANCH  23  24
HETATM   24  O6  UNL     1      35.316  20.947  22.117  1.00  0.00    -0.398 OA
ATOM     25  H6  UNL     1      36.060  20.356  22.128  1.00  0.00     0.209 HD
ENDBRANCH  23  24
ENDBRANCH  19  23
BRANCH  20  26
HETATM   26  O7  UNL     1      37.242  22.454  18.720  1.00  0.00    -0.390 OA
ATOM     27  H7  UNL     1      37.796  23.214  18.583  1.00  0.00     0.210 HD
ENDBRANCH  20  26
BRANCH  21  28
HETATM   28  O8  UNL     1      38.753  23.635  20.337  1.00  0.00    -0.390 OA
ATOM     29  H8  UNL     1      39.419  23.525  21.006  1.00  0.00     0.210 HD
ENDBRANCH  21  28
BRANCH  22  30
HETATM   30  O9  UNL     1      36.437  24.795  22.420  1.00  0.00    -0.388 OA
ATOM     31  H9  UNL     1      36.447  25.718  22.642  1.00  0.00     0.210 HD
ENDBRANCH  22  30
ENDBRANCH  16  17
ENDBRANCH   9  16
BRANCH   1  32
HETATM   32  O2  UNL     1      33.313  28.720  17.449  1.00  0.00    -0.315 OA
BRANCH  32  33
HETATM   33  C12 UNL     1      33.402  28.352  16.118  1.00  0.00     0.259 C 
HETATM   34  O1  UNL     1      33.351  29.252  15.242  1.00  0.00    -0.265 OA
BRANCH  33  35
HETATM   35  C11 UNL     1      33.557  26.935  15.693  1.00  0.00     0.111 C 
BRANCH  35  36
HETATM   36  C10 UNL     1      32.448  26.436  14.831  1.00  0.00     0.010 C 
BRANCH  36  37
HETATM   37  C9  UNL     1      31.745  25.226  15.343  1.00  0.00     0.000 C 
BRANCH  37  38
HETATM   38  C8  UNL     1      31.187  25.399  16.745  1.00  0.00     0.000 C 
BRANCH  38  39
HETATM   39  C7  UNL     1      31.342  24.170  17.569  1.00  0.00     0.000 C 
BRANCH  39  40
HETATM   40  C6  UNL     1      32.792  23.786  17.719  1.00  0.00     0.000 C 
BRANCH  40  41
HETATM   41  C5  UNL     1      33.071  22.371  17.359  1.00  0.00     0.000 C 
BRANCH  41  42
HETATM   42  C4  UNL     1      34.271  22.238  16.481  1.00  0.00     0.000 C 
BRANCH  42  43
HETATM   43  C3  UNL     1      34.999  23.549  16.311  1.00  0.00    -0.000 C 
BRANCH  43  44
HETATM   44  C2  UNL     1      35.488  23.705  14.875  1.00  0.00    -0.005 C 
HETATM   45  C1  UNL     1      34.477  23.053  13.981  1.00  0.00     0.005 C 
ENDBRANCH  43  44
ENDBRANCH  42  43
ENDBRANCH  41  42
ENDBRANCH  40  41
ENDBRANCH  39  40
ENDBRANCH  38  39
ENDBRANCH  37  38
ENDBRANCH  36  37
ENDBRANCH  35  36
ENDBRANCH  33  35
ENDBRANCH  32  33
ENDBRANCH   1  32
BRANCH   3  46
HETATM   46  O3  UNL     1      31.382  31.188  19.989  1.00  0.00    -0.394 OA
ATOM     47  H3  UNL     1      30.449  31.051  19.869  1.00  0.00     0.210 HD
ENDBRANCH   3  46
TORSDOF 20
ENDMDL
MODEL 5
REMARK VINA RESULT: -5.842263910      1.514      2.825
REMARK  20 active torsions:
REMARK  status: ('A' for Active; 'I' for Inactive)
REMARK    1  A    between atoms: C2_2  and  C3_3 
REMARK    2  A    between atoms: C3_3  and  C4_4 
REMARK    3  A    between atoms: C4_4  and  C5_5 
REMARK    4  A    between atoms: C5_5  and  C6_6 
REMARK    5  A    between atoms: C6_6  and  C7_7 
REMARK    6  A    between atoms: C7_7  and  C8_8 
REMARK    7  A    between atoms: C8_8  and  C9_9 
REMARK    8  A    between atoms: C9_9  and  C10_10 
REMARK    9  A    between atoms: C10_10  and  C11_11 
REMARK   10  A    between atoms: C11_11  and  C12_12 
REMARK   11  A    between atoms: C12_12  and  O2_14 
REMARK   12  A    between atoms: O2_14  and  C13_15 
REMARK   13  A    between atoms: C15_17  and  O3_18 
REMARK   14  A    between atoms: C20_25  and  O4_26 
REMARK   15  A    between atoms: O4_26  and  C21_27 
REMARK   16  A    between atoms: C22_29  and  C23_30 
REMARK   17  A    between atoms: C23_30  and  O6_31 
REMARK   18  A    between atoms: C24_33  and  O7_34 
REMARK   19  A    between atoms: C25_36  and  O8_37 
REMARK   20  A    between atoms: C26_39  and  O9_40 
ROOT
HETATM    1  C13 UNL     1      33.667  23.538  16.739  1.00  0.00     0.141 C 
HETATM    2  C14 UNL     1      33.624  21.995  16.873  1.00  0.00     0.066 C 
HETATM    3  C15 UNL     1      35.001  21.443  17.114  1.00  0.00     0.138 C 
HETATM    4  C16 UNL     1      35.523  22.013  18.442  1.00  0.00     0.149 C 
HETATM    5  N1  UNL     1      35.612  23.427  18.409  1.00  0.00    -0.403 N 
HETATM    6  C17 UNL     1      36.958  23.825  18.520  1.00  0.00     0.144 C 
HETATM    7  C18 UNL     1      34.575  24.165  19.005  1.00  0.00     0.057 C 
HETATM    8  C19 UNL     1      34.225  23.424  20.318  1.00  0.00     0.041 C 
HETATM    9  C20 UNL     1      34.895  25.548  19.425  1.00  0.00     0.152 C 
HETATM   10  C27 UNL     1      34.705  26.594  18.353  1.00  0.00     0.035 C 
HETATM   11  C28 UNL     1      33.262  26.650  18.017  1.00  0.00     0.012 C 
HETATM   12  C29 UNL     1      32.532  25.361  18.096  1.00  0.00    -0.039 C 
HETATM   13  C30 UNL     1      31.641  25.392  19.350  1.00  0.00     0.015 C 
HETATM   14  C31 UNL     1      31.557  25.356  16.932  1.00  0.00     0.015 C 
HETATM   15  C32 UNL     1      33.364  24.126  18.100  1.00  0.00     0.053 C 
ENDROOT
BRANCH   9  16
HETATM   16  O4  UNL     1      36.130  25.776  19.989  1.00  0.00    -0.351 OA
BRANCH  16  17
HETATM   17  C21 UNL     1      36.192  26.811  20.894  1.00  0.00     0.292 C 
HETATM   18  O5  UNL     1      37.522  27.100  21.262  1.00  0.00    -0.348 OA
HETATM   19  C22 UNL     1      37.534  28.399  21.759  1.00  0.00     0.179 C 
HETATM   20  C24 UNL     1      36.377  28.715  22.663  1.00  0.00     0.180 C 
HETATM   21  C25 UNL     1      35.640  27.521  23.174  1.00  0.00     0.183 C 
HETATM   22  C26 UNL     1      35.500  26.403  22.164  1.00  0.00     0.204 C 
BRANCH  19  23
HETATM   23  C23 UNL     1      38.855  28.748  22.404  1.00  0.00     0.198 C 
BRANCH  23  24
HETATM   24  O6  UNL     1      39.863  28.887  21.441  1.00  0.00    -0.398 OA
ATOM     25  H6  UNL     1      40.718  28.709  21.814  1.00  0.00     0.209 HD
ENDBRANCH  23  24
ENDBRANCH  19  23
BRANCH  20  26
HETATM   26  O7  UNL     1      35.501  29.657  22.076  1.00  0.00    -0.390 OA
ATOM     27  H7  UNL     1      34.719  29.239  21.733  1.00  0.00     0.210 HD
ENDBRANCH  20  26
BRANCH  21  28
HETATM   28  O8  UNL     1      34.334  27.941  23.485  1.00  0.00    -0.390 OA
ATOM     29  H8  UNL     1      34.338  28.223  24.393  1.00  0.00     0.210 HD
ENDBRANCH  21  28
BRANCH  22  30
HETATM   30  O9  UNL     1      36.210  25.308  22.710  1.00  0.00    -0.388 OA
ATOM     31  H9  UNL     1      35.574  24.659  22.986  1.00  0.00     0.210 HD
ENDBRANCH  22  30
ENDBRANCH  16  17
ENDBRANCH   9  16
BRANCH   1  32
HETATM   32  O2  UNL     1      34.849  23.950  16.150  1.00  0.00    -0.315 OA
BRANCH  32  33
HETATM   33  C12 UNL     1      34.914  24.342  14.824  1.00  0.00     0.259 C 
HETATM   34  O1  UNL     1      35.947  24.064  14.166  1.00  0.00    -0.265 OA
BRANCH  33  35
HETATM   35  C11 UNL     1      33.805  25.075  14.157  1.00  0.00     0.111 C 
BRANCH  35  36
HETATM   36  C10 UNL     1      33.801  26.542  14.422  1.00  0.00     0.010 C 
BRANCH  36  37
HETATM   37  C9  UNL     1      34.501  27.371  13.400  1.00  0.00     0.000 C 
BRANCH  37  38
HETATM   38  C8  UNL     1      35.366  28.466  14.000  1.00  0.00     0.000 C 
BRANCH  38  39
HETATM   39  C7  UNL     1      35.042  28.719  15.431  1.00  0.00     0.000 C 
BRANCH  39  40
HETATM   40  C6  UNL     1      34.471  30.099  15.631  1.00  0.00     0.000 C 
BRANCH  40  41
HETATM   41  C5  UNL     1      34.705  30.646  16.992  1.00  0.00     0.000 C 
BRANCH  41  42
HETATM   42  C4  UNL     1      33.431  30.894  17.730  1.00  0.00     0.000 C 
BRANCH  42  43
HETATM   43  C3  UNL     1      33.576  30.653  19.212  1.00  0.00    -0.000 C 
BRANCH  43  44
HETATM   44  C2  UNL     1      32.236  30.254  19.821  1.00  0.00    -0.005 C 
HETATM   45  C1  UNL     1      32.473  29.054  20.687  1.00  0.00     0.005 C 
ENDBRANCH  43  44
ENDBRANCH  42  43
ENDBRANCH  41  42
ENDBRANCH  40  41
ENDBRANCH  39  40
ENDBRANCH  38  39
ENDBRANCH  37  38
ENDBRANCH  36  37
ENDBRANCH  35  36
ENDBRANCH  33  35
ENDBRANCH  32  33
ENDBRANCH   1  32
BRANCH   3  46
HETATM   46  O3  UNL     1      34.888  20.082  17.293  1.00  0.00    -0.394 OA
ATOM     47  H3  UNL     1      35.410  19.655  16.624  1.00  0.00     0.210 HD
ENDBRANCH   3  46
TORSDOF 20
ENDMDL
