MODEL 1
REMARK VINA RESULT: -6.288125172      0.000      0.000
REMARK  20 active torsions:
REMARK  status: ('A' for Active; 'I' for Inactive)
REMARK    1  A    between atoms: C2_2  and  C3_3 
REMARK    2  A    between atoms: C3_3  and  C4_4 
REMARK    3  A    between atoms: C3_3  and  C15_16 
REMARK    4  A    between atoms: C4_4  and  C5_5 
REMARK    5  A    between atoms: C7_7  and  C8_8 
REMARK    6  A    between atoms: C8_8  and  N1_9 
REMARK    7  A    between atoms: N1_9  and  C9_10 
REMARK    8  A    between atoms: N1_9  and  C12_13 
REMARK    9  A    between atoms: C15_16  and  C16_17 
REMARK   10  A    between atoms: C16_17  and  O1_18 
REMARK   11  A    between atoms: C16_17  and  C17_20 
REMARK   12  A    between atoms: C18_21  and  C19_22 
REMARK   13  A    between atoms: C19_22  and  C20_24 
REMARK   14  A    between atoms: C23_28  and  O4_29 
REMARK   15  A    between atoms: O4_29  and  C24_30 
REMARK   16  A    between atoms: C26_33  and  O6_34 
REMARK   17  A    between atoms: C26_33  and  C27_36 
REMARK   18  A    between atoms: C27_36  and  O7_37 
REMARK   19  A    between atoms: C28_39  and  O8_40 
REMARK   20  A    between atoms: C29_42  and  O9_43 
ROOT
HETATM    1  C20 UNL     1      31.492  26.585  16.962  1.00  0.00     0.199 C 
HETATM    2  O3  UNL     1      31.749  25.810  15.851  1.00  0.00    -0.370 OA
HETATM    3  C21 UNL     1      32.883  25.020  15.988  1.00  0.00     0.147 C 
HETATM    4  C22 UNL     1      34.075  25.979  15.920  1.00  0.00     0.042 C 
HETATM    5  C23 UNL     1      32.926  24.189  17.215  1.00  0.00     0.153 C 
HETATM    6  C30 UNL     1      31.630  24.311  17.989  1.00  0.00     0.042 C 
HETATM    7  C31 UNL     1      31.333  25.755  18.217  1.00  0.00     0.021 C 
HETATM    8  C32 UNL     1      32.259  26.284  19.285  1.00  0.00     0.013 C 
ENDROOT
BRANCH   1   9
HETATM    9  C19 UNL     1      30.232  27.323  16.739  1.00  0.00     0.178 C 
HETATM   10  O2  UNL     1      29.136  26.817  17.153  1.00  0.00    -0.290 OA
BRANCH   9  11
HETATM   11  C18 UNL     1      30.254  28.601  16.061  1.00  0.00     0.051 C 
HETATM   12  C17 UNL     1      31.016  29.551  16.503  1.00  0.00     0.008 C 
BRANCH  12  13
HETATM   13  C16 UNL     1      31.109  30.928  15.863  1.00  0.00     0.141 C 
BRANCH  13  14
HETATM   14  C15 UNL     1      32.060  31.684  16.709  1.00  0.00     0.040 C 
BRANCH  14  15
HETATM   15  C3  UNL     1      33.016  30.947  17.553  1.00  0.00    -0.008 C 
BRANCH  15  16
HETATM   16  C2  UNL     1      34.385  30.823  16.892  1.00  0.00     0.000 C 
HETATM   17  C1  UNL     1      34.595  29.617  16.071  1.00  0.00     0.005 C 
ENDBRANCH  15  16
BRANCH  15  18
HETATM   18  C4  UNL     1      33.096  31.163  19.011  1.00  0.00     0.038 C 
BRANCH  18  19
HETATM   19  C5  UNL     1      32.321  30.321  19.901  1.00  0.00    -0.086 C 
HETATM   20  C6  UNL     1      30.817  30.193  19.931  1.00  0.00     0.043 C 
HETATM   21  C7  UNL     1      32.896  29.542  20.856  1.00  0.00    -0.005 C 
BRANCH  21  22
HETATM   22  C8  UNL     1      34.346  29.471  21.085  1.00  0.00     0.145 C 
BRANCH  22  23
HETATM   23  N1  UNL     1      34.998  28.261  20.750  1.00  0.00    -0.402 N 
BRANCH  23  24
HETATM   24  C9  UNL     1      35.491  28.259  19.438  1.00  0.00     0.071 C 
HETATM   25  C10 UNL     1      36.099  26.986  18.958  1.00  0.00     0.031 C 
HETATM   26  C11 UNL     1      36.575  29.340  19.325  1.00  0.00     0.031 C 
ENDBRANCH  23  24
BRANCH  23  27
HETATM   27  C12 UNL     1      35.399  27.325  21.688  1.00  0.00     0.071 C 
HETATM   28  C13 UNL     1      36.403  27.905  22.691  1.00  0.00     0.031 C 
HETATM   29  C14 UNL     1      34.237  26.782  22.476  1.00  0.00     0.031 C 
ENDBRANCH  23  27
ENDBRANCH  22  23
ENDBRANCH  21  22
ENDBRANCH  18  19
ENDBRANCH  15  18
ENDBRANCH  14  15
ENDBRANCH  13  14
BRANCH  13  30
HETATM   30  O1  UNL     1      29.816  31.350  15.773  1.00  0.00    -0.392 OA
ATOM     31  H1  UNL     1      29.127  30.824  16.161  1.00  0.00     0.210 HD
ENDBRANCH  13  30
ENDBRANCH  12  13
ENDBRANCH   9  11
ENDBRANCH   1   9
BRANCH   5  32
HETATM   32  O4  UNL     1      34.033  24.373  18.027  1.00  0.00    -0.351 OA
BRANCH  32  33
HETATM   33  C24 UNL     1      34.557  23.190  18.524  1.00  0.00     0.291 C 
HETATM   34  O5  UNL     1      33.968  22.969  19.771  1.00  0.00    -0.355 OA
HETATM   35  C25 UNL     1      34.710  23.560  20.793  1.00  0.00     0.213 C 
HETATM   36  C26 UNL     1      35.943  22.704  20.967  1.00  0.00     0.128 C 
HETATM   37  C28 UNL     1      36.513  22.262  19.662  1.00  0.00     0.190 C 
HETATM   38  C29 UNL     1      36.048  23.221  18.574  1.00  0.00     0.205 C 
BRANCH  36  39
HETATM   39  O6  UNL     1      35.525  21.550  21.653  1.00  0.00    -0.383 OA
ATOM     40  H6  UNL     1      35.052  21.023  21.020  1.00  0.00     0.210 HD
ENDBRANCH  36  39
BRANCH  36  41
HETATM   41  C27 UNL     1      36.961  23.417  21.827  1.00  0.00     0.206 C 
BRANCH  41  42
HETATM   42  O7  UNL     1      37.325  24.620  21.227  1.00  0.00    -0.398 OA
ATOM     43  H7  UNL     1      37.159  25.340  21.824  1.00  0.00     0.209 HD
ENDBRANCH  41  42
ENDBRANCH  36  41
BRANCH  37  44
HETATM   44  O8  UNL     1      37.908  22.334  19.701  1.00  0.00    -0.390 OA
ATOM     45  H8  UNL     1      38.283  21.665  19.141  1.00  0.00     0.210 HD
ENDBRANCH  37  44
BRANCH  38  46
HETATM   46  O9  UNL     1      36.522  22.792  17.323  1.00  0.00    -0.388 OA
ATOM     47  H9  UNL     1      37.357  22.361  17.467  1.00  0.00     0.210 HD
ENDBRANCH  38  46
ENDBRANCH  32  33
ENDBRANCH   5  32
TORSDOF 20
ENDMDL
MODEL 2
REMARK VINA RESULT: -6.190863113      1.031      1.879
REMARK  20 active torsions:
REMARK  status: ('A' for Active; 'I' for Inactive)
REMARK    1  A    between atoms: C2_2  and  C3_3 
REMARK    2  A    between atoms: C3_3  and  C4_4 
REMARK    3  A    between atoms: C3_3  and  C15_16 
REMARK    4  A    between atoms: C4_4  and  C5_5 
REMARK    5  A    between atoms: C7_7  and  C8_8 
REMARK    6  A    between atoms: C8_8  and  N1_9 
REMARK    7  A    between atoms: N1_9  and  C9_10 
REMARK    8  A    between atoms: N1_9  and  C12_13 
REMARK    9  A    between atoms: C15_16  and  C16_17 
REMARK   10  A    between atoms: C16_17  and  O1_18 
REMARK   11  A    between atoms: C16_17  and  C17_20 
REMARK   12  A    between atoms: C18_21  and  C19_22 
REMARK   13  A    between atoms: C19_22  and  C20_24 
REMARK   14  A    between atoms: C23_28  and  O4_29 
REMARK   15  A    between atoms: O4_29  and  C24_30 
REMARK   16  A    between atoms: C26_33  and  O6_34 
REMARK   17  A    between atoms: C26_33  and  C27_36 
REMARK   18  A    between atoms: C27_36  and  O7_37 
REMARK   19  A    between atoms: C28_39  and  O8_40 
REMARK   20  A    between atoms: C29_42  and  O9_43 
ROOT
HETATM    1  C20 UNL     1      31.549  27.033  17.102  1.00  0.00     0.199 C 
HETATM    2  O3  UNL     1      31.716  26.338  15.923  1.00  0.00    -0.370 OA
HETATM    3  C21 UNL     1      32.895  25.604  15.885  1.00  0.00     0.147 C 
HETATM    4  C22 UNL     1      34.025  26.628  15.747  1.00  0.00     0.042 C 
HETATM    5  C23 UNL     1      33.113  24.707  17.045  1.00  0.00     0.153 C 
HETATM    6  C30 UNL     1      31.909  24.715  17.962  1.00  0.00     0.042 C 
HETATM    7  C31 UNL     1      31.572  26.126  18.312  1.00  0.00     0.021 C 
HETATM    8  C32 UNL     1      32.586  26.642  19.303  1.00  0.00     0.013 C 
ENDROOT
BRANCH   1   9
HETATM    9  C19 UNL     1      30.240  27.714  17.065  1.00  0.00     0.178 C 
HETATM   10  O2  UNL     1      29.184  27.042  17.314  1.00  0.00    -0.290 OA
BRANCH   9  11
HETATM   11  C18 UNL     1      30.167  29.124  16.750  1.00  0.00     0.051 C 
HETATM   12  C17 UNL     1      31.197  29.724  16.239  1.00  0.00     0.008 C 
BRANCH  12  13
HETATM   13  C16 UNL     1      31.222  31.200  15.874  1.00  0.00     0.141 C 
BRANCH  13  14
HETATM   14  C15 UNL     1      32.493  31.715  16.433  1.00  0.00     0.040 C 
BRANCH  14  15
HETATM   15  C3  UNL     1      32.864  31.368  17.816  1.00  0.00    -0.008 C 
BRANCH  15  16
HETATM   16  C2  UNL     1      31.778  31.759  18.813  1.00  0.00     0.000 C 
HETATM   17  C1  UNL     1      31.458  30.754  19.842  1.00  0.00     0.005 C 
ENDBRANCH  15  16
BRANCH  15  18
HETATM   18  C4  UNL     1      33.521  30.090  18.150  1.00  0.00     0.038 C 
BRANCH  18  19
HETATM   19  C5  UNL     1      34.966  30.035  18.250  1.00  0.00    -0.086 C 
HETATM   20  C6  UNL     1      35.951  30.214  17.120  1.00  0.00     0.043 C 
HETATM   21  C7  UNL     1      35.608  29.785  19.422  1.00  0.00    -0.005 C 
BRANCH  21  22
HETATM   22  C8  UNL     1      34.916  29.546  20.696  1.00  0.00     0.145 C 
BRANCH  22  23
HETATM   23  N1  UNL     1      35.368  28.463  21.487  1.00  0.00    -0.402 N 
BRANCH  23  24
HETATM   24  C9  UNL     1      36.703  28.126  21.228  1.00  0.00     0.071 C 
HETATM   25  C10 UNL     1      36.956  26.741  20.737  1.00  0.00     0.031 C 
HETATM   26  C11 UNL     1      37.506  28.291  22.525  1.00  0.00     0.031 C 
ENDBRANCH  23  24
BRANCH  23  27
HETATM   27  C12 UNL     1      34.698  28.006  22.609  1.00  0.00     0.071 C 
HETATM   28  C13 UNL     1      33.433  28.822  22.900  1.00  0.00     0.031 C 
HETATM   29  C14 UNL     1      34.283  26.565  22.472  1.00  0.00     0.031 C 
ENDBRANCH  23  27
ENDBRANCH  22  23
ENDBRANCH  21  22
ENDBRANCH  18  19
ENDBRANCH  15  18
ENDBRANCH  14  15
ENDBRANCH  13  14
BRANCH  13  30
HETATM   30  O1  UNL     1      30.040  31.688  16.346  1.00  0.00    -0.392 OA
ATOM     31  H1  UNL     1      29.955  31.887  17.272  1.00  0.00     0.210 HD
ENDBRANCH  13  30
ENDBRANCH  12  13
ENDBRANCH   9  11
ENDBRANCH   1   9
BRANCH   5  32
HETATM   32  O4  UNL     1      34.295  24.904  17.742  1.00  0.00    -0.351 OA
BRANCH  32  33
HETATM   33  C24 UNL     1      35.012  23.736  17.955  1.00  0.00     0.291 C 
HETATM   34  O5  UNL     1      34.285  22.968  18.867  1.00  0.00    -0.355 OA
HETATM   35  C25 UNL     1      34.649  23.262  20.180  1.00  0.00     0.213 C 
HETATM   36  C26 UNL     1      36.011  22.640  20.390  1.00  0.00     0.128 C 
HETATM   37  C28 UNL     1      36.902  22.823  19.209  1.00  0.00     0.190 C 
HETATM   38  C29 UNL     1      36.408  24.015  18.401  1.00  0.00     0.205 C 
BRANCH  36  39
HETATM   39  O6  UNL     1      35.792  21.260  20.539  1.00  0.00    -0.383 OA
ATOM     40  H6  UNL     1      35.696  21.107  21.472  1.00  0.00     0.210 HD
ENDBRANCH  36  39
BRANCH  36  41
HETATM   41  C27 UNL     1      36.633  23.156  21.667  1.00  0.00     0.206 C 
BRANCH  41  42
HETATM   42  O7  UNL     1      36.602  22.162  22.642  1.00  0.00    -0.398 OA
ATOM     43  H7  UNL     1      37.462  21.769  22.727  1.00  0.00     0.209 HD
ENDBRANCH  41  42
ENDBRANCH  36  41
BRANCH  37  44
HETATM   44  O8  UNL     1      38.199  23.127  19.632  1.00  0.00    -0.390 OA
ATOM     45  H8  UNL     1      38.822  22.915  18.947  1.00  0.00     0.210 HD
ENDBRANCH  37  44
BRANCH  38  46
HETATM   46  O9  UNL     1      37.196  24.172  17.248  1.00  0.00    -0.388 OA
ATOM     47  H9  UNL     1      37.670  23.360  17.114  1.00  0.00     0.210 HD
ENDBRANCH  38  46
ENDBRANCH  32  33
ENDBRANCH   5  32
TORSDOF 20
ENDMDL
MODEL 3
REMARK VINA RESULT: -6.009119876      2.404      8.694
REMARK  20 active torsions:
REMARK  status: ('A' for Active; 'I' for Inactive)
REMARK    1  A    between atoms: C2_2  and  C3_3 
REMARK    2  A    between atoms: C3_3  and  C4_4 
REMARK    3  A    between atoms: C3_3  and  C15_16 
REMARK    4  A    between atoms: C4_4  and  C5_5 
REMARK    5  A    between atoms: C7_7  and  C8_8 
REMARK    6  A    between atoms: C8_8  and  N1_9 
REMARK    7  A    between atoms: N1_9  and  C9_10 
REMARK    8  A    between atoms: N1_9  and  C12_13 
REMARK    9  A    between atoms: C15_16  and  C16_17 
REMARK   10  A    between atoms: C16_17  and  O1_18 
REMARK   11  A    between atoms: C16_17  and  C17_20 
REMARK   12  A    between atoms: C18_21  and  C19_22 
REMARK   13  A    between atoms: C19_22  and  C20_24 
REMARK   14  A    between atoms: C23_28  and  O4_29 
REMARK   15  A    between atoms: O4_29  and  C24_30 
REMARK   16  A    between atoms: C26_33  and  O6_34 
REMARK   17  A    between atoms: C26_33  and  C27_36 
REMARK   18  A    between atoms: C27_36  and  O7_37 
REMARK   19  A    between atoms: C28_39  and  O8_40 
REMARK   20  A    between atoms: C29_42  and  O9_43 
ROOT
HETATM    1  C20 UNL     1      35.314  27.385  21.284  1.00  0.00     0.199 C 
HETATM    2  O3  UNL     1      35.765  28.639  21.636  1.00  0.00    -0.370 OA
HETATM    3  C21 UNL     1      35.504  29.604  20.671  1.00  0.00     0.147 C 
HETATM    4  C22 UNL     1      36.453  29.302  19.508  1.00  0.00     0.042 C 
HETATM    5  C23 UNL     1      34.095  29.673  20.217  1.00  0.00     0.153 C 
HETATM    6  C30 UNL     1      33.225  28.732  21.024  1.00  0.00     0.042 C 
HETATM    7  C31 UNL     1      33.829  27.368  20.997  1.00  0.00     0.021 C 
HETATM    8  C32 UNL     1      33.590  26.752  19.640  1.00  0.00     0.013 C 
ENDROOT
BRANCH   1   9
HETATM    9  C19 UNL     1      35.574  26.460  22.405  1.00  0.00     0.178 C 
HETATM   10  O2  UNL     1      35.402  26.871  23.601  1.00  0.00    -0.290 OA
BRANCH   9  11
HETATM   11  C18 UNL     1      36.017  25.109  22.139  1.00  0.00     0.051 C 
HETATM   12  C17 UNL     1      36.660  24.846  21.044  1.00  0.00     0.008 C 
BRANCH  12  13
HETATM   13  C16 UNL     1      37.166  23.460  20.672  1.00  0.00     0.141 C 
BRANCH  13  14
HETATM   14  C15 UNL     1      36.137  22.524  21.177  1.00  0.00     0.040 C 
BRANCH  14  15
HETATM   15  C3  UNL     1      35.217  21.882  20.223  1.00  0.00    -0.008 C 
BRANCH  15  16
HETATM   16  C2  UNL     1      34.558  20.640  20.814  1.00  0.00     0.000 C 
HETATM   17  C1  UNL     1      34.041  19.661  19.840  1.00  0.00     0.005 C 
ENDBRANCH  15  16
BRANCH  15  18
HETATM   18  C4  UNL     1      34.307  22.668  19.368  1.00  0.00     0.038 C 
BRANCH  18  19
HETATM   19  C5  UNL     1      34.619  22.839  17.963  1.00  0.00    -0.086 C 
HETATM   20  C6  UNL     1      35.944  22.555  17.297  1.00  0.00     0.043 C 
HETATM   21  C7  UNL     1      33.714  23.315  17.066  1.00  0.00    -0.005 C 
BRANCH  21  22
HETATM   22  C8  UNL     1      32.341  23.701  17.420  1.00  0.00     0.145 C 
BRANCH  22  23
HETATM   23  N1  UNL     1      31.799  24.837  16.773  1.00  0.00    -0.402 N 
BRANCH  23  24
HETATM   24  C9  UNL     1      30.551  25.208  17.290  1.00  0.00     0.071 C 
HETATM   25  C10 UNL     1      30.373  25.070  18.763  1.00  0.00     0.031 C 
HETATM   26  C11 UNL     1      29.473  24.338  16.629  1.00  0.00     0.031 C 
ENDBRANCH  23  24
BRANCH  23  27
HETATM   27  C12 UNL     1      32.542  25.681  15.965  1.00  0.00     0.071 C 
HETATM   28  C13 UNL     1      32.288  25.427  14.475  1.00  0.00     0.031 C 
HETATM   29  C14 UNL     1      32.237  27.131  16.233  1.00  0.00     0.031 C 
ENDBRANCH  23  27
ENDBRANCH  22  23
ENDBRANCH  21  22
ENDBRANCH  18  19
ENDBRANCH  15  18
ENDBRANCH  14  15
ENDBRANCH  13  14
BRANCH  13  30
HETATM   30  O1  UNL     1      38.427  23.408  21.188  1.00  0.00    -0.392 OA
ATOM     31  H1  UNL     1      38.543  23.222  22.113  1.00  0.00     0.210 HD
ENDBRANCH  13  30
ENDBRANCH  12  13
ENDBRANCH   9  11
ENDBRANCH   1   9
BRANCH   5  32
HETATM   32  O4  UNL     1      33.895  29.521  18.854  1.00  0.00    -0.351 OA
BRANCH  32  33
HETATM   33  C24 UNL     1      33.653  30.717  18.195  1.00  0.00     0.291 C 
HETATM   34  O5  UNL     1      32.459  31.234  18.702  1.00  0.00    -0.355 OA
HETATM   35  C25 UNL     1      31.361  30.777  17.976  1.00  0.00     0.213 C 
HETATM   36  C26 UNL     1      31.389  31.516  16.658  1.00  0.00     0.128 C 
HETATM   37  C28 UNL     1      32.770  31.636  16.108  1.00  0.00     0.190 C 
HETATM   38  C29 UNL     1      33.636  30.540  16.713  1.00  0.00     0.205 C 
BRANCH  36  39
HETATM   39  O6  UNL     1      30.932  32.818  16.930  1.00  0.00    -0.383 OA
ATOM     40  H6  UNL     1      31.521  33.406  16.472  1.00  0.00     0.210 HD
ENDBRANCH  36  39
BRANCH  36  41
HETATM   41  C27 UNL     1      30.432  30.879  15.677  1.00  0.00     0.206 C 
BRANCH  41  42
HETATM   42  O7  UNL     1      29.651  31.863  15.074  1.00  0.00    -0.398 OA
ATOM     43  H7  UNL     1      28.967  31.457  14.556  1.00  0.00     0.209 HD
ENDBRANCH  41  42
ENDBRANCH  36  41
BRANCH  37  44
HETATM   44  O8  UNL     1      32.753  31.427  14.726  1.00  0.00    -0.390 OA
ATOM     45  H8  UNL     1      31.886  31.607  14.381  1.00  0.00     0.210 HD
ENDBRANCH  37  44
BRANCH  38  46
HETATM   46  O9  UNL     1      34.958  30.668  16.257  1.00  0.00    -0.388 OA
ATOM     47  H9  UNL     1      35.301  31.485  16.602  1.00  0.00     0.210 HD
ENDBRANCH  38  46
ENDBRANCH  32  33
ENDBRANCH   5  32
TORSDOF 20
ENDMDL
MODEL 4
REMARK VINA RESULT: -5.957925865      2.261      4.794
REMARK  20 active torsions:
REMARK  status: ('A' for Active; 'I' for Inactive)
REMARK    1  A    between atoms: C2_2  and  C3_3 
REMARK    2  A    between atoms: C3_3  and  C4_4 
REMARK    3  A    between atoms: C3_3  and  C15_16 
REMARK    4  A    between atoms: C4_4  and  C5_5 
REMARK    5  A    between atoms: C7_7  and  C8_8 
REMARK    6  A    between atoms: C8_8  and  N1_9 
REMARK    7  A    between atoms: N1_9  and  C9_10 
REMARK    8  A    between atoms: N1_9  and  C12_13 
REMARK    9  A    between atoms: C15_16  and  C16_17 
REMARK   10  A    between atoms: C16_17  and  O1_18 
REMARK   11  A    between atoms: C16_17  and  C17_20 
REMARK   12  A    between atoms: C18_21  and  C19_22 
REMARK   13  A    between atoms: C19_22  and  C20_24 
REMARK   14  A    between atoms: C23_28  and  O4_29 
REMARK   15  A    between atoms: O4_29  and  C24_30 
REMARK   16  A    between atoms: C26_33  and  O6_34 
REMARK   17  A    between atoms: C26_33  and  C27_36 
REMARK   18  A    between atoms: C27_36  and  O7_37 
REMARK   19  A    between atoms: C28_39  and  O8_40 
REMARK   20  A    between atoms: C29_42  and  O9_43 
ROOT
HETATM    1  C20 UNL     1      32.688  29.011  20.263  1.00  0.00     0.199 C 
HETATM    2  O3  UNL     1      33.853  29.443  20.861  1.00  0.00    -0.370 OA
HETATM    3  C21 UNL     1      34.689  28.401  21.243  1.00  0.00     0.147 C 
HETATM    4  C22 UNL     1      34.010  27.735  22.443  1.00  0.00     0.042 C 
HETATM    5  C23 UNL     1      34.994  27.417  20.177  1.00  0.00     0.153 C 
HETATM    6  C30 UNL     1      34.402  27.860  18.855  1.00  0.00     0.042 C 
HETATM    7  C31 UNL     1      32.952  28.154  19.045  1.00  0.00     0.021 C 
HETATM    8  C32 UNL     1      32.200  26.852  19.178  1.00  0.00     0.013 C 
ENDROOT
BRANCH   1   9
HETATM    9  C19 UNL     1      31.914  30.192  19.833  1.00  0.00     0.178 C 
HETATM   10  O2  UNL     1      30.991  30.639  20.592  1.00  0.00    -0.290 OA
BRANCH   9  11
HETATM   11  C18 UNL     1      32.208  30.827  18.566  1.00  0.00     0.051 C 
HETATM   12  C17 UNL     1      31.244  31.093  17.741  1.00  0.00     0.008 C 
BRANCH  12  13
HETATM   13  C16 UNL     1      31.448  31.756  16.387  1.00  0.00     0.141 C 
BRANCH  13  14
HETATM   14  C15 UNL     1      32.912  31.738  16.165  1.00  0.00     0.040 C 
BRANCH  14  15
HETATM   15  C3  UNL     1      33.431  31.761  14.787  1.00  0.00    -0.008 C 
BRANCH  15  16
HETATM   16  C2  UNL     1      33.567  33.183  14.252  1.00  0.00     0.000 C 
HETATM   17  C1  UNL     1      34.931  33.604  13.883  1.00  0.00     0.005 C 
ENDBRANCH  15  16
BRANCH  15  18
HETATM   18  C4  UNL     1      34.526  30.873  14.351  1.00  0.00     0.038 C 
BRANCH  18  19
HETATM   19  C5  UNL     1      35.214  30.055  15.330  1.00  0.00    -0.086 C 
HETATM   20  C6  UNL     1      36.230  30.530  16.340  1.00  0.00     0.043 C 
HETATM   21  C7  UNL     1      35.020  28.712  15.427  1.00  0.00    -0.005 C 
BRANCH  21  22
HETATM   22  C8  UNL     1      34.104  27.957  14.561  1.00  0.00     0.145 C 
BRANCH  22  23
HETATM   23  N1  UNL     1      32.977  27.358  15.173  1.00  0.00    -0.402 N 
BRANCH  23  24
HETATM   24  C9  UNL     1      31.916  28.256  15.344  1.00  0.00     0.071 C 
HETATM   25  C10 UNL     1      30.695  27.724  16.015  1.00  0.00     0.031 C 
HETATM   26  C11 UNL     1      31.479  28.761  13.962  1.00  0.00     0.031 C 
ENDBRANCH  23  24
BRANCH  23  27
HETATM   27  C12 UNL     1      32.808  25.989  15.287  1.00  0.00     0.071 C 
HETATM   28  C13 UNL     1      32.867  25.284  13.927  1.00  0.00     0.031 C 
HETATM   29  C14 UNL     1      33.859  25.361  16.165  1.00  0.00     0.031 C 
ENDBRANCH  23  27
ENDBRANCH  22  23
ENDBRANCH  21  22
ENDBRANCH  18  19
ENDBRANCH  15  18
ENDBRANCH  14  15
ENDBRANCH  13  14
BRANCH  13  30
HETATM   30  O1  UNL     1      30.805  32.953  16.493  1.00  0.00    -0.392 OA
ATOM     31  H1  UNL     1      30.062  33.134  15.928  1.00  0.00     0.210 HD
ENDBRANCH  13  30
ENDBRANCH  12  13
ENDBRANCH   9  11
ENDBRANCH   1   9
BRANCH   5  32
HETATM   32  O4  UNL     1      34.680  26.100  20.468  1.00  0.00    -0.351 OA
BRANCH  32  33
HETATM   33  C24 UNL     1      35.779  25.255  20.462  1.00  0.00     0.291 C 
HETATM   34  O5  UNL     1      35.734  24.530  19.269  1.00  0.00    -0.355 OA
HETATM   35  C25 UNL     1      35.008  23.349  19.422  1.00  0.00     0.213 C 
HETATM   36  C26 UNL     1      35.885  22.416  20.225  1.00  0.00     0.128 C 
HETATM   37  C28 UNL     1      36.589  23.119  21.335  1.00  0.00     0.190 C 
HETATM   38  C29 UNL     1      35.822  24.389  21.676  1.00  0.00     0.205 C 
BRANCH  36  39
HETATM   39  O6  UNL     1      36.868  21.942  19.338  1.00  0.00    -0.383 OA
ATOM     40  H6  UNL     1      37.313  21.236  19.791  1.00  0.00     0.210 HD
ENDBRANCH  36  39
BRANCH  36  41
HETATM   41  C27 UNL     1      35.083  21.231  20.711  1.00  0.00     0.206 C 
BRANCH  41  42
HETATM   42  O7  UNL     1      33.943  21.674  21.377  1.00  0.00    -0.398 OA
ATOM     43  H7  UNL     1      33.315  20.965  21.445  1.00  0.00     0.209 HD
ENDBRANCH  41  42
ENDBRANCH  36  41
BRANCH  37  44
HETATM   44  O8  UNL     1      36.589  22.321  22.482  1.00  0.00    -0.390 OA
ATOM     45  H8  UNL     1      36.916  22.817  23.223  1.00  0.00     0.210 HD
ENDBRANCH  37  44
BRANCH  38  46
HETATM   46  O9  UNL     1      36.499  25.102  22.680  1.00  0.00    -0.388 OA
ATOM     47  H9  UNL     1      36.105  25.965  22.732  1.00  0.00     0.210 HD
ENDBRANCH  38  46
ENDBRANCH  32  33
ENDBRANCH   5  32
TORSDOF 20
ENDMDL
MODEL 5
REMARK VINA RESULT: -5.954544897      3.297      5.694
REMARK  20 active torsions:
REMARK  status: ('A' for Active; 'I' for Inactive)
REMARK    1  A    between atoms: C2_2  and  C3_3 
REMARK    2  A    between atoms: C3_3  and  C4_4 
REMARK    3  A    between atoms: C3_3  and  C15_16 
REMARK    4  A    between atoms: C4_4  and  C5_5 
REMARK    5  A    between atoms: C7_7  and  C8_8 
REMARK    6  A    between atoms: C8_8  and  N1_9 
REMARK    7  A    between atoms: N1_9  and  C9_10 
REMARK    8  A    between atoms: N1_9  and  C12_13 
REMARK    9  A    between atoms: C15_16  and  C16_17 
REMARK   10  A    between atoms: C16_17  and  O1_18 
REMARK   11  A    between atoms: C16_17  and  C17_20 
REMARK   12  A    between atoms: C18_21  and  C19_22 
REMARK   13  A    between atoms: C19_22  and  C20_24 
REMARK   14  A    between atoms: C23_28  and  O4_29 
REMARK   15  A    between atoms: O4_29  and  C24_30 
REMARK   16  A    between atoms: C26_33  and  O6_34 
REMARK   17  A    between atoms: C26_33  and  C27_36 
REMARK   18  A    between atoms: C27_36  and  O7_37 
REMARK   19  A    between atoms: C28_39  and  O8_40 
REMARK   20  A    between atoms: C29_42  and  O9_43 
ROOT
HETATM    1  C20 UNL     1      33.299  29.811  19.292  1.00  0.00     0.199 C 
HETATM    2  O3  UNL     1      34.617  30.201  19.390  1.00  0.00    -0.370 OA
HETATM    3  C21 UNL     1      35.462  29.174  19.794  1.00  0.00     0.147 C 
HETATM    4  C22 UNL     1      35.150  28.931  21.273  1.00  0.00     0.042 C 
HETATM    5  C23 UNL     1      35.354  27.925  19.004  1.00  0.00     0.153 C 
HETATM    6  C30 UNL     1      34.409  28.110  17.835  1.00  0.00     0.042 C 
HETATM    7  C31 UNL     1      33.113  28.651  18.338  1.00  0.00     0.021 C 
HETATM    8  C32 UNL     1      32.357  27.547  19.037  1.00  0.00     0.013 C 
ENDROOT
BRANCH   1   9
HETATM    9  C19 UNL     1      32.508  30.950  18.787  1.00  0.00     0.178 C 
HETATM   10  O2  UNL     1      32.029  31.791  19.620  1.00  0.00    -0.290 OA
BRANCH   9  11
HETATM   11  C18 UNL     1      32.286  31.103  17.365  1.00  0.00     0.051 C 
HETATM   12  C17 UNL     1      31.418  31.966  16.939  1.00  0.00     0.008 C 
BRANCH  12  13
HETATM   13  C16 UNL     1      31.111  32.201  15.467  1.00  0.00     0.141 C 
BRANCH  13  14
HETATM   14  C15 UNL     1      31.602  33.568  15.183  1.00  0.00     0.040 C 
BRANCH  14  15
HETATM   15  C3  UNL     1      31.516  34.093  13.810  1.00  0.00    -0.008 C 
BRANCH  15  16
HETATM   16  C2  UNL     1      30.265  34.940  13.599  1.00  0.00     0.000 C 
HETATM   17  C1  UNL     1      29.782  35.679  14.778  1.00  0.00     0.005 C 
ENDBRANCH  15  16
BRANCH  15  18
HETATM   18  C4  UNL     1      32.698  34.623  13.103  1.00  0.00     0.038 C 
BRANCH  18  19
HETATM   19  C5  UNL     1      33.639  35.463  13.816  1.00  0.00    -0.086 C 
HETATM   20  C6  UNL     1      33.358  36.825  14.405  1.00  0.00     0.043 C 
HETATM   21  C7  UNL     1      34.935  35.102  14.019  1.00  0.00    -0.005 C 
BRANCH  21  22
HETATM   22  C8  UNL     1      35.512  33.838  13.542  1.00  0.00     0.145 C 
BRANCH  22  23
HETATM   23  N1  UNL     1      36.059  32.967  14.514  1.00  0.00    -0.402 N 
BRANCH  23  24
HETATM   24  C9  UNL     1      35.114  32.065  15.023  1.00  0.00     0.071 C 
HETATM   25  C10 UNL     1      35.631  31.005  15.935  1.00  0.00     0.031 C 
HETATM   26  C11 UNL     1      34.442  31.349  13.844  1.00  0.00     0.031 C 
ENDBRANCH  23  24
BRANCH  23  27
HETATM   27  C12 UNL     1      37.419  32.792  14.702  1.00  0.00     0.071 C 
HETATM   28  C13 UNL     1      38.161  32.566  13.380  1.00  0.00     0.031 C 
HETATM   29  C14 UNL     1      38.053  33.978  15.378  1.00  0.00     0.031 C 
ENDBRANCH  23  27
ENDBRANCH  22  23
ENDBRANCH  21  22
ENDBRANCH  18  19
ENDBRANCH  15  18
ENDBRANCH  14  15
ENDBRANCH  13  14
BRANCH  13  30
HETATM   30  O1  UNL     1      29.779  31.932  15.350  1.00  0.00    -0.392 OA
ATOM     31  H1  UNL     1      29.464  31.053  15.528  1.00  0.00     0.210 HD
ENDBRANCH  13  30
ENDBRANCH  12  13
ENDBRANCH   9  11
ENDBRANCH   1   9
BRANCH   5  32
HETATM   32  O4  UNL     1      35.062  26.780  19.728  1.00  0.00    -0.351 OA
BRANCH  32  33
HETATM   33  C24 UNL     1      36.143  25.923  19.866  1.00  0.00     0.291 C 
HETATM   34  O5  UNL     1      36.048  24.973  18.846  1.00  0.00    -0.355 OA
HETATM   35  C25 UNL     1      35.302  23.867  19.252  1.00  0.00     0.213 C 
HETATM   36  C26 UNL     1      36.182  23.093  20.206  1.00  0.00     0.128 C 
HETATM   37  C28 UNL     1      36.933  23.987  21.134  1.00  0.00     0.190 C 
HETATM   38  C29 UNL     1      36.202  25.319  21.229  1.00  0.00     0.205 C 
BRANCH  36  39
HETATM   39  O6  UNL     1      37.129  22.424  19.411  1.00  0.00    -0.383 OA
ATOM     40  H6  UNL     1      37.961  22.515  19.859  1.00  0.00     0.210 HD
ENDBRANCH  36  39
BRANCH  36  41
HETATM   41  C27 UNL     1      35.370  22.051  20.941  1.00  0.00     0.206 C 
BRANCH  41  42
HETATM   42  O7  UNL     1      34.138  22.587  21.309  1.00  0.00    -0.398 OA
ATOM     43  H7  UNL     1      33.520  21.886  21.476  1.00  0.00     0.209 HD
ENDBRANCH  41  42
ENDBRANCH  36  41
BRANCH  37  44
HETATM   44  O8  UNL     1      36.949  23.437  22.419  1.00  0.00    -0.390 OA
ATOM     45  H8  UNL     1      37.642  22.791  22.486  1.00  0.00     0.210 HD
ENDBRANCH  37  44
BRANCH  38  46
HETATM   46  O9  UNL     1      36.923  26.202  22.051  1.00  0.00    -0.388 OA
ATOM     47  H9  UNL     1      36.479  26.237  22.891  1.00  0.00     0.210 HD
ENDBRANCH  38  46
ENDBRANCH  32  33
ENDBRANCH   5  32
TORSDOF 20
ENDMDL
