MODEL 1
REMARK VINA RESULT: -5.423766871      0.000      0.000
REMARK  19 active torsions:
REMARK  status: ('A' for Active; 'I' for Inactive)
REMARK    1  A    between atoms: O1_2  and  C2_3 
REMARK    2  A    between atoms: C2_3  and  C3_5 
REMARK    3  A    between atoms: C5_7  and  O3_8 
REMARK    4  A    between atoms: C6_10  and  N1_11 
REMARK    5  A    between atoms: N1_11  and  C7_12 
REMARK    6  A    between atoms: N1_11  and  C8_15 
REMARK    7  A    between atoms: C7_12  and  O4_13 
REMARK    8  A    between atoms: C8_15  and  C9_16 
REMARK    9  A    between atoms: C9_16  and  O5_17 
REMARK   10  A    between atoms: C10_19  and  N2_20 
REMARK   11  A    between atoms: N2_20  and  C11_22 
REMARK   12  A    between atoms: C11_22  and  C12_23 
REMARK   13  A    between atoms: C12_23  and  O6_24 
REMARK   14  A    between atoms: C13_26  and  O7_27 
REMARK   15  A    between atoms: C17_32  and  C18_33 
REMARK   16  A    between atoms: C24_41  and  O10_43 
REMARK   17  A    between atoms: O10_43  and  C26_44 
REMARK   18  A    between atoms: C29_48  and  O12_49 
REMARK   19  A    between atoms: O12_49  and  C30_50 
ROOT
HETATM    1  C3  UNL     1       5.196  16.320  89.007  1.00  0.00     0.122 A 
HETATM    2  C4  UNL     1       5.850  16.403  87.860  1.00  0.00     0.045 A 
HETATM    3  C5  UNL     1       7.144  16.794  88.026  1.00  0.00     0.108 A 
HETATM    4  C6  UNL     1       7.980  16.943  86.922  1.00  0.00     0.096 A 
HETATM    5  C10 UNL     1       7.532  16.706  85.670  1.00  0.00     0.092 A 
HETATM    6  C13 UNL     1       6.215  16.301  85.431  1.00  0.00     0.105 A 
HETATM    7  C14 UNL     1       5.395  16.159  86.546  1.00  0.00     0.011 A 
HETATM    8  C15 UNL     1       4.183  15.795  86.192  1.00  0.00    -0.006 A 
HETATM    9  C16 UNL     1       2.902  15.503  86.819  1.00  0.00     0.081 A 
HETATM   10  C17 UNL     1       2.876  15.554  88.274  1.00  0.00     0.006 A 
HETATM   11  N3  UNL     1       3.811  15.883  89.038  1.00  0.00    -0.356 N 
ATOM     12  H3  UNL     1       3.494  15.824  90.006  1.00  0.00     0.166 HD
ENDROOT
BRANCH  10  13
HETATM   13  C18 UNL     1       1.608  15.171  88.968  1.00  0.00     0.136 C 
HETATM   14  C19 UNL     1       1.098  16.386  89.616  1.00  0.00     0.156 C 
HETATM   15  O8  UNL     1       1.101  17.467  89.000  1.00  0.00    -0.296 OA
HETATM   16  C20 UNL     1       0.551  16.471  90.993  1.00  0.00     0.078 C 
HETATM   17  C21 UNL     1      -0.951  16.603  91.001  1.00  0.00     0.031 C 
HETATM   18  C22 UNL     1       1.210  17.694  91.624  1.00  0.00     0.031 C 
HETATM   19  C23 UNL     1       0.923  15.247  91.729  1.00  0.00     0.181 C 
HETATM   20  O9  UNL     1       1.292  15.350  92.864  1.00  0.00    -0.293 OA
HETATM   21  C24 UNL     1       0.812  13.914  90.997  1.00  0.00     0.154 C 
HETATM   22  C25 UNL     1       1.178  12.880  92.038  1.00  0.00     0.060 C 
HETATM   23  C28 UNL     1       1.762  14.019  89.883  1.00  0.00     0.001 C 
HETATM   24  C29 UNL     1       2.738  13.159  89.650  1.00  0.00     0.156 C 
BRANCH  21  25
HETATM   25  O10 UNL     1      -0.525  13.791  90.684  1.00  0.00    -0.298 OA
BRANCH  25  26
HETATM   26  C26 UNL     1      -1.395  12.945  91.327  1.00  0.00     0.256 C 
HETATM   27  C27 UNL     1      -2.219  13.356  92.490  1.00  0.00     0.126 C 
HETATM   28  O11 UNL     1      -1.475  11.782  90.893  1.00  0.00    -0.266 OA
ENDBRANCH  25  26
ENDBRANCH  21  25
BRANCH  24  29
HETATM   29  O12 UNL     1       3.003  12.039  90.418  1.00  0.00    -0.265 OA
BRANCH  29  30
HETATM   30  C30 UNL     1       3.414  10.854  89.888  1.00  0.00     0.337 C 
HETATM   31  O13 UNL     1       3.591  10.708  88.658  1.00  0.00    -0.623 OA
HETATM   32  O14 UNL     1       3.649   9.767  90.715  1.00  0.00    -0.623 OA
ENDBRANCH  29  30
ENDBRANCH  24  29
ENDBRANCH  10  13
BRANCH   1  33
HETATM   33  C2  UNL     1       5.754  16.605  90.269  1.00  0.00     0.310 C 
HETATM   34  O2  UNL     1       5.945  17.478  91.014  1.00  0.00    -0.258 OA
BRANCH  33  35
HETATM   35  O1  UNL     1       6.299  15.401  90.901  1.00  0.00    -0.321 OA
HETATM   36  C1  UNL     1       5.578  14.818  91.959  1.00  0.00     0.213 C 
ENDBRANCH  33  35
ENDBRANCH   1  33
BRANCH   6  37
HETATM   37  O7  UNL     1       5.798  16.072  84.191  1.00  0.00    -0.357 OA
ATOM     38  H7  UNL     1       5.379  15.248  83.971  1.00  0.00     0.217 HD
ENDBRANCH   6  37
BRANCH   3  39
HETATM   39  O3  UNL     1       7.671  17.047  89.254  1.00  0.00    -0.357 OA
ATOM     40  H3  UNL     1       8.035  17.894  89.482  1.00  0.00     0.217 HD
ENDBRANCH   3  39
BRANCH   5  41
HETATM   41  N2  UNL     1       8.385  16.898  84.582  1.00  0.00    -0.384 N 
ATOM     42  H2  UNL     1       8.472  17.842  84.206  1.00  0.00     0.159 HD
BRANCH  41  43
HETATM   43  C11 UNL     1       9.145  15.859  83.961  1.00  0.00     0.146 C 
BRANCH  43  44
HETATM   44  C12 UNL     1      10.617  16.339  83.780  1.00  0.00     0.183 C 
BRANCH  44  45
HETATM   45  O6  UNL     1      10.572  17.699  83.641  1.00  0.00    -0.399 OA
ATOM     46  H6  UNL     1       9.766  17.989  84.053  1.00  0.00     0.209 HD
ENDBRANCH  44  45
ENDBRANCH  43  44
ENDBRANCH  41  43
ENDBRANCH   5  41
BRANCH   4  47
HETATM   47  N1  UNL     1       9.328  17.391  87.184  1.00  0.00    -0.353 N 
BRANCH  47  48
HETATM   48  C7  UNL     1       9.573  18.816  87.174  1.00  0.00     0.290 C 
BRANCH  48  49
HETATM   49  O4  UNL     1       9.918  19.337  85.932  1.00  0.00    -0.382 OA
ATOM     50  H4  UNL     1       9.449  20.128  85.690  1.00  0.00     0.211 HD
ENDBRANCH  48  49
ENDBRANCH  47  48
BRANCH  47  51
HETATM   51  C8  UNL     1      10.381  16.453  87.481  1.00  0.00     0.151 C 
BRANCH  51  52
HETATM   52  C9  UNL     1      11.180  16.707  88.710  1.00  0.00     0.183 C 
BRANCH  52  53
HETATM   53  O5  UNL     1      10.481  16.613  89.889  1.00  0.00    -0.399 OA
ATOM     54  H5  UNL     1      10.969  16.856  90.667  1.00  0.00     0.209 HD
ENDBRANCH  52  53
ENDBRANCH  51  52
ENDBRANCH  47  51
ENDBRANCH   4  47
TORSDOF 19
ENDMDL
MODEL 2
REMARK VINA RESULT: -5.343455109      3.032      6.104
REMARK  19 active torsions:
REMARK  status: ('A' for Active; 'I' for Inactive)
REMARK    1  A    between atoms: O1_2  and  C2_3 
REMARK    2  A    between atoms: C2_3  and  C3_5 
REMARK    3  A    between atoms: C5_7  and  O3_8 
REMARK    4  A    between atoms: C6_10  and  N1_11 
REMARK    5  A    between atoms: N1_11  and  C7_12 
REMARK    6  A    between atoms: N1_11  and  C8_15 
REMARK    7  A    between atoms: C7_12  and  O4_13 
REMARK    8  A    between atoms: C8_15  and  C9_16 
REMARK    9  A    between atoms: C9_16  and  O5_17 
REMARK   10  A    between atoms: C10_19  and  N2_20 
REMARK   11  A    between atoms: N2_20  and  C11_22 
REMARK   12  A    between atoms: C11_22  and  C12_23 
REMARK   13  A    between atoms: C12_23  and  O6_24 
REMARK   14  A    between atoms: C13_26  and  O7_27 
REMARK   15  A    between atoms: C17_32  and  C18_33 
REMARK   16  A    between atoms: C24_41  and  O10_43 
REMARK   17  A    between atoms: O10_43  and  C26_44 
REMARK   18  A    between atoms: C29_48  and  O12_49 
REMARK   19  A    between atoms: O12_49  and  C30_50 
ROOT
HETATM    1  C3  UNL     1       9.482  18.127  85.804  1.00  0.00     0.122 A 
HETATM    2  C4  UNL     1      10.134  17.344  84.960  1.00  0.00     0.045 A 
HETATM    3  C5  UNL     1      11.396  17.787  84.708  1.00  0.00     0.108 A 
HETATM    4  C6  UNL     1      12.225  17.088  83.833  1.00  0.00     0.096 A 
HETATM    5  C10 UNL     1      11.800  15.963  83.217  1.00  0.00     0.092 A 
HETATM    6  C13 UNL     1      10.515  15.456  83.433  1.00  0.00     0.105 A 
HETATM    7  C14 UNL     1       9.702  16.168  84.309  1.00  0.00     0.011 A 
HETATM    8  C15 UNL     1       8.520  15.604  84.413  1.00  0.00    -0.006 A 
HETATM    9  C16 UNL     1       7.259  15.827  85.106  1.00  0.00     0.081 A 
HETATM   10  C17 UNL     1       7.223  16.961  86.019  1.00  0.00     0.006 A 
HETATM   11  N3  UNL     1       8.130  17.798  86.223  1.00  0.00    -0.356 N 
ATOM     12  H3  UNL     1       7.814  18.478  86.915  1.00  0.00     0.166 HD
ENDROOT
BRANCH  10  13
HETATM   13  C18 UNL     1       5.982  17.175  86.824  1.00  0.00     0.136 C 
HETATM   14  C19 UNL     1       6.162  16.438  88.081  1.00  0.00     0.156 C 
HETATM   15  O8  UNL     1       7.247  16.498  88.687  1.00  0.00    -0.296 OA
HETATM   16  C20 UNL     1       5.142  15.585  88.742  1.00  0.00     0.078 C 
HETATM   17  C21 UNL     1       4.547  16.250  89.958  1.00  0.00     0.031 C 
HETATM   18  C22 UNL     1       5.864  14.296  89.122  1.00  0.00     0.031 C 
HETATM   19  C23 UNL     1       4.060  15.307  87.778  1.00  0.00     0.181 C 
HETATM   20  O9  UNL     1       3.609  14.197  87.727  1.00  0.00    -0.293 OA
HETATM   21  C24 UNL     1       3.573  16.454  86.900  1.00  0.00     0.154 C 
HETATM   22  C25 UNL     1       2.429  15.863  86.107  1.00  0.00     0.060 C 
HETATM   23  C28 UNL     1       4.741  16.831  86.096  1.00  0.00     0.001 C 
HETATM   24  C29 UNL     1       4.754  16.882  84.776  1.00  0.00     0.156 C 
BRANCH  21  25
HETATM   25  O10 UNL     1       3.078  17.390  87.783  1.00  0.00    -0.298 OA
BRANCH  25  26
HETATM   26  C26 UNL     1       1.748  17.532  88.096  1.00  0.00     0.256 C 
HETATM   27  C27 UNL     1       1.040  16.654  89.059  1.00  0.00     0.126 C 
HETATM   28  O11 UNL     1       1.130  18.450  87.527  1.00  0.00    -0.266 OA
ENDBRANCH  25  26
ENDBRANCH  21  25
BRANCH  24  29
HETATM   29  O12 UNL     1       3.673  16.587  83.964  1.00  0.00    -0.265 OA
BRANCH  29  30
HETATM   30  C30 UNL     1       3.713  15.638  82.988  1.00  0.00     0.337 C 
HETATM   31  O13 UNL     1       2.670  15.175  82.475  1.00  0.00    -0.623 OA
HETATM   32  O14 UNL     1       4.932  15.159  82.535  1.00  0.00    -0.623 OA
ENDBRANCH  29  30
ENDBRANCH  24  29
ENDBRANCH  10  13
BRANCH   1  33
HETATM   33  C2  UNL     1      10.013  19.295  86.385  1.00  0.00     0.310 C 
HETATM   34  O2  UNL     1      10.149  20.435  86.197  1.00  0.00    -0.258 OA
BRANCH  33  35
HETATM   35  O1  UNL     1      10.621  19.019  87.689  1.00  0.00    -0.321 OA
HETATM   36  C1  UNL     1      11.032  20.110  88.477  1.00  0.00     0.213 C 
ENDBRANCH  33  35
ENDBRANCH   1  33
BRANCH   6  37
HETATM   37  O7  UNL     1      10.120  14.347  82.817  1.00  0.00    -0.357 OA
ATOM     38  H7  UNL     1       9.609  13.696  83.284  1.00  0.00     0.217 HD
ENDBRANCH   6  37
BRANCH   3  39
HETATM   39  O3  UNL     1      11.899  18.907  85.293  1.00  0.00    -0.357 OA
ATOM     40  H3  UNL     1      12.128  18.935  86.215  1.00  0.00     0.217 HD
ENDBRANCH   3  39
BRANCH   5  41
HETATM   41  N2  UNL     1      12.642  15.306  82.320  1.00  0.00    -0.384 N 
ATOM     42  H2  UNL     1      13.600  15.120  82.615  1.00  0.00     0.159 HD
BRANCH  41  43
HETATM   43  C11 UNL     1      12.249  14.876  81.015  1.00  0.00     0.146 C 
BRANCH  43  44
HETATM   44  C12 UNL     1      13.433  15.096  80.025  1.00  0.00     0.183 C 
BRANCH  44  45
HETATM   45  O6  UNL     1      14.584  14.950  80.750  1.00  0.00    -0.399 OA
ATOM     46  H6  UNL     1      14.785  15.804  81.116  1.00  0.00     0.209 HD
ENDBRANCH  44  45
ENDBRANCH  43  44
ENDBRANCH  41  43
ENDBRANCH   5  41
BRANCH   4  47
HETATM   47  N1  UNL     1      13.538  17.643  83.600  1.00  0.00    -0.353 N 
BRANCH  47  48
HETATM   48  C7  UNL     1      13.882  17.998  82.240  1.00  0.00     0.290 C 
BRANCH  48  49
HETATM   49  O4  UNL     1      15.053  17.416  81.767  1.00  0.00    -0.382 OA
ATOM     50  H4  UNL     1      15.015  16.472  81.669  1.00  0.00     0.211 HD
ENDBRANCH  48  49
ENDBRANCH  47  48
BRANCH  47  51
HETATM   51  C8  UNL     1      14.457  17.869  84.686  1.00  0.00     0.151 C 
BRANCH  51  52
HETATM   52  C9  UNL     1      15.201  19.157  84.680  1.00  0.00     0.183 C 
BRANCH  52  53
HETATM   53  O5  UNL     1      14.559  20.204  85.297  1.00  0.00    -0.399 OA
ATOM     54  H5  UNL     1      14.371  20.948  84.738  1.00  0.00     0.209 HD
ENDBRANCH  52  53
ENDBRANCH  51  52
ENDBRANCH  47  51
ENDBRANCH   4  47
TORSDOF 19
ENDMDL
MODEL 3
REMARK VINA RESULT: -5.257805783      4.700     11.909
REMARK  19 active torsions:
REMARK  status: ('A' for Active; 'I' for Inactive)
REMARK    1  A    between atoms: O1_2  and  C2_3 
REMARK    2  A    between atoms: C2_3  and  C3_5 
REMARK    3  A    between atoms: C5_7  and  O3_8 
REMARK    4  A    between atoms: C6_10  and  N1_11 
REMARK    5  A    between atoms: N1_11  and  C7_12 
REMARK    6  A    between atoms: N1_11  and  C8_15 
REMARK    7  A    between atoms: C7_12  and  O4_13 
REMARK    8  A    between atoms: C8_15  and  C9_16 
REMARK    9  A    between atoms: C9_16  and  O5_17 
REMARK   10  A    between atoms: C10_19  and  N2_20 
REMARK   11  A    between atoms: N2_20  and  C11_22 
REMARK   12  A    between atoms: C11_22  and  C12_23 
REMARK   13  A    between atoms: C12_23  and  O6_24 
REMARK   14  A    between atoms: C13_26  and  O7_27 
REMARK   15  A    between atoms: C17_32  and  C18_33 
REMARK   16  A    between atoms: C24_41  and  O10_43 
REMARK   17  A    between atoms: O10_43  and  C26_44 
REMARK   18  A    between atoms: C29_48  and  O12_49 
REMARK   19  A    between atoms: O12_49  and  C30_50 
ROOT
HETATM    1  C3  UNL     1      10.420  17.289  86.008  1.00  0.00     0.122 A 
HETATM    2  C4  UNL     1       9.340  17.457  86.754  1.00  0.00     0.045 A 
HETATM    3  C5  UNL     1       8.242  16.848  86.226  1.00  0.00     0.108 A 
HETATM    4  C6  UNL     1       7.013  16.928  86.876  1.00  0.00     0.096 A 
HETATM    5  C10 UNL     1       6.880  17.606  88.037  1.00  0.00     0.092 A 
HETATM    6  C13 UNL     1       7.967  18.254  88.632  1.00  0.00     0.105 A 
HETATM    7  C14 UNL     1       9.186  18.163  87.967  1.00  0.00     0.011 A 
HETATM    8  C15 UNL     1      10.121  18.824  88.612  1.00  0.00    -0.006 A 
HETATM    9  C16 UNL     1      11.536  19.136  88.471  1.00  0.00     0.081 A 
HETATM   10  C17 UNL     1      12.212  18.534  87.329  1.00  0.00     0.006 A 
HETATM   11  N3  UNL     1      11.699  17.836  86.427  1.00  0.00    -0.356 N 
ATOM     12  H3  UNL     1      12.421  17.558  85.761  1.00  0.00     0.166 HD
ENDROOT
BRANCH  10  13
HETATM   13  C18 UNL     1      13.685  18.748  87.192  1.00  0.00     0.136 C 
HETATM   14  C19 UNL     1      14.318  18.056  88.323  1.00  0.00     0.156 C 
HETATM   15  O8  UNL     1      13.940  16.916  88.644  1.00  0.00    -0.296 OA
HETATM   16  C20 UNL     1      15.415  18.594  89.166  1.00  0.00     0.078 C 
HETATM   17  C21 UNL     1      16.741  17.950  88.852  1.00  0.00     0.031 C 
HETATM   18  C22 UNL     1      15.000  18.317  90.608  1.00  0.00     0.031 C 
HETATM   19  C23 UNL     1      15.526  20.047  88.931  1.00  0.00     0.181 C 
HETATM   20  O9  UNL     1      15.698  20.769  89.872  1.00  0.00    -0.293 OA
HETATM   21  C24 UNL     1      15.418  20.547  87.494  1.00  0.00     0.154 C 
HETATM   22  C25 UNL     1      15.655  22.037  87.595  1.00  0.00     0.060 C 
HETATM   23  C28 UNL     1      14.064  20.173  87.069  1.00  0.00     0.001 C 
HETATM   24  C29 UNL     1      13.171  21.020  86.589  1.00  0.00     0.156 C 
BRANCH  21  25
HETATM   25  O10 UNL     1      16.477  19.961  86.834  1.00  0.00    -0.298 OA
BRANCH  25  26
HETATM   26  C26 UNL     1      16.942  20.364  85.606  1.00  0.00     0.256 C 
HETATM   27  C27 UNL     1      16.166  20.207  84.351  1.00  0.00     0.126 C 
HETATM   28  O11 UNL     1      18.072  20.882  85.573  1.00  0.00    -0.266 OA
ENDBRANCH  25  26
ENDBRANCH  21  25
BRANCH  24  29
HETATM   29  O12 UNL     1      13.382  22.377  86.418  1.00  0.00    -0.265 OA
BRANCH  29  30
HETATM   30  C30 UNL     1      12.375  23.294  86.431  1.00  0.00     0.337 C 
HETATM   31  O13 UNL     1      12.464  24.362  87.075  1.00  0.00    -0.623 OA
HETATM   32  O14 UNL     1      11.211  23.057  85.717  1.00  0.00    -0.623 OA
ENDBRANCH  29  30
ENDBRANCH  24  29
ENDBRANCH  10  13
BRANCH   1  33
HETATM   33  C2  UNL     1      10.451  16.570  84.797  1.00  0.00     0.310 C 
HETATM   34  O2  UNL     1      10.467  15.489  84.370  1.00  0.00    -0.258 OA
BRANCH  33  35
HETATM   35  O1  UNL     1      10.476  17.468  83.639  1.00  0.00    -0.321 OA
HETATM   36  C1  UNL     1      11.684  17.610  82.931  1.00  0.00     0.213 C 
ENDBRANCH  33  35
ENDBRANCH   1  33
BRANCH   6  37
HETATM   37  O7  UNL     1       7.812  18.913  89.774  1.00  0.00    -0.357 OA
ATOM     38  H7  UNL     1       8.455  18.826  90.469  1.00  0.00     0.217 HD
ENDBRANCH   6  37
BRANCH   3  39
HETATM   39  O3  UNL     1       8.296  16.142  85.065  1.00  0.00    -0.357 OA
ATOM     40  H3  UNL     1       7.566  16.112  84.458  1.00  0.00     0.217 HD
ENDBRANCH   3  39
BRANCH   5  41
HETATM   41  N2  UNL     1       5.627  17.697  88.645  1.00  0.00    -0.384 N 
ATOM     42  H2  UNL     1       5.422  17.057  89.411  1.00  0.00     0.159 HD
BRANCH  41  43
HETATM   43  C11 UNL     1       4.614  18.630  88.264  1.00  0.00     0.146 C 
BRANCH  43  44
HETATM   44  C12 UNL     1       4.652  19.852  89.231  1.00  0.00     0.183 C 
BRANCH  44  45
HETATM   45  O6  UNL     1       4.684  20.972  88.446  1.00  0.00    -0.399 OA
ATOM     46  H6  UNL     1       3.802  21.325  88.438  1.00  0.00     0.209 HD
ENDBRANCH  44  45
ENDBRANCH  43  44
ENDBRANCH  41  43
ENDBRANCH   5  41
BRANCH   4  47
HETATM   47  N1  UNL     1       5.894  16.279  86.232  1.00  0.00    -0.353 N 
BRANCH  47  48
HETATM   48  C7  UNL     1       5.654  14.889  86.552  1.00  0.00     0.290 C 
BRANCH  48  49
HETATM   49  O4  UNL     1       6.467  13.989  85.872  1.00  0.00    -0.382 OA
ATOM     50  H4  UNL     1       7.394  14.065  86.068  1.00  0.00     0.211 HD
ENDBRANCH  48  49
ENDBRANCH  47  48
BRANCH  47  51
HETATM   51  C8  UNL     1       5.029  17.000  85.334  1.00  0.00     0.151 C 
BRANCH  51  52
HETATM   52  C9  UNL     1       5.072  16.607  83.900  1.00  0.00     0.183 C 
BRANCH  52  53
HETATM   53  O5  UNL     1       6.220  16.961  83.233  1.00  0.00    -0.399 OA
ATOM     54  H5  UNL     1       6.087  17.492  82.457  1.00  0.00     0.209 HD
ENDBRANCH  52  53
ENDBRANCH  51  52
ENDBRANCH  47  51
ENDBRANCH   4  47
TORSDOF 19
ENDMDL
MODEL 4
REMARK VINA RESULT: -5.187866588      3.459      7.947
REMARK  19 active torsions:
REMARK  status: ('A' for Active; 'I' for Inactive)
REMARK    1  A    between atoms: O1_2  and  C2_3 
REMARK    2  A    between atoms: C2_3  and  C3_5 
REMARK    3  A    between atoms: C5_7  and  O3_8 
REMARK    4  A    between atoms: C6_10  and  N1_11 
REMARK    5  A    between atoms: N1_11  and  C7_12 
REMARK    6  A    between atoms: N1_11  and  C8_15 
REMARK    7  A    between atoms: C7_12  and  O4_13 
REMARK    8  A    between atoms: C8_15  and  C9_16 
REMARK    9  A    between atoms: C9_16  and  O5_17 
REMARK   10  A    between atoms: C10_19  and  N2_20 
REMARK   11  A    between atoms: N2_20  and  C11_22 
REMARK   12  A    between atoms: C11_22  and  C12_23 
REMARK   13  A    between atoms: C12_23  and  O6_24 
REMARK   14  A    between atoms: C13_26  and  O7_27 
REMARK   15  A    between atoms: C17_32  and  C18_33 
REMARK   16  A    between atoms: C24_41  and  O10_43 
REMARK   17  A    between atoms: O10_43  and  C26_44 
REMARK   18  A    between atoms: C29_48  and  O12_49 
REMARK   19  A    between atoms: O12_49  and  C30_50 
ROOT
HETATM    1  C3  UNL     1       5.892  15.951  85.626  1.00  0.00     0.122 A 
HETATM    2  C4  UNL     1       4.640  16.319  85.408  1.00  0.00     0.045 A 
HETATM    3  C5  UNL     1       4.390  16.565  84.092  1.00  0.00     0.108 A 
HETATM    4  C6  UNL     1       3.123  16.972  83.681  1.00  0.00     0.096 A 
HETATM    5  C10 UNL     1       2.118  17.131  84.570  1.00  0.00     0.092 A 
HETATM    6  C13 UNL     1       2.308  16.895  85.935  1.00  0.00     0.105 A 
HETATM    7  C14 UNL     1       3.581  16.490  86.326  1.00  0.00     0.011 A 
HETATM    8  C15 UNL     1       3.637  16.319  87.627  1.00  0.00    -0.006 A 
HETATM    9  C16 UNL     1       4.612  15.940  88.640  1.00  0.00     0.081 A 
HETATM   10  C17 UNL     1       5.934  15.573  88.148  1.00  0.00     0.006 A 
HETATM   11  N3  UNL     1       6.339  15.610  86.965  1.00  0.00    -0.356 N 
ATOM     12  H3  UNL     1       7.310  15.297  86.929  1.00  0.00     0.166 HD
ENDROOT
BRANCH  10  13
HETATM   13  C18 UNL     1       6.942  15.087  89.139  1.00  0.00     0.136 C 
HETATM   14  C19 UNL     1       6.509  13.747  89.558  1.00  0.00     0.156 C 
HETATM   15  O8  UNL     1       6.110  12.930  88.710  1.00  0.00    -0.296 OA
HETATM   16  C20 UNL     1       6.494  13.236  90.952  1.00  0.00     0.078 C 
HETATM   17  C21 UNL     1       7.614  12.260  91.210  1.00  0.00     0.031 C 
HETATM   18  C22 UNL     1       5.135  12.568  91.132  1.00  0.00     0.031 C 
HETATM   19  C23 UNL     1       6.637  14.375  91.878  1.00  0.00     0.181 C 
HETATM   20  O9  UNL     1       5.957  14.402  92.864  1.00  0.00    -0.293 OA
HETATM   21  C24 UNL     1       7.650  15.459  91.524  1.00  0.00     0.154 C 
HETATM   22  C25 UNL     1       7.607  16.413  92.697  1.00  0.00     0.060 C 
HETATM   23  C28 UNL     1       7.166  16.025  90.260  1.00  0.00     0.001 C 
HETATM   24  C29 UNL     1       6.919  17.309  90.062  1.00  0.00     0.156 C 
BRANCH  21  25
HETATM   25  O10 UNL     1       8.868  14.814  91.508  1.00  0.00    -0.298 OA
BRANCH  25  26
HETATM   26  C26 UNL     1      10.084  15.454  91.527  1.00  0.00     0.256 C 
HETATM   27  C27 UNL     1      10.519  16.404  90.474  1.00  0.00     0.126 C 
HETATM   28  O11 UNL     1      10.837  15.205  92.484  1.00  0.00    -0.266 OA
ENDBRANCH  25  26
ENDBRANCH  21  25
BRANCH  24  29
HETATM   29  O12 UNL     1       7.081  18.300  91.015  1.00  0.00    -0.265 OA
BRANCH  29  30
HETATM   30  C30 UNL     1       6.860  19.619  90.760  1.00  0.00     0.337 C 
HETATM   31  O13 UNL     1       5.960  19.997  89.978  1.00  0.00    -0.623 OA
HETATM   32  O14 UNL     1       7.641  20.586  91.373  1.00  0.00    -0.623 OA
ENDBRANCH  29  30
ENDBRANCH  24  29
ENDBRANCH  10  13
BRANCH   1  33
HETATM   33  C2  UNL     1       6.875  15.828  84.624  1.00  0.00     0.310 C 
HETATM   34  O2  UNL     1       7.250  15.112  83.788  1.00  0.00    -0.258 OA
BRANCH  33  35
HETATM   35  O1  UNL     1       7.761  16.994  84.594  1.00  0.00    -0.321 OA
HETATM   36  C1  UNL     1       9.095  16.829  85.010  1.00  0.00     0.213 C 
ENDBRANCH  33  35
ENDBRANCH   1  33
BRANCH   6  37
HETATM   37  O7  UNL     1       1.305  17.056  86.790  1.00  0.00    -0.357 OA
ATOM     38  H7  UNL     1       1.173  16.436  87.497  1.00  0.00     0.217 HD
ENDBRANCH   6  37
BRANCH   3  39
HETATM   39  O3  UNL     1       5.347  16.422  83.137  1.00  0.00    -0.357 OA
ATOM     40  H3  UNL     1       5.525  15.586  82.722  1.00  0.00     0.217 HD
ENDBRANCH   3  39
BRANCH   5  41
HETATM   41  N2  UNL     1       0.870  17.574  84.130  1.00  0.00    -0.384 N 
ATOM     42  H2  UNL     1       0.730  18.579  84.027  1.00  0.00     0.159 HD
BRANCH  41  43
HETATM   43  C11 UNL     1      -0.224  16.711  83.814  1.00  0.00     0.146 C 
BRANCH  43  44
HETATM   44  C12 UNL     1      -1.491  17.185  84.590  1.00  0.00     0.183 C 
BRANCH  44  45
HETATM   45  O6  UNL     1      -1.106  18.250  85.357  1.00  0.00    -0.399 OA
ATOM     46  H6  UNL     1      -1.818  18.879  85.328  1.00  0.00     0.209 HD
ENDBRANCH  44  45
ENDBRANCH  43  44
ENDBRANCH  41  43
ENDBRANCH   5  41
BRANCH   4  47
HETATM   47  N1  UNL     1       2.953  17.241  82.272  1.00  0.00    -0.353 N 
BRANCH  47  48
HETATM   48  C7  UNL     1       2.630  16.123  81.413  1.00  0.00     0.290 C 
BRANCH  48  49
HETATM   49  O4  UNL     1       2.950  14.876  81.938  1.00  0.00    -0.382 OA
ATOM     50  H4  UNL     1       2.210  14.289  82.047  1.00  0.00     0.211 HD
ENDBRANCH  48  49
ENDBRANCH  47  48
BRANCH  47  51
HETATM   51  C8  UNL     1       3.065  18.578  81.748  1.00  0.00     0.151 C 
BRANCH  51  52
HETATM   52  C9  UNL     1       2.470  18.826  80.407  1.00  0.00     0.183 C 
BRANCH  52  53
HETATM   53  O5  UNL     1       3.347  19.287  79.456  1.00  0.00    -0.399 OA
ATOM     54  H5  UNL     1       3.190  18.969  78.575  1.00  0.00     0.209 HD
ENDBRANCH  52  53
ENDBRANCH  51  52
ENDBRANCH  47  51
ENDBRANCH   4  47
TORSDOF 19
ENDMDL
MODEL 5
REMARK VINA RESULT: -5.180025118      3.571     10.864
REMARK  19 active torsions:
REMARK  status: ('A' for Active; 'I' for Inactive)
REMARK    1  A    between atoms: O1_2  and  C2_3 
REMARK    2  A    between atoms: C2_3  and  C3_5 
REMARK    3  A    between atoms: C5_7  and  O3_8 
REMARK    4  A    between atoms: C6_10  and  N1_11 
REMARK    5  A    between atoms: N1_11  and  C7_12 
REMARK    6  A    between atoms: N1_11  and  C8_15 
REMARK    7  A    between atoms: C7_12  and  O4_13 
REMARK    8  A    between atoms: C8_15  and  C9_16 
REMARK    9  A    between atoms: C9_16  and  O5_17 
REMARK   10  A    between atoms: C10_19  and  N2_20 
REMARK   11  A    between atoms: N2_20  and  C11_22 
REMARK   12  A    between atoms: C11_22  and  C12_23 
REMARK   13  A    between atoms: C12_23  and  O6_24 
REMARK   14  A    between atoms: C13_26  and  O7_27 
REMARK   15  A    between atoms: C17_32  and  C18_33 
REMARK   16  A    between atoms: C24_41  and  O10_43 
REMARK   17  A    between atoms: O10_43  and  C26_44 
REMARK   18  A    between atoms: C29_48  and  O12_49 
REMARK   19  A    between atoms: O12_49  and  C30_50 
ROOT
HETATM    1  C3  UNL     1       9.761  17.231  88.424  1.00  0.00     0.122 A 
HETATM    2  C4  UNL     1       8.900  16.880  87.483  1.00  0.00     0.045 A 
HETATM    3  C5  UNL     1       7.836  16.193  87.980  1.00  0.00     0.108 A 
HETATM    4  C6  UNL     1       6.833  15.737  87.128  1.00  0.00     0.096 A 
HETATM    5  C10 UNL     1       6.890  15.963  85.798  1.00  0.00     0.092 A 
HETATM    6  C13 UNL     1       7.957  16.663  85.223  1.00  0.00     0.105 A 
HETATM    7  C14 UNL     1       8.949  17.109  86.090  1.00  0.00     0.011 A 
HETATM    8  C15 UNL     1       9.899  17.732  85.432  1.00  0.00    -0.006 A 
HETATM    9  C16 UNL     1      11.167  18.394  85.705  1.00  0.00     0.081 A 
HETATM   10  C17 UNL     1      11.550  18.485  87.108  1.00  0.00     0.006 A 
HETATM   11  N3  UNL     1      10.946  18.004  88.091  1.00  0.00    -0.356 N 
ATOM     12  H3  UNL     1      11.455  18.230  88.946  1.00  0.00     0.166 HD
ENDROOT
BRANCH  10  13
HETATM   13  C18 UNL     1      12.797  19.238  87.448  1.00  0.00     0.136 C 
HETATM   14  C19 UNL     1      12.375  20.569  87.903  1.00  0.00     0.156 C 
HETATM   15  O8  UNL     1      11.415  20.682  88.686  1.00  0.00    -0.296 OA
HETATM   16  C20 UNL     1      12.999  21.858  87.514  1.00  0.00     0.078 C 
HETATM   17  C21 UNL     1      13.836  22.443  88.624  1.00  0.00     0.031 C 
HETATM   18  C22 UNL     1      11.841  22.786  87.156  1.00  0.00     0.031 C 
HETATM   19  C23 UNL     1      13.862  21.632  86.339  1.00  0.00     0.181 C 
HETATM   20  O9  UNL     1      13.844  22.437  85.450  1.00  0.00    -0.293 OA
HETATM   21  C24 UNL     1      14.736  20.383  86.325  1.00  0.00     0.154 C 
HETATM   22  C25 UNL     1      15.539  20.497  85.049  1.00  0.00     0.060 C 
HETATM   23  C28 UNL     1      13.787  19.263  86.349  1.00  0.00     0.001 C 
HETATM   24  C29 UNL     1      13.761  18.287  85.459  1.00  0.00     0.156 C 
BRANCH  21  25
HETATM   25  O10 UNL     1      15.578  20.527  87.407  1.00  0.00    -0.298 OA
BRANCH  25  26
HETATM   26  C26 UNL     1      16.210  19.484  88.041  1.00  0.00     0.256 C 
HETATM   27  C27 UNL     1      15.880  19.050  89.420  1.00  0.00     0.126 C 
HETATM   28  O11 UNL     1      17.100  18.894  87.403  1.00  0.00    -0.266 OA
ENDBRANCH  25  26
ENDBRANCH  21  25
BRANCH  24  29
HETATM   29  O12 UNL     1      14.622  18.179  84.380  1.00  0.00    -0.265 OA
BRANCH  29  30
HETATM   30  C30 UNL     1      14.207  17.832  83.130  1.00  0.00     0.337 C 
HETATM   31  O13 UNL     1      13.051  17.407  82.913  1.00  0.00    -0.623 OA
HETATM   32  O14 UNL     1      15.074  17.947  82.055  1.00  0.00    -0.623 OA
ENDBRANCH  29  30
ENDBRANCH  24  29
ENDBRANCH  10  13
BRANCH   1  33
HETATM   33  C2  UNL     1       9.615  16.933  89.793  1.00  0.00     0.310 C 
HETATM   34  O2  UNL     1       9.847  16.113  90.585  1.00  0.00    -0.258 OA
BRANCH  33  35
HETATM   35  O1  UNL     1       8.933  18.013  90.510  1.00  0.00    -0.321 OA
HETATM   36  C1  UNL     1       9.679  18.783  91.421  1.00  0.00     0.213 C 
ENDBRANCH  33  35
ENDBRANCH   1  33
BRANCH   6  37
HETATM   37  O7  UNL     1       7.991  16.874  83.912  1.00  0.00    -0.357 OA
ATOM     38  H7  UNL     1       8.323  16.204  83.327  1.00  0.00     0.217 HD
ENDBRANCH   6  37
BRANCH   3  39
HETATM   39  O3  UNL     1       7.702  15.931  89.308  1.00  0.00    -0.357 OA
ATOM     40  H3  UNL     1       7.598  16.622  89.952  1.00  0.00     0.217 HD
ENDBRANCH   3  39
BRANCH   5  41
HETATM   41  N2  UNL     1       5.887  15.463  84.967  1.00  0.00    -0.384 N 
ATOM     42  H2  UNL     1       5.934  14.479  84.704  1.00  0.00     0.159 HD
BRANCH  41  43
HETATM   43  C11 UNL     1       4.799  16.239  84.461  1.00  0.00     0.146 C 
BRANCH  43  44
HETATM   44  C12 UNL     1       4.461  15.766  83.015  1.00  0.00     0.183 C 
BRANCH  44  45
HETATM   45  O6  UNL     1       5.636  15.348  82.453  1.00  0.00    -0.399 OA
ATOM     46  H6  UNL     1       5.529  14.426  82.250  1.00  0.00     0.209 HD
ENDBRANCH  44  45
ENDBRANCH  43  44
ENDBRANCH  41  43
ENDBRANCH   5  41
BRANCH   4  47
HETATM   47  N1  UNL     1       5.754  14.991  87.735  1.00  0.00    -0.353 N 
BRANCH  47  48
HETATM   48  C7  UNL     1       5.948  13.570  87.921  1.00  0.00     0.290 C 
BRANCH  48  49
HETATM   49  O4  UNL     1       6.427  13.208  89.175  1.00  0.00    -0.382 OA
ATOM     50  H4  UNL     1       5.937  12.515  89.602  1.00  0.00     0.211 HD
ENDBRANCH  48  49
ENDBRANCH  47  48
BRANCH  47  51
HETATM   51  C8  UNL     1       4.547  15.645  88.172  1.00  0.00     0.151 C 
BRANCH  51  52
HETATM   52  C9  UNL     1       3.284  14.867  88.061  1.00  0.00     0.183 C 
BRANCH  52  53
HETATM   53  O5  UNL     1       2.611  15.016  86.873  1.00  0.00    -0.399 OA
ATOM     54  H5  UNL     1       2.131  14.249  86.583  1.00  0.00     0.209 HD
ENDBRANCH  52  53
ENDBRANCH  51  52
ENDBRANCH  47  51
ENDBRANCH   4  47
TORSDOF 19
ENDMDL
