MODEL 1
REMARK VINA RESULT: -8.066969585      0.000      0.000
REMARK  16 active torsions:
REMARK  status: ('A' for Active; 'I' for Inactive)
REMARK    1  A    between atoms: C3_5  and  S1_6 
REMARK    2  A    between atoms: S1_6  and  C4_7 
REMARK    3  A    between atoms: C4_7  and  C5_8 
REMARK    4  A    between atoms: C5_8  and  O1_9 
REMARK    5  A    between atoms: C5_8  and  C6_11 
REMARK    6  A    between atoms: C6_11  and  O2_12 
REMARK    7  A    between atoms: C6_11  and  N2_14 
REMARK    8  A    between atoms: C8_17  and  N3_18 
REMARK       I    between atoms: N3_18  and  C9_20 
REMARK    9  A    between atoms: C9_20  and  C10_22 
REMARK   10  A    between atoms: C10_22  and  S2_23 
REMARK   11  A    between atoms: S2_23  and  C11_24 
REMARK   12  A    between atoms: C15_36  and  C16_37 
REMARK   13  A    between atoms: C16_37  and  O4_38 
REMARK   14  A    between atoms: C17_40  and  C18_41 
REMARK   15  A    between atoms: C19_45  and  O7_46 
REMARK   16  A    between atoms: C20_48  and  C21_49 
ROOT
HETATM    1  N2  UNL     1       5.759  16.287  84.810  1.00  0.00    -0.363 N 
ATOM      2  H2  UNL     1       6.478  15.601  84.580  1.00  0.00     0.162 HD
HETATM    3  C7  UNL     1       5.749  16.740  85.983  1.00  0.00     0.059 C 
HETATM    4  C8  UNL     1       6.682  16.372  87.060  1.00  0.00     0.167 C 
HETATM    5  C13 UNL     1       5.946  16.703  88.322  1.00  0.00     0.178 C 
HETATM    6  S3  UNL     1       5.646  15.214  89.324  1.00  0.00    -0.137 SA
HETATM    7  C14 UNL     1       3.924  14.765  88.979  1.00  0.00     0.115 C 
HETATM    8  C15 UNL     1       3.092  16.008  89.308  1.00  0.00    -0.014 C 
HETATM    9  C17 UNL     1       3.481  17.146  88.745  1.00  0.00     0.116 C 
HETATM   10  N8  UNL     1       4.652  17.206  87.890  1.00  0.00    -0.328 N 
HETATM   11  C19 UNL     1       4.809  17.735  86.539  1.00  0.00     0.270 C 
ENDROOT
BRANCH   1  12
HETATM   12  C6  UNL     1       4.860  16.648  83.784  1.00  0.00     0.247 C 
BRANCH  12  13
HETATM   13  C5  UNL     1       4.910  15.651  82.645  1.00  0.00     0.176 C 
BRANCH  13  14
HETATM   14  C4  UNL     1       3.503  15.123  82.336  1.00  0.00     0.117 C 
BRANCH  14  15
HETATM   15  S1  UNL     1       2.381  16.004  83.482  1.00  0.00    -0.107 SA
BRANCH  15  16
HETATM   16  C3  UNL     1       1.887  17.500  82.643  1.00  0.00     0.095 A 
HETATM   17  N1  UNL     1       2.558  17.995  81.577  1.00  0.00    -0.351 N 
HETATM   18  C2  UNL     1       2.164  19.126  80.965  1.00  0.00     0.028 A 
ATOM     19  H1  UNL     1       3.380  17.499  81.230  1.00  0.00     0.166 HD
HETATM   20  C1  UNL     1       2.893  19.694  79.781  1.00  0.00     0.070 C 
HETATM   21  C23 UNL     1       1.050  19.773  81.452  1.00  0.00     0.028 A 
HETATM   22  N9  UNL     1       0.351  19.299  82.525  1.00  0.00    -0.357 N 
HETATM   23  C24 UNL     1       0.608  21.024  80.780  1.00  0.00     0.070 C 
HETATM   24  C20 UNL     1       0.775  18.162  83.114  1.00  0.00     0.074 A 
ATOM     25  H9  UNL     1      -0.472  19.792  82.872  1.00  0.00     0.166 HD
BRANCH  24  26
HETATM   26  C21 UNL     1       0.049  17.614  84.277  1.00  0.00     0.197 A 
HETATM   27  C22 UNL     1      -1.362  17.242  84.096  1.00  0.00     0.207 A 
HETATM   28  O8  UNL     1      -0.943  18.379  84.881  1.00  0.00    -0.375 OA
ENDBRANCH  24  26
ENDBRANCH  15  16
ENDBRANCH  14  15
ENDBRANCH  13  14
BRANCH  13  29
HETATM   29  O1  UNL     1       5.659  14.530  82.994  1.00  0.00    -0.390 OA
ATOM     30  H1  UNL     1       6.523  14.680  82.627  1.00  0.00     0.210 HD
ENDBRANCH  13  29
ENDBRANCH  12  13
BRANCH  12  31
HETATM   31  O2  UNL     1       5.369  17.856  83.239  1.00  0.00    -0.374 OA
ATOM     32  H2  UNL     1       4.831  18.541  83.617  1.00  0.00     0.212 HD
ENDBRANCH  12  31
ENDBRANCH   1  12
BRANCH   4  33
HETATM   33  N3  UNL     1       7.864  17.206  86.941  1.00  0.00    -0.348 N 
HETATM   34  C9  UNL     1       9.171  16.685  86.866  1.00  0.00     0.228 C 
HETATM   35  O3  UNL     1       9.404  15.436  86.899  1.00  0.00    -0.273 OA
ATOM     36  H3  UNL     1       7.743  18.219  86.911  1.00  0.00     0.163 HD
BRANCH  34  37
HETATM   37  C10 UNL     1      10.330  17.575  86.744  1.00  0.00     0.185 C 
BRANCH  37  38
HETATM   38  S2  UNL     1      10.729  18.003  85.050  1.00  0.00    -0.082 SA
BRANCH  38  39
HETATM   39  C11 UNL     1      10.918  16.579  84.008  1.00  0.00     0.178 A 
HETATM   40  N4  UNL     1      10.096  15.533  83.942  1.00  0.00    -0.263 N 
HETATM   41  N5  UNL     1      10.587  14.697  83.055  1.00  0.00    -0.226 N 
ATOM     42  H4  UNL     1       9.240  15.404  84.481  1.00  0.00     0.190 HD
HETATM   43  N6  UNL     1      11.691  15.213  82.579  1.00  0.00    -0.224 N 
ATOM     44  H5  UNL     1      10.179  13.802  82.784  1.00  0.00     0.210 HD
HETATM   45  N7  UNL     1      11.927  16.385  83.152  1.00  0.00    -0.259 N 
ATOM     46  H6  UNL     1      12.282  14.777  81.872  1.00  0.00     0.210 HD
HETATM   47  C12 UNL     1      13.072  17.252  82.871  1.00  0.00     0.181 C 
ENDBRANCH  38  39
ENDBRANCH  37  38
ENDBRANCH  34  37
ENDBRANCH   4  33
BRANCH  11  48
HETATM   48  O7  UNL     1       5.410  18.994  86.660  1.00  0.00    -0.371 OA
ATOM     49  H7  UNL     1       4.988  19.635  86.100  1.00  0.00     0.212 HD
ENDBRANCH  11  48
BRANCH   9  50
HETATM   50  C18 UNL     1       2.789  18.412  88.950  1.00  0.00     0.227 C 
HETATM   51  O5  UNL     1       1.654  18.612  88.462  1.00  0.00    -0.643 OA
HETATM   52  O6  UNL     1       3.310  19.448  89.674  1.00  0.00    -0.643 OA
ENDBRANCH   9  50
BRANCH   8  53
HETATM   53  C16 UNL     1       1.986  15.854  90.235  1.00  0.00     0.201 C 
BRANCH  53  54
HETATM   54  O4  UNL     1       0.743  15.796  89.565  1.00  0.00    -0.397 OA
ATOM     55  H4  UNL     1       0.613  14.959  89.134  1.00  0.00     0.209 HD
ENDBRANCH  53  54
ENDBRANCH   8  53
TORSDOF 16
ENDMDL
MODEL 2
REMARK VINA RESULT: -7.844208325      0.965      1.234
REMARK  16 active torsions:
REMARK  status: ('A' for Active; 'I' for Inactive)
REMARK    1  A    between atoms: C3_5  and  S1_6 
REMARK    2  A    between atoms: S1_6  and  C4_7 
REMARK    3  A    between atoms: C4_7  and  C5_8 
REMARK    4  A    between atoms: C5_8  and  O1_9 
REMARK    5  A    between atoms: C5_8  and  C6_11 
REMARK    6  A    between atoms: C6_11  and  O2_12 
REMARK    7  A    between atoms: C6_11  and  N2_14 
REMARK    8  A    between atoms: C8_17  and  N3_18 
REMARK       I    between atoms: N3_18  and  C9_20 
REMARK    9  A    between atoms: C9_20  and  C10_22 
REMARK   10  A    between atoms: C10_22  and  S2_23 
REMARK   11  A    between atoms: S2_23  and  C11_24 
REMARK   12  A    between atoms: C15_36  and  C16_37 
REMARK   13  A    between atoms: C16_37  and  O4_38 
REMARK   14  A    between atoms: C17_40  and  C18_41 
REMARK   15  A    between atoms: C19_45  and  O7_46 
REMARK   16  A    between atoms: C20_48  and  C21_49 
ROOT
HETATM    1  N2  UNL     1       5.827  16.670  84.847  1.00  0.00    -0.363 N 
ATOM      2  H2  UNL     1       6.662  16.123  84.636  1.00  0.00     0.162 HD
HETATM    3  C7  UNL     1       5.731  17.149  86.005  1.00  0.00     0.059 C 
HETATM    4  C8  UNL     1       6.715  16.996  87.090  1.00  0.00     0.167 C 
HETATM    5  C13 UNL     1       5.927  17.222  88.344  1.00  0.00     0.178 C 
HETATM    6  S3  UNL     1       5.911  15.736  89.392  1.00  0.00    -0.137 SA
HETATM    7  C14 UNL     1       4.304  14.961  89.069  1.00  0.00     0.115 C 
HETATM    8  C15 UNL     1       3.253  16.036  89.363  1.00  0.00    -0.014 C 
HETATM    9  C17 UNL     1       3.423  17.208  88.764  1.00  0.00     0.116 C 
HETATM   10  N8  UNL     1       4.563  17.460  87.902  1.00  0.00    -0.328 N 
HETATM   11  C19 UNL     1       4.620  17.967  86.535  1.00  0.00     0.270 C 
ENDROOT
BRANCH   1  12
HETATM   12  C6  UNL     1       4.879  16.823  83.814  1.00  0.00     0.247 C 
BRANCH  12  13
HETATM   13  C5  UNL     1       5.031  15.735  82.773  1.00  0.00     0.176 C 
BRANCH  13  14
HETATM   14  C4  UNL     1       3.657  15.175  82.381  1.00  0.00     0.117 C 
BRANCH  14  15
HETATM   15  S1  UNL     1       2.454  15.993  83.492  1.00  0.00    -0.107 SA
BRANCH  15  16
HETATM   16  C3  UNL     1       1.924  17.474  82.648  1.00  0.00     0.095 A 
HETATM   17  N1  UNL     1       2.579  17.977  81.576  1.00  0.00    -0.351 N 
HETATM   18  C2  UNL     1       2.159  19.097  80.961  1.00  0.00     0.028 A 
ATOM     19  H1  UNL     1       3.409  17.497  81.227  1.00  0.00     0.166 HD
HETATM   20  C1  UNL     1       2.869  19.674  79.770  1.00  0.00     0.070 C 
HETATM   21  C23 UNL     1       1.034  19.723  81.452  1.00  0.00     0.028 A 
HETATM   22  N9  UNL     1       0.351  19.240  82.531  1.00  0.00    -0.357 N 
HETATM   23  C24 UNL     1       0.563  20.961  80.776  1.00  0.00     0.070 C 
HETATM   24  C20 UNL     1       0.802  18.115  83.123  1.00  0.00     0.074 A 
ATOM     25  H9  UNL     1      -0.480  19.719  82.880  1.00  0.00     0.166 HD
BRANCH  24  26
HETATM   26  C21 UNL     1       0.094  17.559  84.293  1.00  0.00     0.197 A 
HETATM   27  C22 UNL     1      -1.328  17.216  84.139  1.00  0.00     0.207 A 
HETATM   28  O8  UNL     1      -0.869  18.330  84.935  1.00  0.00    -0.375 OA
ENDBRANCH  24  26
ENDBRANCH  15  16
ENDBRANCH  14  15
ENDBRANCH  13  14
BRANCH  13  29
HETATM   29  O1  UNL     1       5.742  14.651  83.282  1.00  0.00    -0.390 OA
ATOM     30  H1  UNL     1       6.552  14.626  82.786  1.00  0.00     0.210 HD
ENDBRANCH  13  29
ENDBRANCH  12  13
BRANCH  12  31
HETATM   31  O2  UNL     1       5.233  18.025  83.147  1.00  0.00    -0.374 OA
ATOM     32  H2  UNL     1       5.640  18.565  83.813  1.00  0.00     0.212 HD
ENDBRANCH  12  31
ENDBRANCH   1  12
BRANCH   4  33
HETATM   33  N3  UNL     1       7.720  18.033  86.940  1.00  0.00    -0.348 N 
HETATM   34  C9  UNL     1       8.853  17.894  86.115  1.00  0.00     0.228 C 
HETATM   35  O3  UNL     1       9.074  16.839  85.441  1.00  0.00    -0.273 OA
ATOM     36  H3  UNL     1       7.599  18.904  87.457  1.00  0.00     0.163 HD
BRANCH  34  37
HETATM   37  C10 UNL     1       9.837  18.975  85.999  1.00  0.00     0.185 C 
BRANCH  37  38
HETATM   38  S2  UNL     1      11.534  18.418  86.139  1.00  0.00    -0.082 SA
BRANCH  38  39
HETATM   39  C11 UNL     1      12.214  17.889  84.588  1.00  0.00     0.178 A 
HETATM   40  N4  UNL     1      11.562  17.257  83.613  1.00  0.00    -0.263 N 
HETATM   41  N5  UNL     1      12.416  17.042  82.638  1.00  0.00    -0.226 N 
ATOM     42  H4  UNL     1      10.578  16.989  83.622  1.00  0.00     0.190 HD
HETATM   43  N6  UNL     1      13.574  17.531  82.999  1.00  0.00    -0.224 N 
ATOM     44  H5  UNL     1      12.212  16.575  81.754  1.00  0.00     0.210 HD
HETATM   45  N7  UNL     1      13.484  18.065  84.208  1.00  0.00    -0.259 N 
ATOM     46  H6  UNL     1      14.422  17.504  82.432  1.00  0.00     0.210 HD
HETATM   47  C12 UNL     1      14.579  18.707  84.938  1.00  0.00     0.181 C 
ENDBRANCH  38  39
ENDBRANCH  37  38
ENDBRANCH  34  37
ENDBRANCH   4  33
BRANCH  11  48
HETATM   48  O7  UNL     1       4.974  19.320  86.614  1.00  0.00    -0.371 OA
ATOM     49  H7  UNL     1       4.873  19.754  85.776  1.00  0.00     0.212 HD
ENDBRANCH  11  48
BRANCH   9  50
HETATM   50  C18 UNL     1       2.506  18.328  88.933  1.00  0.00     0.227 C 
HETATM   51  O5  UNL     1       2.717  19.210  89.796  1.00  0.00    -0.643 OA
HETATM   52  O6  UNL     1       1.377  18.500  88.181  1.00  0.00    -0.643 OA
ENDBRANCH   9  50
BRANCH   8  53
HETATM   53  C16 UNL     1       2.194  15.706  90.299  1.00  0.00     0.201 C 
BRANCH  53  54
HETATM   54  O4  UNL     1       1.059  15.177  89.644  1.00  0.00    -0.397 OA
ATOM     55  H4  UNL     1       0.365  15.820  89.566  1.00  0.00     0.209 HD
ENDBRANCH  53  54
ENDBRANCH   8  53
TORSDOF 16
ENDMDL
MODEL 3
REMARK VINA RESULT: -7.818578335      3.660      6.946
REMARK  16 active torsions:
REMARK  status: ('A' for Active; 'I' for Inactive)
REMARK    1  A    between atoms: C3_5  and  S1_6 
REMARK    2  A    between atoms: S1_6  and  C4_7 
REMARK    3  A    between atoms: C4_7  and  C5_8 
REMARK    4  A    between atoms: C5_8  and  O1_9 
REMARK    5  A    between atoms: C5_8  and  C6_11 
REMARK    6  A    between atoms: C6_11  and  O2_12 
REMARK    7  A    between atoms: C6_11  and  N2_14 
REMARK    8  A    between atoms: C8_17  and  N3_18 
REMARK       I    between atoms: N3_18  and  C9_20 
REMARK    9  A    between atoms: C9_20  and  C10_22 
REMARK   10  A    between atoms: C10_22  and  S2_23 
REMARK   11  A    between atoms: S2_23  and  C11_24 
REMARK   12  A    between atoms: C15_36  and  C16_37 
REMARK   13  A    between atoms: C16_37  and  O4_38 
REMARK   14  A    between atoms: C17_40  and  C18_41 
REMARK   15  A    between atoms: C19_45  and  O7_46 
REMARK   16  A    between atoms: C20_48  and  C21_49 
ROOT
HETATM    1  N2  UNL     1       4.409  15.740  86.973  1.00  0.00    -0.363 N 
ATOM      2  H2  UNL     1       3.957  15.879  87.877  1.00  0.00     0.162 HD
HETATM    3  C7  UNL     1       5.632  15.447  86.981  1.00  0.00     0.059 C 
HETATM    4  C8  UNL     1       6.476  15.284  88.176  1.00  0.00     0.167 C 
HETATM    5  C13 UNL     1       7.872  15.511  87.682  1.00  0.00     0.178 C 
HETATM    6  S3  UNL     1       8.627  16.963  88.473  1.00  0.00    -0.137 SA
HETATM    7  C14 UNL     1       8.469  18.291  87.248  1.00  0.00     0.115 C 
HETATM    8  C15 UNL     1       9.133  17.765  85.972  1.00  0.00    -0.014 C 
HETATM    9  C17 UNL     1       8.729  16.576  85.542  1.00  0.00     0.116 C 
HETATM   10  N8  UNL     1       7.733  15.808  86.265  1.00  0.00    -0.328 N 
HETATM   11  C19 UNL     1       6.490  15.200  85.803  1.00  0.00     0.270 C 
ENDROOT
BRANCH   1  12
HETATM   12  C6  UNL     1       3.609  15.892  85.822  1.00  0.00     0.247 C 
BRANCH  12  13
HETATM   13  C5  UNL     1       3.669  17.314  85.305  1.00  0.00     0.176 C 
BRANCH  13  14
HETATM   14  C4  UNL     1       4.236  17.340  83.879  1.00  0.00     0.117 C 
BRANCH  14  15
HETATM   15  S1  UNL     1       2.905  16.689  82.805  1.00  0.00    -0.107 SA
BRANCH  15  16
HETATM   16  C3  UNL     1       1.921  18.099  82.322  1.00  0.00     0.095 A 
HETATM   17  N1  UNL     1       2.354  19.020  81.430  1.00  0.00    -0.351 N 
HETATM   18  C2  UNL     1       1.592  20.074  81.087  1.00  0.00     0.028 A 
ATOM     19  H1  UNL     1       3.277  18.913  81.009  1.00  0.00     0.166 HD
HETATM   20  C1  UNL     1       2.051  21.108  80.100  1.00  0.00     0.070 C 
HETATM   21  C23 UNL     1       0.349  20.192  81.668  1.00  0.00     0.028 A 
HETATM   22  N9  UNL     1      -0.116  19.279  82.571  1.00  0.00    -0.357 N 
HETATM   23  C24 UNL     1      -0.499  21.354  81.293  1.00  0.00     0.070 C 
HETATM   24  C20 UNL     1       0.676  18.235  82.892  1.00  0.00     0.074 A 
ATOM     25  H9  UNL     1      -1.040  19.384  82.991  1.00  0.00     0.166 HD
BRANCH  24  26
HETATM   26  C21 UNL     1       0.212  17.225  83.864  1.00  0.00     0.197 A 
HETATM   27  C22 UNL     1      -1.103  17.425  84.492  1.00  0.00     0.207 A 
HETATM   28  O8  UNL     1       0.141  17.560  85.212  1.00  0.00    -0.375 OA
ENDBRANCH  24  26
ENDBRANCH  15  16
ENDBRANCH  14  15
ENDBRANCH  13  14
BRANCH  13  29
HETATM   29  O1  UNL     1       4.543  18.086  86.066  1.00  0.00    -0.390 OA
ATOM     30  H1  UNL     1       4.154  18.952  86.096  1.00  0.00     0.210 HD
ENDBRANCH  13  29
ENDBRANCH  12  13
BRANCH  12  31
HETATM   31  O2  UNL     1       2.271  15.716  86.261  1.00  0.00    -0.374 OA
ATOM     32  H2  UNL     1       2.187  14.785  86.427  1.00  0.00     0.212 HD
ENDBRANCH  12  31
ENDBRANCH   1  12
BRANCH   4  33
HETATM   33  N3  UNL     1       6.332  13.920  88.651  1.00  0.00    -0.348 N 
HETATM   34  C9  UNL     1       5.286  13.506  89.500  1.00  0.00     0.228 C 
HETATM   35  O3  UNL     1       4.391  14.310  89.911  1.00  0.00    -0.273 OA
ATOM     36  H3  UNL     1       7.020  13.228  88.356  1.00  0.00     0.163 HD
BRANCH  34  37
HETATM   37  C10 UNL     1       5.187  12.114  89.948  1.00  0.00     0.185 C 
BRANCH  37  38
HETATM   38  S2  UNL     1       3.883  11.838  91.146  1.00  0.00    -0.082 SA
BRANCH  38  39
HETATM   39  C11 UNL     1       3.435  10.127  91.292  1.00  0.00     0.178 A 
HETATM   40  N4  UNL     1       3.990   9.230  92.105  1.00  0.00    -0.263 N 
HETATM   41  N5  UNL     1       3.377   8.084  91.910  1.00  0.00    -0.226 N 
ATOM     42  H4  UNL     1       4.753   9.402  92.759  1.00  0.00     0.190 HD
HETATM   43  N6  UNL     1       2.460   8.265  90.996  1.00  0.00    -0.224 N 
ATOM     44  H5  UNL     1       3.582   7.206  92.388  1.00  0.00     0.210 HD
HETATM   45  N7  UNL     1       2.468   9.527  90.589  1.00  0.00    -0.259 N 
ATOM     46  H6  UNL     1       1.830   7.542  90.649  1.00  0.00     0.210 HD
HETATM   47  C12 UNL     1       1.580  10.098  89.575  1.00  0.00     0.181 C 
ENDBRANCH  38  39
ENDBRANCH  37  38
ENDBRANCH  34  37
ENDBRANCH   4  33
BRANCH  11  48
HETATM   48  O7  UNL     1       6.740  13.834  85.630  1.00  0.00    -0.371 OA
ATOM     49  H7  UNL     1       6.790  13.604  84.710  1.00  0.00     0.212 HD
ENDBRANCH  11  48
BRANCH   9  50
HETATM   50  C18 UNL     1       9.256  15.944  84.339  1.00  0.00     0.227 C 
HETATM   51  O5  UNL     1       8.542  15.802  83.320  1.00  0.00    -0.643 OA
HETATM   52  O6  UNL     1      10.535  15.475  84.231  1.00  0.00    -0.643 OA
ENDBRANCH   9  50
BRANCH   8  53
HETATM   53  C16 UNL     1      10.173  18.578  85.368  1.00  0.00     0.201 C 
BRANCH  53  54
HETATM   54  O4  UNL     1      10.098  19.925  85.790  1.00  0.00    -0.397 OA
ATOM     55  H4  UNL     1       9.703  20.480  85.127  1.00  0.00     0.209 HD
ENDBRANCH  53  54
ENDBRANCH   8  53
TORSDOF 16
ENDMDL
MODEL 4
REMARK VINA RESULT: -7.719971332      2.988      6.485
REMARK  16 active torsions:
REMARK  status: ('A' for Active; 'I' for Inactive)
REMARK    1  A    between atoms: C3_5  and  S1_6 
REMARK    2  A    between atoms: S1_6  and  C4_7 
REMARK    3  A    between atoms: C4_7  and  C5_8 
REMARK    4  A    between atoms: C5_8  and  O1_9 
REMARK    5  A    between atoms: C5_8  and  C6_11 
REMARK    6  A    between atoms: C6_11  and  O2_12 
REMARK    7  A    between atoms: C6_11  and  N2_14 
REMARK    8  A    between atoms: C8_17  and  N3_18 
REMARK       I    between atoms: N3_18  and  C9_20 
REMARK    9  A    between atoms: C9_20  and  C10_22 
REMARK   10  A    between atoms: C10_22  and  S2_23 
REMARK   11  A    between atoms: S2_23  and  C11_24 
REMARK   12  A    between atoms: C15_36  and  C16_37 
REMARK   13  A    between atoms: C16_37  and  O4_38 
REMARK   14  A    between atoms: C17_40  and  C18_41 
REMARK   15  A    between atoms: C19_45  and  O7_46 
REMARK   16  A    between atoms: C20_48  and  C21_49 
ROOT
HETATM    1  N2  UNL     1       4.722  15.287  87.830  1.00  0.00    -0.363 N 
ATOM      2  H2  UNL     1       4.449  15.324  88.812  1.00  0.00     0.162 HD
HETATM    3  C7  UNL     1       5.930  15.048  87.577  1.00  0.00     0.059 C 
HETATM    4  C8  UNL     1       6.992  14.814  88.570  1.00  0.00     0.167 C 
HETATM    5  C13 UNL     1       8.261  15.145  87.845  1.00  0.00     0.178 C 
HETATM    6  S3  UNL     1       9.117  16.551  88.618  1.00  0.00    -0.137 SA
HETATM    7  C14 UNL     1       8.693  17.976  87.580  1.00  0.00     0.115 C 
HETATM    8  C15 UNL     1       9.113  17.598  86.156  1.00  0.00    -0.014 C 
HETATM    9  C17 UNL     1       8.664  16.436  85.696  1.00  0.00     0.116 C 
HETATM   10  N8  UNL     1       7.845  15.563  86.516  1.00  0.00    -0.328 N 
HETATM   11  C19 UNL     1       6.552  14.947  86.240  1.00  0.00     0.270 C 
ENDROOT
BRANCH   1  12
HETATM   12  C6  UNL     1       3.712  15.509  86.870  1.00  0.00     0.247 C 
BRANCH  12  13
HETATM   13  C5  UNL     1       3.274  16.958  86.869  1.00  0.00     0.176 C 
BRANCH  13  14
HETATM   14  C4  UNL     1       4.147  17.778  85.910  1.00  0.00     0.117 C 
BRANCH  14  15
HETATM   15  S1  UNL     1       4.061  16.913  84.299  1.00  0.00    -0.107 SA
BRANCH  15  16
HETATM   16  C3  UNL     1       3.437  18.106  83.126  1.00  0.00     0.095 A 
HETATM   17  N1  UNL     1       4.204  19.097  82.616  1.00  0.00    -0.351 N 
HETATM   18  C2  UNL     1       3.707  19.984  81.736  1.00  0.00     0.028 A 
ATOM     19  H1  UNL     1       5.180  19.174  82.906  1.00  0.00     0.166 HD
HETATM   20  C1  UNL     1       4.538  21.093  81.156  1.00  0.00     0.070 C 
HETATM   21  C23 UNL     1       2.388  19.855  81.360  1.00  0.00     0.028 A 
HETATM   22  N9  UNL     1       1.589  18.865  81.856  1.00  0.00    -0.357 N 
HETATM   23  C24 UNL     1       1.832  20.831  80.386  1.00  0.00     0.070 C 
HETATM   24  C20 UNL     1       2.122  17.994  82.738  1.00  0.00     0.074 A 
ATOM     25  H9  UNL     1       0.614  18.786  81.566  1.00  0.00     0.166 HD
BRANCH  24  26
HETATM   26  C21 UNL     1       1.293  16.908  83.299  1.00  0.00     0.197 A 
HETATM   27  C22 UNL     1      -0.094  17.223  83.672  1.00  0.00     0.207 A 
HETATM   28  O8  UNL     1       0.938  16.949  84.643  1.00  0.00    -0.375 OA
ENDBRANCH  24  26
ENDBRANCH  15  16
ENDBRANCH  14  15
ENDBRANCH  13  14
BRANCH  13  29
HETATM   29  O1  UNL     1       3.456  17.537  88.123  1.00  0.00    -0.390 OA
ATOM     30  H1  UNL     1       2.828  18.248  88.166  1.00  0.00     0.210 HD
ENDBRANCH  13  29
ENDBRANCH  12  13
BRANCH  12  31
HETATM   31  O2  UNL     1       2.582  14.784  87.332  1.00  0.00    -0.374 OA
ATOM     32  H2  UNL     1       2.801  13.871  87.189  1.00  0.00     0.212 HD
ENDBRANCH  12  31
ENDBRANCH   1  12
BRANCH   4  33
HETATM   33  N3  UNL     1       6.976  13.408  88.928  1.00  0.00    -0.348 N 
HETATM   34  C9  UNL     1       7.084  12.950  90.257  1.00  0.00     0.228 C 
HETATM   35  O3  UNL     1       7.204  13.747  91.239  1.00  0.00    -0.273 OA
ATOM     36  H3  UNL     1       6.882  12.718  88.183  1.00  0.00     0.163 HD
BRANCH  34  37
HETATM   37  C10 UNL     1       7.059  11.516  90.562  1.00  0.00     0.185 C 
BRANCH  37  38
HETATM   38  S2  UNL     1       5.438  10.911  91.028  1.00  0.00    -0.082 SA
BRANCH  38  39
HETATM   39  C11 UNL     1       4.135  11.618  90.053  1.00  0.00     0.178 A 
HETATM   40  N4  UNL     1       3.708  11.183  88.869  1.00  0.00    -0.263 N 
HETATM   41  N5  UNL     1       2.734  11.976  88.481  1.00  0.00    -0.226 N 
ATOM     42  H4  UNL     1       4.070  10.380  88.355  1.00  0.00     0.190 HD
HETATM   43  N6  UNL     1       2.559  12.885  89.406  1.00  0.00    -0.224 N 
ATOM     44  H5  UNL     1       2.207  11.898  87.612  1.00  0.00     0.210 HD
HETATM   45  N7  UNL     1       3.416  12.691  90.399  1.00  0.00    -0.259 N 
ATOM     46  H6  UNL     1       1.866  13.631  89.368  1.00  0.00     0.210 HD
HETATM   47  C12 UNL     1       3.515  13.512  91.608  1.00  0.00     0.181 C 
ENDBRANCH  38  39
ENDBRANCH  37  38
ENDBRANCH  34  37
ENDBRANCH   4  33
BRANCH  11  48
HETATM   48  O7  UNL     1       6.798  13.613  85.891  1.00  0.00    -0.371 OA
ATOM     49  H7  UNL     1       7.322  13.173  86.549  1.00  0.00     0.212 HD
ENDBRANCH  11  48
BRANCH   9  50
HETATM   50  C18 UNL     1       8.966  15.940  84.360  1.00  0.00     0.227 C 
HETATM   51  O5  UNL     1       8.092  15.929  83.463  1.00  0.00    -0.643 OA
HETATM   52  O6  UNL     1      10.192  15.464  83.990  1.00  0.00    -0.643 OA
ENDBRANCH   9  50
BRANCH   8  53
HETATM   53  C16 UNL     1       9.996  18.506  85.449  1.00  0.00     0.201 C 
BRANCH  53  54
HETATM   54  O4  UNL     1      11.340  18.072  85.492  1.00  0.00    -0.397 OA
ATOM     55  H4  UNL     1      11.611  17.849  86.375  1.00  0.00     0.209 HD
ENDBRANCH  53  54
ENDBRANCH   8  53
TORSDOF 16
ENDMDL
MODEL 5
REMARK VINA RESULT: -7.699828375      1.452      1.792
REMARK  16 active torsions:
REMARK  status: ('A' for Active; 'I' for Inactive)
REMARK    1  A    between atoms: C3_5  and  S1_6 
REMARK    2  A    between atoms: S1_6  and  C4_7 
REMARK    3  A    between atoms: C4_7  and  C5_8 
REMARK    4  A    between atoms: C5_8  and  O1_9 
REMARK    5  A    between atoms: C5_8  and  C6_11 
REMARK    6  A    between atoms: C6_11  and  O2_12 
REMARK    7  A    between atoms: C6_11  and  N2_14 
REMARK    8  A    between atoms: C8_17  and  N3_18 
REMARK       I    between atoms: N3_18  and  C9_20 
REMARK    9  A    between atoms: C9_20  and  C10_22 
REMARK   10  A    between atoms: C10_22  and  S2_23 
REMARK   11  A    between atoms: S2_23  and  C11_24 
REMARK   12  A    between atoms: C15_36  and  C16_37 
REMARK   13  A    between atoms: C16_37  and  O4_38 
REMARK   14  A    between atoms: C17_40  and  C18_41 
REMARK   15  A    between atoms: C19_45  and  O7_46 
REMARK   16  A    between atoms: C20_48  and  C21_49 
ROOT
HETATM    1  N2  UNL     1       4.580  16.388  84.571  1.00  0.00    -0.363 N 
ATOM      2  H2  UNL     1       5.023  15.548  84.198  1.00  0.00     0.162 HD
HETATM    3  C7  UNL     1       4.781  16.653  85.784  1.00  0.00     0.059 C 
HETATM    4  C8  UNL     1       5.600  15.864  86.718  1.00  0.00     0.167 C 
HETATM    5  C13 UNL     1       5.080  16.232  88.074  1.00  0.00     0.178 C 
HETATM    6  S3  UNL     1       4.367  14.791  88.924  1.00  0.00    -0.137 SA
HETATM    7  C14 UNL     1       2.576  14.961  88.696  1.00  0.00     0.115 C 
HETATM    8  C15 UNL     1       2.213  16.345  89.242  1.00  0.00    -0.014 C 
HETATM    9  C17 UNL     1       2.920  17.368  88.778  1.00  0.00     0.116 C 
HETATM   10  N8  UNL     1       3.999  17.173  87.827  1.00  0.00    -0.328 N 
HETATM   11  C19 UNL     1       4.248  17.808  86.537  1.00  0.00     0.270 C 
ENDROOT
BRANCH   1  12
HETATM   12  C6  UNL     1       3.794  17.152  83.684  1.00  0.00     0.247 C 
BRANCH  12  13
HETATM   13  C5  UNL     1       3.193  16.279  82.603  1.00  0.00     0.176 C 
BRANCH  13  14
HETATM   14  C4  UNL     1       2.580  17.146  81.496  1.00  0.00     0.117 C 
BRANCH  14  15
HETATM   15  S1  UNL     1       2.511  18.843  82.177  1.00  0.00    -0.107 SA
BRANCH  15  16
HETATM   16  C3  UNL     1       0.962  19.538  81.626  1.00  0.00     0.095 A 
HETATM   17  N1  UNL     1       0.847  20.248  80.480  1.00  0.00    -0.351 N 
HETATM   18  C2  UNL     1      -0.333  20.763  80.090  1.00  0.00     0.028 A 
ATOM     19  H1  UNL     1       1.673  20.397  79.899  1.00  0.00     0.166 HD
HETATM   20  C1  UNL     1      -0.484  21.554  78.822  1.00  0.00     0.070 C 
HETATM   21  C23 UNL     1      -1.432  20.545  80.892  1.00  0.00     0.028 A 
HETATM   22  N9  UNL     1      -1.348  19.832  82.053  1.00  0.00    -0.357 N 
HETATM   23  C24 UNL     1      -2.740  21.110  80.467  1.00  0.00     0.070 C 
HETATM   24  C20 UNL     1      -0.148  19.332  82.413  1.00  0.00     0.074 A 
ATOM     25  H9  UNL     1      -2.174  19.682  82.634  1.00  0.00     0.166 HD
BRANCH  24  26
HETATM   26  C21 UNL     1      -0.014  18.555  83.662  1.00  0.00     0.197 A 
HETATM   27  C22 UNL     1      -0.741  17.281  83.763  1.00  0.00     0.207 A 
HETATM   28  O8  UNL     1      -1.102  18.455  84.521  1.00  0.00    -0.375 OA
ENDBRANCH  24  26
ENDBRANCH  15  16
ENDBRANCH  14  15
ENDBRANCH  13  14
BRANCH  13  29
HETATM   29  O1  UNL     1       2.140  15.516  83.103  1.00  0.00    -0.390 OA
ATOM     30  H1  UNL     1       2.403  15.270  83.982  1.00  0.00     0.210 HD
ENDBRANCH  13  29
ENDBRANCH  12  13
BRANCH  12  31
HETATM   31  O2  UNL     1       4.705  18.004  83.005  1.00  0.00    -0.374 OA
ATOM     32  H2  UNL     1       4.163  18.546  82.445  1.00  0.00     0.212 HD
ENDBRANCH  12  31
ENDBRANCH   1  12
BRANCH   4  33
HETATM   33  N3  UNL     1       6.981  16.290  86.583  1.00  0.00    -0.348 N 
HETATM   34  C9  UNL     1       8.077  15.422  86.758  1.00  0.00     0.228 C 
HETATM   35  O3  UNL     1       7.926  14.194  87.051  1.00  0.00    -0.273 OA
ATOM     36  H3  UNL     1       7.167  17.266  86.349  1.00  0.00     0.163 HD
BRANCH  34  37
HETATM   37  C10 UNL     1       9.453  15.906  86.607  1.00  0.00     0.185 C 
BRANCH  37  38
HETATM   38  S2  UNL     1       9.710  16.879  85.125  1.00  0.00    -0.082 SA
BRANCH  38  39
HETATM   39  C11 UNL     1      10.522  15.968  83.837  1.00  0.00     0.178 A 
HETATM   40  N4  UNL     1      10.106  14.825  83.294  1.00  0.00    -0.263 N 
HETATM   41  N5  UNL     1      10.984  14.476  82.379  1.00  0.00    -0.226 N 
ATOM     42  H4  UNL     1       9.260  14.313  83.542  1.00  0.00     0.190 HD
HETATM   43  N6  UNL     1      11.925  15.384  82.355  1.00  0.00    -0.224 N 
ATOM     44  H5  UNL     1      10.940  13.644  81.792  1.00  0.00     0.210 HD
HETATM   45  N7  UNL     1      11.669  16.328  83.251  1.00  0.00    -0.259 N 
ATOM     46  H6  UNL     1      12.737  15.369  81.737  1.00  0.00     0.210 HD
HETATM   47  C12 UNL     1      12.502  17.504  83.507  1.00  0.00     0.181 C 
ENDBRANCH  38  39
ENDBRANCH  37  38
ENDBRANCH  34  37
ENDBRANCH   4  33
BRANCH  11  48
HETATM   48  O7  UNL     1       5.231  18.783  86.742  1.00  0.00    -0.371 OA
ATOM     49  H7  UNL     1       5.362  18.954  87.667  1.00  0.00     0.212 HD
ENDBRANCH  11  48
BRANCH   9  50
HETATM   50  C18 UNL     1       2.691  18.747  89.191  1.00  0.00     0.227 C 
HETATM   51  O5  UNL     1       3.646  19.538  89.355  1.00  0.00    -0.643 OA
HETATM   52  O6  UNL     1       1.449  19.268  89.421  1.00  0.00    -0.643 OA
ENDBRANCH   9  50
BRANCH   8  53
HETATM   53  C16 UNL     1       1.169  16.421  90.247  1.00  0.00     0.201 C 
BRANCH  53  54
HETATM   54  O4  UNL     1      -0.101  16.643  89.669  1.00  0.00    -0.397 OA
ATOM     55  H4  UNL     1      -0.745  16.901  90.319  1.00  0.00     0.209 HD
ENDBRANCH  53  54
ENDBRANCH   8  53
TORSDOF 16
ENDMDL
