MODEL 1
REMARK VINA RESULT: -6.518080045      0.000      0.000
REMARK  7 active torsions:
REMARK  status: ('A' for Active; 'I' for Inactive)
REMARK    1  A    between atoms: C3_4  and  N2_5 
REMARK       I    between atoms: N2_5  and  C4_7 
REMARK    2  A    between atoms: C4_7  and  O2_9 
REMARK    3  A    between atoms: O2_9  and  C5_10 
REMARK    4  A    between atoms: C5_10  and  O3_11 
REMARK    5  A    between atoms: O3_11  and  C6_12 
REMARK    6  A    between atoms: C6_12  and  C7_14 
REMARK    7  A    between atoms: C9_19  and  C11_21 
ROOT
HETATM    1  C6  UNL     1      50.899  17.456  36.278  1.00  0.00     0.293 C 
HETATM    2  O4  UNL     1      50.428  16.669  37.123  1.00  0.00    -0.263 OA
ENDROOT
BRANCH   1   3
HETATM    3  O3  UNL     1      50.039  18.193  35.493  1.00  0.00    -0.293 OA
BRANCH   3   4
HETATM    4  C5  UNL     1      49.179  17.644  34.517  1.00  0.00     0.360 C 
BRANCH   4   5
HETATM    5  O2  UNL     1      49.730  17.789  33.231  1.00  0.00    -0.278 OA
BRANCH   5   6
HETATM    6  C4  UNL     1      50.001  19.058  32.731  1.00  0.00     0.367 C 
HETATM    7  N2  UNL     1      48.923  19.938  32.505  1.00  0.00    -0.300 N 
ATOM      8  H2  UNL     1      47.982  19.607  32.717  1.00  0.00     0.171 HD
HETATM    9  O1  UNL     1      51.187  19.330  32.519  1.00  0.00    -0.238 OA
BRANCH   7  10
HETATM   10  C3  UNL     1      49.069  21.258  31.998  1.00  0.00     0.070 A 
HETATM   11  C2  UNL     1      49.062  21.643  30.656  1.00  0.00     0.140 A 
HETATM   12  N1  UNL     1      49.223  22.970  30.546  1.00  0.00    -0.306 N 
HETATM   13  C1  UNL     1      49.268  23.736  29.293  1.00  0.00     0.177 C 
HETATM   14  N7  UNL     1      49.334  23.447  31.773  1.00  0.00    -0.308 N 
HETATM   15  C12 UNL     1      49.245  22.436  32.683  1.00  0.00     0.138 A 
ATOM     16  H7  UNL     1      49.467  24.431  32.006  1.00  0.00     0.186 HD
ENDBRANCH   7  10
ENDBRANCH   5   6
ENDBRANCH   4   5
ENDBRANCH   3   4
ENDBRANCH   1   3
BRANCH   1  17
HETATM   17  C7  UNL     1      52.361  17.580  36.141  1.00  0.00     0.313 C 
HETATM   18  C8  UNL     1      53.028  18.050  37.416  1.00  0.00     0.279 C 
HETATM   19  N3  UNL     1      54.291  18.575  36.889  1.00  0.00    -0.031 N 
HETATM   20  C9  UNL     1      53.878  19.282  35.716  1.00  0.00     0.338 C 
ATOM     21  H32 UNL     1      54.833  19.129  37.552  1.00  0.00     0.280 HD
ATOM     22  H31 UNL     1      55.012  17.871  36.730  1.00  0.00     0.280 HD
HETATM   23  C10 UNL     1      53.516  20.732  36.013  1.00  0.00     0.087 C 
HETATM   24  N6  UNL     1      52.728  18.578  35.184  1.00  0.00    -0.019 N 
ATOM     25  H62 UNL     1      52.890  18.197  34.251  1.00  0.00     0.281 HD
ATOM     26  H61 UNL     1      51.958  19.200  34.940  1.00  0.00     0.281 HD
BRANCH  20  27
HETATM   27  C11 UNL     1      54.961  19.317  34.703  1.00  0.00     0.151 C 
HETATM   28  N4  UNL     1      56.174  19.425  35.116  1.00  0.00    -0.388 N 
ATOM     29  H42 UNL     1      56.440  19.487  36.099  1.00  0.00     0.157 HD
ATOM     30  H41 UNL     1      56.919  19.450  34.419  1.00  0.00     0.157 HD
HETATM   31  N5  UNL     1      54.591  19.230  33.333  1.00  0.00    -0.083 NA
ENDBRANCH  20  27
ENDBRANCH   1  17
TORSDOF 7
ENDMDL
MODEL 2
REMARK VINA RESULT: -6.432173870      0.528      1.023
REMARK  7 active torsions:
REMARK  status: ('A' for Active; 'I' for Inactive)
REMARK    1  A    between atoms: C3_4  and  N2_5 
REMARK       I    between atoms: N2_5  and  C4_7 
REMARK    2  A    between atoms: C4_7  and  O2_9 
REMARK    3  A    between atoms: O2_9  and  C5_10 
REMARK    4  A    between atoms: C5_10  and  O3_11 
REMARK    5  A    between atoms: O3_11  and  C6_12 
REMARK    6  A    between atoms: C6_12  and  C7_14 
REMARK    7  A    between atoms: C9_19  and  C11_21 
ROOT
HETATM    1  C6  UNL     1      50.869  17.454  36.256  1.00  0.00     0.293 C 
HETATM    2  O4  UNL     1      50.387  16.677  37.105  1.00  0.00    -0.263 OA
ENDROOT
BRANCH   1   3
HETATM    3  O3  UNL     1      50.020  18.197  35.465  1.00  0.00    -0.293 OA
BRANCH   3   4
HETATM    4  C5  UNL     1      49.164  17.653  34.483  1.00  0.00     0.360 C 
BRANCH   4   5
HETATM    5  O2  UNL     1      49.718  17.812  33.198  1.00  0.00    -0.278 OA
BRANCH   5   6
HETATM    6  C4  UNL     1      49.993  19.087  32.716  1.00  0.00     0.367 C 
HETATM    7  N2  UNL     1      48.916  19.962  32.468  1.00  0.00    -0.300 N 
ATOM      8  H2  UNL     1      47.972  19.624  32.654  1.00  0.00     0.171 HD
HETATM    9  O1  UNL     1      51.182  19.368  32.536  1.00  0.00    -0.238 OA
BRANCH   7  10
HETATM   10  C3  UNL     1      49.066  21.287  31.975  1.00  0.00     0.070 A 
HETATM   11  C2  UNL     1      49.223  22.448  32.734  1.00  0.00     0.140 A 
HETATM   12  N1  UNL     1      49.337  23.520  31.936  1.00  0.00    -0.306 N 
HETATM   13  C1  UNL     1      49.515  24.911  32.376  1.00  0.00     0.177 C 
HETATM   14  N7  UNL     1      49.257  23.084  30.693  1.00  0.00    -0.308 N 
HETATM   15  C12 UNL     1      49.092  21.731  30.675  1.00  0.00     0.138 A 
ATOM     16  H7  UNL     1      49.312  23.675  29.863  1.00  0.00     0.186 HD
ENDBRANCH   7  10
ENDBRANCH   5   6
ENDBRANCH   4   5
ENDBRANCH   3   4
ENDBRANCH   1   3
BRANCH   1  17
HETATM   17  C7  UNL     1      52.332  17.561  36.123  1.00  0.00     0.313 C 
HETATM   18  C8  UNL     1      53.005  17.985  37.411  1.00  0.00     0.279 C 
HETATM   19  N3  UNL     1      54.276  18.507  36.899  1.00  0.00    -0.031 N 
HETATM   20  C9  UNL     1      53.874  19.252  35.747  1.00  0.00     0.338 C 
ATOM     21  H32 UNL     1      54.826  19.034  37.578  1.00  0.00     0.280 HD
ATOM     22  H31 UNL     1      54.987  17.797  36.721  1.00  0.00     0.280 HD
HETATM   23  C10 UNL     1      53.533  20.698  36.086  1.00  0.00     0.087 C 
HETATM   24  N6  UNL     1      52.714  18.581  35.195  1.00  0.00    -0.019 N 
ATOM     25  H62 UNL     1      52.871  18.224  34.252  1.00  0.00     0.281 HD
ATOM     26  H61 UNL     1      51.953  19.220  34.969  1.00  0.00     0.281 HD
BRANCH  20  27
HETATM   27  C11 UNL     1      54.958  19.301  34.736  1.00  0.00     0.151 C 
HETATM   28  N4  UNL     1      56.172  19.387  35.151  1.00  0.00    -0.388 N 
ATOM     29  H42 UNL     1      56.438  19.422  36.136  1.00  0.00     0.157 HD
ATOM     30  H41 UNL     1      56.917  19.421  34.456  1.00  0.00     0.157 HD
HETATM   31  N5  UNL     1      54.587  19.252  33.364  1.00  0.00    -0.083 NA
ENDBRANCH  20  27
ENDBRANCH   1  17
TORSDOF 7
ENDMDL
MODEL 3
REMARK VINA RESULT: -6.256921838      2.068      2.660
REMARK  7 active torsions:
REMARK  status: ('A' for Active; 'I' for Inactive)
REMARK    1  A    between atoms: C3_4  and  N2_5 
REMARK       I    between atoms: N2_5  and  C4_7 
REMARK    2  A    between atoms: C4_7  and  O2_9 
REMARK    3  A    between atoms: O2_9  and  C5_10 
REMARK    4  A    between atoms: C5_10  and  O3_11 
REMARK    5  A    between atoms: O3_11  and  C6_12 
REMARK    6  A    between atoms: C6_12  and  C7_14 
REMARK    7  A    between atoms: C9_19  and  C11_21 
ROOT
HETATM    1  C6  UNL     1      51.605  17.049  36.236  1.00  0.00     0.293 C 
HETATM    2  O4  UNL     1      51.032  16.322  37.073  1.00  0.00    -0.263 OA
ENDROOT
BRANCH   1   3
HETATM    3  O3  UNL     1      51.000  17.277  35.019  1.00  0.00    -0.293 OA
BRANCH   3   4
HETATM    4  C5  UNL     1      49.684  17.763  34.860  1.00  0.00     0.360 C 
BRANCH   4   5
HETATM    5  O2  UNL     1      49.373  17.918  33.496  1.00  0.00    -0.278 OA
BRANCH   5   6
HETATM    6  C4  UNL     1      50.262  18.576  32.653  1.00  0.00     0.367 C 
HETATM    7  N2  UNL     1      51.063  19.605  33.189  1.00  0.00    -0.300 N 
ATOM      8  H2  UNL     1      50.959  19.827  34.179  1.00  0.00     0.171 HD
HETATM    9  O1  UNL     1      50.288  18.206  31.476  1.00  0.00    -0.238 OA
BRANCH   7  10
HETATM   10  C3  UNL     1      52.007  20.352  32.433  1.00  0.00     0.070 A 
HETATM   11  C2  UNL     1      53.395  20.191  32.436  1.00  0.00     0.140 A 
HETATM   12  N1  UNL     1      53.971  21.067  31.600  1.00  0.00    -0.306 N 
HETATM   13  C1  UNL     1      55.413  21.196  31.341  1.00  0.00     0.177 C 
HETATM   14  N7  UNL     1      53.001  21.783  31.064  1.00  0.00    -0.308 N 
HETATM   15  C12 UNL     1      51.792  21.378  31.545  1.00  0.00     0.138 A 
ATOM     16  H7  UNL     1      53.136  22.533  30.385  1.00  0.00     0.186 HD
ENDBRANCH   7  10
ENDBRANCH   5   6
ENDBRANCH   4   5
ENDBRANCH   3   4
ENDBRANCH   1   3
BRANCH   1  17
HETATM   17  C7  UNL     1      52.909  17.645  36.569  1.00  0.00     0.313 C 
HETATM   18  C8  UNL     1      52.863  18.481  37.831  1.00  0.00     0.279 C 
HETATM   19  N3  UNL     1      54.042  19.331  37.642  1.00  0.00    -0.031 N 
HETATM   20  C9  UNL     1      53.958  19.692  36.261  1.00  0.00     0.338 C 
ATOM     21  H32 UNL     1      54.107  20.120  38.285  1.00  0.00     0.280 HD
ATOM     22  H31 UNL     1      54.926  18.902  37.917  1.00  0.00     0.280 HD
HETATM   23  C10 UNL     1      53.136  20.956  36.044  1.00  0.00     0.087 C 
HETATM   24  N6  UNL     1      53.347  18.573  35.571  1.00  0.00    -0.019 N 
ATOM     25  H62 UNL     1      53.961  18.150  34.874  1.00  0.00     0.281 HD
ATOM     26  H61 UNL     1      52.601  18.855  34.935  1.00  0.00     0.281 HD
BRANCH  20  27
HETATM   27  C11 UNL     1      55.301  19.960  35.694  1.00  0.00     0.151 C 
HETATM   28  N4  UNL     1      56.044  18.955  35.392  1.00  0.00    -0.388 N 
ATOM     29  H42 UNL     1      55.766  17.981  35.517  1.00  0.00     0.157 HD
ATOM     30  H41 UNL     1      56.969  19.139  35.002  1.00  0.00     0.157 HD
HETATM   31  N5  UNL     1      55.689  21.317  35.519  1.00  0.00    -0.083 NA
ENDBRANCH  20  27
ENDBRANCH   1  17
TORSDOF 7
ENDMDL
MODEL 4
REMARK VINA RESULT: -6.229702614      3.002      4.776
REMARK  7 active torsions:
REMARK  status: ('A' for Active; 'I' for Inactive)
REMARK    1  A    between atoms: C3_4  and  N2_5 
REMARK       I    between atoms: N2_5  and  C4_7 
REMARK    2  A    between atoms: C4_7  and  O2_9 
REMARK    3  A    between atoms: O2_9  and  C5_10 
REMARK    4  A    between atoms: C5_10  and  O3_11 
REMARK    5  A    between atoms: O3_11  and  C6_12 
REMARK    6  A    between atoms: C6_12  and  C7_14 
REMARK    7  A    between atoms: C9_19  and  C11_21 
ROOT
HETATM    1  C6  UNL     1      53.466  18.605  35.884  1.00  0.00     0.293 C 
HETATM    2  O4  UNL     1      53.279  17.896  36.894  1.00  0.00    -0.263 OA
ENDROOT
BRANCH   1   3
HETATM    3  O3  UNL     1      54.745  18.747  35.391  1.00  0.00    -0.293 OA
BRANCH   3   4
HETATM    4  C5  UNL     1      55.585  19.851  35.656  1.00  0.00     0.360 C 
BRANCH   4   5
HETATM    5  O2  UNL     1      56.375  20.155  34.531  1.00  0.00    -0.278 OA
BRANCH   5   6
HETATM    6  C4  UNL     1      55.768  20.481  33.324  1.00  0.00     0.367 C 
HETATM    7  N2  UNL     1      54.597  21.266  33.349  1.00  0.00    -0.300 N 
ATOM      8  H2  UNL     1      54.241  21.567  34.256  1.00  0.00     0.171 HD
HETATM    9  O1  UNL     1      56.305  20.052  32.298  1.00  0.00    -0.238 OA
BRANCH   7  10
HETATM   10  C3  UNL     1      53.884  21.665  32.185  1.00  0.00     0.070 A 
HETATM   11  C2  UNL     1      52.817  20.992  31.588  1.00  0.00     0.140 A 
HETATM   12  N1  UNL     1      52.387  21.658  30.506  1.00  0.00    -0.306 N 
HETATM   13  C1  UNL     1      51.282  21.255  29.624  1.00  0.00     0.177 C 
HETATM   14  N7  UNL     1      53.143  22.734  30.391  1.00  0.00    -0.308 N 
HETATM   15  C12 UNL     1      54.065  22.773  31.393  1.00  0.00     0.138 A 
ATOM     16  H7  UNL     1      53.051  23.436  29.656  1.00  0.00     0.186 HD
ENDBRANCH   7  10
ENDBRANCH   5   6
ENDBRANCH   4   5
ENDBRANCH   3   4
ENDBRANCH   1   3
BRANCH   1  17
HETATM   17  C7  UNL     1      52.318  19.268  35.244  1.00  0.00     0.313 C 
HETATM   18  C8  UNL     1      51.112  19.353  36.155  1.00  0.00     0.279 C 
HETATM   19  N3  UNL     1      50.037  19.535  35.174  1.00  0.00    -0.031 N 
HETATM   20  C9  UNL     1      50.385  18.607  34.143  1.00  0.00     0.338 C 
ATOM     21  H32 UNL     1      49.095  19.423  35.548  1.00  0.00     0.280 HD
ATOM     22  H31 UNL     1      49.908  20.496  34.856  1.00  0.00     0.280 HD
HETATM   23  C10 UNL     1      49.792  17.225  34.387  1.00  0.00     0.087 C 
HETATM   24  N6  UNL     1      51.833  18.532  34.116  1.00  0.00    -0.019 N 
ATOM     25  H62 UNL     1      52.232  18.848  33.232  1.00  0.00     0.281 HD
ATOM     26  H61 UNL     1      52.182  17.575  34.084  1.00  0.00     0.281 HD
BRANCH  20  27
HETATM   27  C11 UNL     1      49.879  19.056  32.824  1.00  0.00     0.151 C 
HETATM   28  N4  UNL     1      49.090  20.072  32.791  1.00  0.00    -0.388 N 
ATOM     29  H42 UNL     1      48.791  20.590  33.618  1.00  0.00     0.157 HD
ATOM     30  H41 UNL     1      48.742  20.381  31.884  1.00  0.00     0.157 HD
HETATM   31  N5  UNL     1      50.296  18.335  31.672  1.00  0.00    -0.083 NA
ENDBRANCH  20  27
ENDBRANCH   1  17
TORSDOF 7
ENDMDL
MODEL 5
REMARK VINA RESULT: -6.219254044      1.701      6.297
REMARK  7 active torsions:
REMARK  status: ('A' for Active; 'I' for Inactive)
REMARK    1  A    between atoms: C3_4  and  N2_5 
REMARK       I    between atoms: N2_5  and  C4_7 
REMARK    2  A    between atoms: C4_7  and  O2_9 
REMARK    3  A    between atoms: O2_9  and  C5_10 
REMARK    4  A    between atoms: C5_10  and  O3_11 
REMARK    5  A    between atoms: O3_11  and  C6_12 
REMARK    6  A    between atoms: C6_12  and  C7_14 
REMARK    7  A    between atoms: C9_19  and  C11_21 
ROOT
HETATM    1  C6  UNL     1      49.821  17.926  34.133  1.00  0.00     0.293 C 
HETATM    2  O4  UNL     1      49.134  17.056  33.561  1.00  0.00    -0.263 OA
ENDROOT
BRANCH   1   3
HETATM    3  O3  UNL     1      49.938  17.895  35.506  1.00  0.00    -0.293 OA
BRANCH   3   4
HETATM    4  C5  UNL     1      50.047  16.713  36.271  1.00  0.00     0.360 C 
BRANCH   4   5
HETATM    5  O2  UNL     1      51.359  16.207  36.218  1.00  0.00    -0.278 OA
BRANCH   5   6
HETATM    6  C4  UNL     1      52.408  16.940  36.763  1.00  0.00     0.367 C 
HETATM    7  N2  UNL     1      52.812  18.123  36.112  1.00  0.00    -0.300 N 
ATOM      8  H2  UNL     1      52.317  18.397  35.264  1.00  0.00     0.171 HD
HETATM    9  O1  UNL     1      52.918  16.496  37.795  1.00  0.00    -0.238 OA
BRANCH   7  10
HETATM   10  C3  UNL     1      53.869  18.959  36.568  1.00  0.00     0.070 A 
HETATM   11  C2  UNL     1      53.777  19.980  37.515  1.00  0.00     0.140 A 
HETATM   12  N1  UNL     1      54.973  20.558  37.701  1.00  0.00    -0.306 N 
HETATM   13  C1  UNL     1      55.264  21.668  38.620  1.00  0.00     0.177 C 
HETATM   14  N7  UNL     1      55.826  19.942  36.905  1.00  0.00    -0.308 N 
HETATM   15  C12 UNL     1      55.192  18.963  36.199  1.00  0.00     0.138 A 
ATOM     16  H7  UNL     1      56.819  20.166  36.828  1.00  0.00     0.186 HD
ENDBRANCH   7  10
ENDBRANCH   5   6
ENDBRANCH   4   5
ENDBRANCH   3   4
ENDBRANCH   1   3
BRANCH   1  17
HETATM   17  C7  UNL     1      50.491  18.963  33.329  1.00  0.00     0.313 C 
HETATM   18  C8  UNL     1      50.665  20.264  34.084  1.00  0.00     0.279 C 
HETATM   19  N3  UNL     1      50.835  21.206  32.974  1.00  0.00    -0.031 N 
HETATM   20  C9  UNL     1      49.844  20.777  32.037  1.00  0.00     0.338 C 
ATOM     21  H32 UNL     1      50.776  22.190  33.237  1.00  0.00     0.280 HD
ATOM     22  H31 UNL     1      51.783  21.256  32.599  1.00  0.00     0.280 HD
HETATM   23  C10 UNL     1      48.498  21.452  32.272  1.00  0.00     0.087 C 
HETATM   24  N6  UNL     1      49.716  19.341  32.187  1.00  0.00    -0.019 N 
ATOM     25  H62 UNL     1      49.972  18.828  31.343  1.00  0.00     0.281 HD
ATOM     26  H61 UNL     1      48.747  19.031  32.242  1.00  0.00     0.281 HD
BRANCH  20  27
HETATM   27  C11 UNL     1      50.243  21.105  30.647  1.00  0.00     0.151 C 
HETATM   28  N4  UNL     1      51.337  20.602  30.195  1.00  0.00    -0.388 N 
ATOM     29  H42 UNL     1      51.949  19.989  30.735  1.00  0.00     0.157 HD
ATOM     30  H41 UNL     1      51.612  20.828  29.239  1.00  0.00     0.157 HD
HETATM   31  N5  UNL     1      49.389  21.959  29.895  1.00  0.00    -0.083 NA
ENDBRANCH  20  27
ENDBRANCH   1  17
TORSDOF 7
ENDMDL
