MODEL 1
REMARK VINA RESULT: -6.351956261      0.000      0.000
REMARK  6 active torsions:
REMARK  status: ('A' for Active; 'I' for Inactive)
REMARK    1  A    between atoms: C3_7  and  N3_8 
REMARK    2  A    between atoms: N3_8  and  N4_10 
REMARK       I    between atoms: N4_10  and  C4_12 
REMARK    3  A    between atoms: C4_12  and  C5_14 
REMARK    4  A    between atoms: C5_14  and  N5_16 
REMARK    5  A    between atoms: C7_20  and  N6_21 
REMARK    6  A    between atoms: N6_21  and  N7_23 
ROOT
HETATM    1  C1  UNL     1      49.446  22.222  30.179  1.00  0.00     0.072 C 
HETATM    2  C2  UNL     1      49.425  21.162  31.219  1.00  0.00     0.054 A 
HETATM    3  N1  UNL     1      48.380  20.876  32.024  1.00  0.00    -0.301 N 
ATOM      4  H1  UNL     1      47.474  21.345  32.025  1.00  0.00     0.186 HD
HETATM    5  N2  UNL     1      48.744  19.879  32.808  1.00  0.00    -0.282 N 
ATOM      6  H2  UNL     1      48.153  19.451  33.521  1.00  0.00     0.188 HD
HETATM    7  C3  UNL     1      49.999  19.510  32.535  1.00  0.00     0.165 A 
HETATM    8  C7  UNL     1      50.494  20.320  31.499  1.00  0.00     0.119 A 
ENDROOT
BRANCH   7   9
HETATM    9  N3  UNL     1      50.685  18.482  33.179  1.00  0.00    -0.280 N 
ATOM     10  H3  UNL     1      50.558  17.527  32.843  1.00  0.00     0.188 HD
BRANCH   9  11
HETATM   11  N4  UNL     1      51.528  18.695  34.249  1.00  0.00    -0.267 N 
HETATM   12  C4  UNL     1      51.520  17.765  35.319  1.00  0.00     0.266 C 
HETATM   13  O1  UNL     1      50.794  16.755  35.341  1.00  0.00    -0.269 OA
ATOM     14  H4  UNL     1      52.145  19.507  34.271  1.00  0.00     0.190 HD
BRANCH  12  15
HETATM   15  C5  UNL     1      52.430  18.024  36.468  1.00  0.00     0.272 C 
HETATM   16  C6  UNL     1      52.674  16.682  37.127  1.00  0.00     0.050 C 
BRANCH  15  17
HETATM   17  N5  UNL     1      53.655  18.632  36.006  1.00  0.00    -0.067 N 
ATOM     18  H53 UNL     1      54.268  17.955  35.550  1.00  0.00     0.275 HD
ATOM     19  H52 UNL     1      53.497  19.251  35.212  1.00  0.00     0.275 HD
ATOM     20  H51 UNL     1      54.123  19.110  36.776  1.00  0.00     0.275 HD
ENDBRANCH  15  17
ENDBRANCH  12  15
ENDBRANCH   9  11
ENDBRANCH   7   9
BRANCH   8  21
HETATM   21  N6  UNL     1      51.769  20.257  30.904  1.00  0.00    -0.278 N 
ATOM     22  H6  UNL     1      51.835  19.680  30.066  1.00  0.00     0.188 HD
BRANCH  21  23
HETATM   23  N7  UNL     1      52.933  20.866  31.298  1.00  0.00    -0.169 N 
HETATM   24  C8  UNL     1      53.484  21.944  30.538  1.00  0.00     0.129 C 
HETATM   25  C9  UNL     1      54.810  22.080  30.436  1.00  0.00     0.021 C 
HETATM   26  C10 UNL     1      55.691  21.104  31.116  1.00  0.00     0.220 C 
HETATM   27  O2  UNL     1      55.425  21.109  32.461  1.00  0.00    -0.254 OA
HETATM   28  S1  UNL     1      53.873  20.429  32.698  1.00  0.00     0.381 S 
HETATM   29  O3  UNL     1      53.374  21.062  33.948  1.00  0.00    -0.174 OA
HETATM   30  O4  UNL     1      53.979  18.940  32.821  1.00  0.00    -0.174 OA
ENDBRANCH  21  23
ENDBRANCH   8  21
TORSDOF 6
ENDMDL
MODEL 2
REMARK VINA RESULT: -6.276025982      2.852      4.494
REMARK  6 active torsions:
REMARK  status: ('A' for Active; 'I' for Inactive)
REMARK    1  A    between atoms: C3_7  and  N3_8 
REMARK    2  A    between atoms: N3_8  and  N4_10 
REMARK       I    between atoms: N4_10  and  C4_12 
REMARK    3  A    between atoms: C4_12  and  C5_14 
REMARK    4  A    between atoms: C5_14  and  N5_16 
REMARK    5  A    between atoms: C7_20  and  N6_21 
REMARK    6  A    between atoms: N6_21  and  N7_23 
ROOT
HETATM    1  C1  UNL     1      48.780  17.270  34.314  1.00  0.00     0.072 C 
HETATM    2  C2  UNL     1      49.946  16.968  35.181  1.00  0.00     0.054 A 
HETATM    3  N1  UNL     1      50.091  15.861  35.938  1.00  0.00    -0.301 N 
ATOM      4  H1  UNL     1      49.426  15.091  36.015  1.00  0.00     0.186 HD
HETATM    5  N2  UNL     1      51.252  15.955  36.562  1.00  0.00    -0.282 N 
ATOM      6  H2  UNL     1      51.627  15.258  37.204  1.00  0.00     0.188 HD
HETATM    7  C3  UNL     1      51.863  17.096  36.229  1.00  0.00     0.165 A 
HETATM    8  C7  UNL     1      51.050  17.800  35.326  1.00  0.00     0.119 A 
ENDROOT
BRANCH   7   9
HETATM    9  N3  UNL     1      53.108  17.500  36.707  1.00  0.00    -0.280 N 
ATOM     10  H3  UNL     1      53.940  17.245  36.174  1.00  0.00     0.188 HD
BRANCH   9  11
HETATM   11  N4  UNL     1      53.269  18.229  37.867  1.00  0.00    -0.267 N 
HETATM   12  C4  UNL     1      53.351  19.642  37.778  1.00  0.00     0.266 C 
HETATM   13  O1  UNL     1      53.278  20.265  36.704  1.00  0.00    -0.269 OA
ATOM     14  H4  UNL     1      53.327  17.761  38.771  1.00  0.00     0.190 HD
BRANCH  12  15
HETATM   15  C5  UNL     1      53.536  20.405  39.043  1.00  0.00     0.272 C 
HETATM   16  C6  UNL     1      52.888  19.578  40.135  1.00  0.00     0.050 C 
BRANCH  15  17
HETATM   17  N5  UNL     1      54.941  20.624  39.291  1.00  0.00    -0.067 N 
ATOM     18  H53 UNL     1      55.524  20.251  38.541  1.00  0.00     0.275 HD
ATOM     19  H52 UNL     1      55.195  21.607  39.204  1.00  0.00     0.275 HD
ATOM     20  H51 UNL     1      55.202  20.242  40.201  1.00  0.00     0.275 HD
ENDBRANCH  15  17
ENDBRANCH  12  15
ENDBRANCH   9  11
ENDBRANCH   7   9
BRANCH   8  21
HETATM   21  N6  UNL     1      51.325  19.042  34.721  1.00  0.00    -0.278 N 
ATOM     22  H6  UNL     1      51.173  19.861  35.309  1.00  0.00     0.188 HD
BRANCH  21  23
HETATM   23  N7  UNL     1      51.771  19.299  33.450  1.00  0.00    -0.169 N 
HETATM   24  C8  UNL     1      53.167  19.439  33.181  1.00  0.00     0.129 C 
HETATM   25  C9  UNL     1      53.587  20.308  32.257  1.00  0.00     0.021 C 
HETATM   26  C10 UNL     1      52.590  21.119  31.522  1.00  0.00     0.220 C 
HETATM   27  O2  UNL     1      51.715  20.287  30.872  1.00  0.00    -0.254 OA
HETATM   28  S1  UNL     1      50.754  19.501  32.050  1.00  0.00     0.381 S 
HETATM   29  O3  UNL     1      50.374  18.208  31.421  1.00  0.00    -0.174 OA
HETATM   30  O4  UNL     1      49.559  20.342  32.380  1.00  0.00    -0.174 OA
ENDBRANCH  21  23
ENDBRANCH   8  21
TORSDOF 6
ENDMDL
MODEL 3
REMARK VINA RESULT: -6.258801818      2.838      4.578
REMARK  6 active torsions:
REMARK  status: ('A' for Active; 'I' for Inactive)
REMARK    1  A    between atoms: C3_7  and  N3_8 
REMARK    2  A    between atoms: N3_8  and  N4_10 
REMARK       I    between atoms: N4_10  and  C4_12 
REMARK    3  A    between atoms: C4_12  and  C5_14 
REMARK    4  A    between atoms: C5_14  and  N5_16 
REMARK    5  A    between atoms: C7_20  and  N6_21 
REMARK    6  A    between atoms: N6_21  and  N7_23 
ROOT
HETATM    1  C1  UNL     1      48.843  17.378  34.550  1.00  0.00     0.072 C 
HETATM    2  C2  UNL     1      50.055  17.048  35.341  1.00  0.00     0.054 A 
HETATM    3  N1  UNL     1      50.216  15.947  36.103  1.00  0.00    -0.301 N 
ATOM      4  H1  UNL     1      49.533  15.200  36.236  1.00  0.00     0.186 HD
HETATM    5  N2  UNL     1      51.418  16.011  36.644  1.00  0.00    -0.282 N 
ATOM      6  H2  UNL     1      51.814  15.310  37.270  1.00  0.00     0.188 HD
HETATM    7  C3  UNL     1      52.042  17.126  36.254  1.00  0.00     0.165 A 
HETATM    8  C7  UNL     1      51.193  17.845  35.397  1.00  0.00     0.119 A 
ENDROOT
BRANCH   7   9
HETATM    9  N3  UNL     1      53.330  17.495  36.640  1.00  0.00    -0.280 N 
ATOM     10  H3  UNL     1      54.085  16.820  36.522  1.00  0.00     0.188 HD
BRANCH   9  11
HETATM   11  N4  UNL     1      53.629  18.730  37.176  1.00  0.00    -0.267 N 
HETATM   12  C4  UNL     1      54.766  19.425  36.690  1.00  0.00     0.266 C 
HETATM   13  O1  UNL     1      55.507  18.983  35.795  1.00  0.00    -0.269 OA
ATOM     14  H4  UNL     1      53.046  19.135  37.907  1.00  0.00     0.190 HD
BRANCH  12  15
HETATM   15  C5  UNL     1      55.075  20.751  37.293  1.00  0.00     0.272 C 
HETATM   16  C6  UNL     1      53.757  21.306  37.796  1.00  0.00     0.050 C 
BRANCH  15  17
HETATM   17  N5  UNL     1      56.040  20.602  38.356  1.00  0.00    -0.067 N 
ATOM     18  H53 UNL     1      56.195  19.622  38.595  1.00  0.00     0.275 HD
ATOM     19  H52 UNL     1      56.984  20.832  38.048  1.00  0.00     0.275 HD
ATOM     20  H51 UNL     1      55.759  21.152  39.167  1.00  0.00     0.275 HD
ENDBRANCH  15  17
ENDBRANCH  12  15
ENDBRANCH   9  11
ENDBRANCH   7   9
BRANCH   8  21
HETATM   21  N6  UNL     1      51.466  19.069  34.757  1.00  0.00    -0.278 N 
ATOM     22  H6  UNL     1      51.368  19.901  35.339  1.00  0.00     0.188 HD
BRANCH  21  23
HETATM   23  N7  UNL     1      51.845  19.294  33.458  1.00  0.00    -0.169 N 
HETATM   24  C8  UNL     1      53.227  19.406  33.111  1.00  0.00     0.129 C 
HETATM   25  C9  UNL     1      53.608  20.251  32.149  1.00  0.00     0.021 C 
HETATM   26  C10 UNL     1      52.585  21.062  31.452  1.00  0.00     0.220 C 
HETATM   27  O2  UNL     1      51.663  20.232  30.868  1.00  0.00    -0.254 OA
HETATM   28  S1  UNL     1      50.756  19.485  32.112  1.00  0.00     0.381 S 
HETATM   29  O3  UNL     1      50.324  18.186  31.531  1.00  0.00    -0.174 OA
HETATM   30  O4  UNL     1      49.594  20.352  32.489  1.00  0.00    -0.174 OA
ENDBRANCH  21  23
ENDBRANCH   8  21
TORSDOF 6
ENDMDL
MODEL 4
REMARK VINA RESULT: -6.236798690      1.167      1.309
REMARK  6 active torsions:
REMARK  status: ('A' for Active; 'I' for Inactive)
REMARK    1  A    between atoms: C3_7  and  N3_8 
REMARK    2  A    between atoms: N3_8  and  N4_10 
REMARK       I    between atoms: N4_10  and  C4_12 
REMARK    3  A    between atoms: C4_12  and  C5_14 
REMARK    4  A    between atoms: C5_14  and  N5_16 
REMARK    5  A    between atoms: C7_20  and  N6_21 
REMARK    6  A    between atoms: N6_21  and  N7_23 
ROOT
HETATM    1  C1  UNL     1      49.347  22.085  29.878  1.00  0.00     0.072 C 
HETATM    2  C2  UNL     1      49.415  21.158  31.035  1.00  0.00     0.054 A 
HETATM    3  N1  UNL     1      48.394  20.872  31.870  1.00  0.00    -0.301 N 
ATOM      4  H1  UNL     1      47.448  21.251  31.818  1.00  0.00     0.186 HD
HETATM    5  N2  UNL     1      48.842  20.012  32.766  1.00  0.00    -0.282 N 
ATOM      6  H2  UNL     1      48.287  19.618  33.525  1.00  0.00     0.188 HD
HETATM    7  C3  UNL     1      50.128  19.732  32.535  1.00  0.00     0.165 A 
HETATM    8  C7  UNL     1      50.555  20.457  31.411  1.00  0.00     0.119 A 
ENDROOT
BRANCH   7   9
HETATM    9  N3  UNL     1      50.901  18.855  33.295  1.00  0.00    -0.280 N 
ATOM     10  H3  UNL     1      51.907  18.826  33.130  1.00  0.00     0.188 HD
BRANCH   9  11
HETATM   11  N4  UNL     1      50.368  18.026  34.259  1.00  0.00    -0.267 N 
HETATM   12  C4  UNL     1      51.213  17.558  35.297  1.00  0.00     0.266 C 
HETATM   13  O1  UNL     1      52.414  17.864  35.392  1.00  0.00    -0.269 OA
ATOM     14  H4  UNL     1      49.386  17.753  34.225  1.00  0.00     0.190 HD
BRANCH  12  15
HETATM   15  C5  UNL     1      50.616  16.653  36.319  1.00  0.00     0.272 C 
HETATM   16  C6  UNL     1      49.524  15.877  35.612  1.00  0.00     0.050 C 
BRANCH  15  17
HETATM   17  N5  UNL     1      51.630  15.784  36.867  1.00  0.00    -0.067 N 
ATOM     18  H53 UNL     1      52.520  15.880  36.377  1.00  0.00     0.275 HD
ATOM     19  H52 UNL     1      51.934  16.088  37.791  1.00  0.00     0.275 HD
ATOM     20  H51 UNL     1      51.301  14.818  36.872  1.00  0.00     0.275 HD
ENDBRANCH  15  17
ENDBRANCH  12  15
ENDBRANCH   9  11
ENDBRANCH   7   9
BRANCH   8  21
HETATM   21  N6  UNL     1      51.836  20.444  30.824  1.00  0.00    -0.278 N 
ATOM     22  H6  UNL     1      51.897  19.992  29.912  1.00  0.00     0.188 HD
BRANCH  21  23
HETATM   23  N7  UNL     1      53.011  20.955  31.313  1.00  0.00    -0.169 N 
HETATM   24  C8  UNL     1      53.622  22.092  30.699  1.00  0.00     0.129 C 
HETATM   25  C9  UNL     1      54.954  22.186  30.642  1.00  0.00     0.021 C 
HETATM   26  C10 UNL     1      55.780  21.103  31.222  1.00  0.00     0.220 C 
HETATM   27  O2  UNL     1      55.478  20.961  32.552  1.00  0.00    -0.254 OA
HETATM   28  S1  UNL     1      53.896  20.321  32.672  1.00  0.00     0.381 S 
HETATM   29  O3  UNL     1      53.387  20.823  33.977  1.00  0.00    -0.174 OA
HETATM   30  O4  UNL     1      53.943  18.824  32.622  1.00  0.00    -0.174 OA
ENDBRANCH  21  23
ENDBRANCH   8  21
TORSDOF 6
ENDMDL
MODEL 5
REMARK VINA RESULT: -6.156156733      2.132      5.175
REMARK  6 active torsions:
REMARK  status: ('A' for Active; 'I' for Inactive)
REMARK    1  A    between atoms: C3_7  and  N3_8 
REMARK    2  A    between atoms: N3_8  and  N4_10 
REMARK       I    between atoms: N4_10  and  C4_12 
REMARK    3  A    between atoms: C4_12  and  C5_14 
REMARK    4  A    between atoms: C5_14  and  N5_16 
REMARK    5  A    between atoms: C7_20  and  N6_21 
REMARK    6  A    between atoms: N6_21  and  N7_23 
ROOT
HETATM    1  C1  UNL     1      51.759  16.219  36.808  1.00  0.00     0.072 C 
HETATM    2  C2  UNL     1      50.744  16.663  35.819  1.00  0.00     0.054 A 
HETATM    3  N1  UNL     1      49.731  15.908  35.345  1.00  0.00    -0.301 N 
ATOM      4  H1  UNL     1      49.530  14.941  35.599  1.00  0.00     0.186 HD
HETATM    5  N2  UNL     1      49.049  16.650  34.492  1.00  0.00    -0.282 N 
ATOM      6  H2  UNL     1      48.225  16.338  33.978  1.00  0.00     0.188 HD
HETATM    7  C3  UNL     1      49.592  17.867  34.400  1.00  0.00     0.165 A 
HETATM    8  C7  UNL     1      50.708  17.931  35.250  1.00  0.00     0.119 A 
ENDROOT
BRANCH   7   9
HETATM    9  N3  UNL     1      49.110  18.895  33.591  1.00  0.00    -0.280 N 
ATOM     10  H3  UNL     1      48.231  19.343  33.847  1.00  0.00     0.188 HD
BRANCH   9  11
HETATM   11  N4  UNL     1      49.768  19.333  32.461  1.00  0.00    -0.267 N 
HETATM   12  C4  UNL     1      49.318  20.519  31.828  1.00  0.00     0.266 C 
HETATM   13  O1  UNL     1      48.360  21.195  32.244  1.00  0.00    -0.269 OA
ATOM     14  H4  UNL     1      50.562  18.814  32.087  1.00  0.00     0.190 HD
BRANCH  12  15
HETATM   15  C5  UNL     1      50.036  20.965  30.602  1.00  0.00     0.272 C 
HETATM   16  C6  UNL     1      50.198  22.466  30.727  1.00  0.00     0.050 C 
BRANCH  15  17
HETATM   17  N5  UNL     1      51.308  20.290  30.497  1.00  0.00    -0.067 N 
ATOM     18  H53 UNL     1      51.677  20.028  31.412  1.00  0.00     0.275 HD
ATOM     19  H52 UNL     1      51.212  19.355  30.102  1.00  0.00     0.275 HD
ATOM     20  H51 UNL     1      51.967  20.861  29.970  1.00  0.00     0.275 HD
ENDBRANCH  15  17
ENDBRANCH  12  15
ENDBRANCH   9  11
ENDBRANCH   7   9
BRANCH   8  21
HETATM   21  N6  UNL     1      51.557  19.035  35.461  1.00  0.00    -0.278 N 
ATOM     22  H6  UNL     1      51.153  19.805  35.993  1.00  0.00     0.188 HD
BRANCH  21  23
HETATM   23  N7  UNL     1      52.852  19.214  35.047  1.00  0.00    -0.169 N 
HETATM   24  C8  UNL     1      53.944  18.871  35.903  1.00  0.00     0.129 C 
HETATM   25  C9  UNL     1      55.061  19.604  35.887  1.00  0.00     0.021 C 
HETATM   26  C10 UNL     1      55.150  20.768  34.976  1.00  0.00     0.220 C 
HETATM   27  O2  UNL     1      54.966  20.350  33.683  1.00  0.00    -0.254 OA
HETATM   28  S1  UNL     1      53.335  19.868  33.506  1.00  0.00     0.381 S 
HETATM   29  O3  UNL     1      53.362  18.844  32.428  1.00  0.00    -0.174 OA
HETATM   30  O4  UNL     1      52.488  21.049  33.143  1.00  0.00    -0.174 OA
ENDBRANCH  21  23
ENDBRANCH   8  21
TORSDOF 6
ENDMDL
