MODEL 1
REMARK VINA RESULT: -6.829940864      0.000      0.000
REMARK  7 active torsions:
REMARK  status: ('A' for Active; 'I' for Inactive)
REMARK    1  A    between atoms: C2_2  and  N1_3 
REMARK    2  A    between atoms: C2_2  and  C3_7 
REMARK    3  A    between atoms: C2_2  and  C9_30 
REMARK    4  A    between atoms: C3_7  and  S1_8 
REMARK    5  A    between atoms: S1_8  and  C4_9 
REMARK    6  A    between atoms: C5_14  and  C6_15 
REMARK    7  A    between atoms: C7_21  and  N6_22 
REMARK       I    between atoms: N6_22  and  C8_24 
ROOT
HETATM    1  C4  UNL     1      50.972  20.466  32.871  1.00  0.00     0.203 A 
HETATM    2  N2  UNL     1      49.650  20.428  32.676  1.00  0.00    -0.272 N 
ATOM      3  H2  UNL     1      49.117  21.119  32.147  1.00  0.00     0.189 HD
HETATM    4  N3  UNL     1      49.142  19.383  33.257  1.00  0.00    -0.275 N 
ATOM      5  H3  UNL     1      48.159  19.113  33.266  1.00  0.00     0.189 HD
HETATM    6  C5  UNL     1      50.160  18.723  33.847  1.00  0.00     0.197 A 
HETATM    7  O2  UNL     1      51.254  19.391  33.602  1.00  0.00    -0.266 OA
ENDROOT
BRANCH   6   8
HETATM    8  C6  UNL     1      49.974  17.494  34.600  1.00  0.00     0.155 A 
HETATM    9  N4  UNL     1      48.939  16.642  34.597  1.00  0.00    -0.234 N 
HETATM   10  O1  UNL     1      49.195  15.659  35.440  1.00  0.00    -0.155 OA
ATOM     11  H4  UNL     1      48.093  16.738  34.036  1.00  0.00     0.197 HD
HETATM   12  N5  UNL     1      50.362  15.833  35.998  1.00  0.00    -0.223 N 
HETATM   13  C7  UNL     1      50.887  16.975  35.498  1.00  0.00     0.163 A 
ATOM     14  H5  UNL     1      50.799  15.219  36.685  1.00  0.00     0.198 HD
BRANCH  13  15
HETATM   15  N6  UNL     1      52.021  17.522  35.771  1.00  0.00    -0.314 N 
HETATM   16  C8  UNL     1      52.664  17.415  37.021  1.00  0.00     0.187 C 
HETATM   17  N7  UNL     1      53.115  18.476  37.643  1.00  0.00    -0.373 N 
HETATM   18  N8  UNL     1      52.850  16.170  37.662  1.00  0.00    -0.064 NA
ATOM     19  H72 UNL     1      52.980  19.375  37.181  1.00  0.00     0.158 HD
ATOM     20  H71 UNL     1      53.580  18.398  38.548  1.00  0.00     0.158 HD
ATOM     21  H6  UNL     1      52.480  18.065  35.040  1.00  0.00     0.170 HD
ENDBRANCH  13  15
ENDBRANCH   6   8
BRANCH   1  22
HETATM   22  S1  UNL     1      52.096  21.680  32.286  1.00  0.00    -0.082 SA
BRANCH  22  23
HETATM   23  C3  UNL     1      53.699  21.087  31.785  1.00  0.00     0.131 C 
BRANCH  23  24
HETATM   24  C2  UNL     1      54.656  21.016  32.926  1.00  0.00     0.206 C 
HETATM   25  C1  UNL     1      56.059  21.456  32.503  1.00  0.00     0.057 C 
BRANCH  24  26
HETATM   26  N1  UNL     1      54.307  21.845  34.038  1.00  0.00    -0.061 N 
ATOM     27  H13 UNL     1      55.099  22.355  34.431  1.00  0.00     0.275 HD
ATOM     28  H12 UNL     1      53.753  22.662  33.780  1.00  0.00     0.275 HD
ATOM     29  H11 UNL     1      53.843  21.231  34.707  1.00  0.00     0.275 HD
ENDBRANCH  24  26
BRANCH  24  30
HETATM   30  C9  UNL     1      54.813  19.609  33.386  1.00  0.00     0.267 C 
HETATM   31  N9  UNL     1      54.442  19.278  34.706  1.00  0.00    -0.060 NA
HETATM   32  O3  UNL     1      55.263  18.697  32.651  1.00  0.00    -0.274 OA
ENDBRANCH  24  30
ENDBRANCH  23  24
ENDBRANCH  22  23
ENDBRANCH   1  22
TORSDOF 7
ENDMDL
MODEL 2
REMARK VINA RESULT: -6.815600850      0.985      1.018
REMARK  7 active torsions:
REMARK  status: ('A' for Active; 'I' for Inactive)
REMARK    1  A    between atoms: C2_2  and  N1_3 
REMARK    2  A    between atoms: C2_2  and  C3_7 
REMARK    3  A    between atoms: C2_2  and  C9_30 
REMARK    4  A    between atoms: C3_7  and  S1_8 
REMARK    5  A    between atoms: S1_8  and  C4_9 
REMARK    6  A    between atoms: C5_14  and  C6_15 
REMARK    7  A    between atoms: C7_21  and  N6_22 
REMARK       I    between atoms: N6_22  and  C8_24 
ROOT
HETATM    1  C4  UNL     1      51.456  20.166  32.537  1.00  0.00     0.203 A 
HETATM    2  N2  UNL     1      50.141  20.261  32.313  1.00  0.00    -0.272 N 
ATOM      3  H2  UNL     1      49.701  20.950  31.704  1.00  0.00     0.189 HD
HETATM    4  N3  UNL     1      49.507  19.347  32.983  1.00  0.00    -0.275 N 
ATOM      5  H3  UNL     1      48.499  19.194  32.994  1.00  0.00     0.189 HD
HETATM    6  C5  UNL     1      50.432  18.638  33.663  1.00  0.00     0.197 A 
HETATM    7  O2  UNL     1      51.600  19.146  33.380  1.00  0.00    -0.266 OA
ENDROOT
BRANCH   6   8
HETATM    8  C6  UNL     1      50.093  17.522  34.531  1.00  0.00     0.155 A 
HETATM    9  N4  UNL     1      48.972  16.789  34.576  1.00  0.00    -0.234 N 
HETATM   10  O1  UNL     1      49.096  15.880  35.524  1.00  0.00    -0.155 OA
ATOM     11  H4  UNL     1      48.157  16.913  33.975  1.00  0.00     0.197 HD
HETATM   12  N5  UNL     1      50.259  15.989  36.106  1.00  0.00    -0.223 N 
HETATM   13  C7  UNL     1      50.919  17.009  35.512  1.00  0.00     0.163 A 
ATOM     14  H5  UNL     1      50.608  15.410  36.870  1.00  0.00     0.198 HD
BRANCH  13  15
HETATM   15  N6  UNL     1      52.098  17.461  35.771  1.00  0.00    -0.314 N 
HETATM   16  C8  UNL     1      52.726  17.339  37.028  1.00  0.00     0.187 C 
HETATM   17  N7  UNL     1      53.272  18.376  37.614  1.00  0.00    -0.373 N 
HETATM   18  N8  UNL     1      52.798  16.105  37.712  1.00  0.00    -0.064 NA
ATOM     19  H72 UNL     1      53.220  19.267  37.120  1.00  0.00     0.158 HD
ATOM     20  H71 UNL     1      53.727  18.288  38.523  1.00  0.00     0.158 HD
ATOM     21  H6  UNL     1      52.606  17.933  35.024  1.00  0.00     0.170 HD
ENDBRANCH  13  15
ENDBRANCH   6   8
BRANCH   1  22
HETATM   22  S1  UNL     1      52.723  21.175  31.862  1.00  0.00    -0.082 SA
BRANCH  22  23
HETATM   23  C3  UNL     1      53.838  21.922  33.033  1.00  0.00     0.131 C 
BRANCH  23  24
HETATM   24  C2  UNL     1      54.912  20.983  33.466  1.00  0.00     0.206 C 
HETATM   25  C1  UNL     1      55.201  19.934  32.390  1.00  0.00     0.057 C 
BRANCH  24  26
HETATM   26  N1  UNL     1      56.166  21.613  33.741  1.00  0.00    -0.061 N 
ATOM     27  H13 UNL     1      56.871  20.975  34.113  1.00  0.00     0.275 HD
ATOM     28  H12 UNL     1      56.680  21.885  32.902  1.00  0.00     0.275 HD
ATOM     29  H11 UNL     1      55.954  22.395  34.362  1.00  0.00     0.275 HD
ENDBRANCH  24  26
BRANCH  24  30
HETATM   30  C9  UNL     1      54.475  20.206  34.658  1.00  0.00     0.267 C 
HETATM   31  N9  UNL     1      53.753  20.867  35.674  1.00  0.00    -0.060 NA
HETATM   32  O3  UNL     1      54.718  18.984  34.804  1.00  0.00    -0.274 OA
ENDBRANCH  24  30
ENDBRANCH  23  24
ENDBRANCH  22  23
ENDBRANCH   1  22
TORSDOF 7
ENDMDL
MODEL 3
REMARK VINA RESULT: -6.800323781      1.808      3.621
REMARK  7 active torsions:
REMARK  status: ('A' for Active; 'I' for Inactive)
REMARK    1  A    between atoms: C2_2  and  N1_3 
REMARK    2  A    between atoms: C2_2  and  C3_7 
REMARK    3  A    between atoms: C2_2  and  C9_30 
REMARK    4  A    between atoms: C3_7  and  S1_8 
REMARK    5  A    between atoms: S1_8  and  C4_9 
REMARK    6  A    between atoms: C5_14  and  C6_15 
REMARK    7  A    between atoms: C7_21  and  N6_22 
REMARK       I    between atoms: N6_22  and  C8_24 
ROOT
HETATM    1  C4  UNL     1      53.418  19.090  36.478  1.00  0.00     0.203 A 
HETATM    2  N2  UNL     1      53.630  17.972  37.181  1.00  0.00    -0.272 N 
ATOM      3  H2  UNL     1      54.412  17.821  37.816  1.00  0.00     0.189 HD
HETATM    4  N3  UNL     1      52.693  17.106  36.936  1.00  0.00    -0.275 N 
ATOM      5  H3  UNL     1      52.611  16.173  37.337  1.00  0.00     0.189 HD
HETATM    6  C5  UNL     1      51.849  17.674  36.050  1.00  0.00     0.197 A 
HETATM    7  O2  UNL     1      52.302  18.869  35.787  1.00  0.00    -0.266 OA
ENDROOT
BRANCH   6   8
HETATM    8  C6  UNL     1      50.669  16.998  35.537  1.00  0.00     0.155 A 
HETATM    9  N4  UNL     1      50.204  15.771  35.811  1.00  0.00    -0.234 N 
HETATM   10  O1  UNL     1      49.103  15.568  35.113  1.00  0.00    -0.155 OA
ATOM     11  H4  UNL     1      50.631  15.104  36.453  1.00  0.00     0.197 HD
HETATM   12  N5  UNL     1      48.825  16.617  34.388  1.00  0.00    -0.223 N 
HETATM   13  C7  UNL     1      49.785  17.541  34.624  1.00  0.00     0.163 A 
ATOM     14  H5  UNL     1      48.030  16.722  33.759  1.00  0.00     0.198 HD
BRANCH  13  15
HETATM   15  N6  UNL     1      49.901  18.721  34.122  1.00  0.00    -0.314 N 
HETATM   16  C8  UNL     1      50.528  18.991  32.888  1.00  0.00     0.187 C 
HETATM   17  N7  UNL     1      51.440  19.926  32.782  1.00  0.00    -0.373 N 
HETATM   18  N8  UNL     1      50.208  18.273  31.714  1.00  0.00    -0.064 NA
ATOM     19  H72 UNL     1      51.671  20.444  33.629  1.00  0.00     0.158 HD
ATOM     20  H71 UNL     1      51.893  20.121  31.889  1.00  0.00     0.158 HD
ATOM     21  H6  UNL     1      49.518  19.507  34.647  1.00  0.00     0.170 HD
ENDBRANCH  13  15
ENDBRANCH   6   8
BRANCH   1  22
HETATM   22  S1  UNL     1      54.406  20.540  36.469  1.00  0.00    -0.082 SA
BRANCH  22  23
HETATM   23  C3  UNL     1      54.621  21.331  34.888  1.00  0.00     0.131 C 
BRANCH  23  24
HETATM   24  C2  UNL     1      55.847  20.858  34.183  1.00  0.00     0.206 C 
HETATM   25  C1  UNL     1      56.707  22.033  33.714  1.00  0.00     0.057 C 
BRANCH  24  26
HETATM   26  N1  UNL     1      56.707  20.043  34.984  1.00  0.00    -0.061 N 
ATOM     27  H13 UNL     1      56.495  19.046  34.927  1.00  0.00     0.275 HD
ATOM     28  H12 UNL     1      57.662  19.984  34.629  1.00  0.00     0.275 HD
ATOM     29  H11 UNL     1      56.645  20.420  35.930  1.00  0.00     0.275 HD
ENDBRANCH  24  26
BRANCH  24  30
HETATM   30  C9  UNL     1      55.481  20.124  32.941  1.00  0.00     0.267 C 
HETATM   31  N9  UNL     1      54.440  19.174  32.994  1.00  0.00    -0.060 NA
HETATM   32  O3  UNL     1      56.059  20.310  31.843  1.00  0.00    -0.274 OA
ENDBRANCH  24  30
ENDBRANCH  23  24
ENDBRANCH  22  23
ENDBRANCH   1  22
TORSDOF 7
ENDMDL
MODEL 4
REMARK VINA RESULT: -6.418905288      1.344      1.516
REMARK  7 active torsions:
REMARK  status: ('A' for Active; 'I' for Inactive)
REMARK    1  A    between atoms: C2_2  and  N1_3 
REMARK    2  A    between atoms: C2_2  and  C3_7 
REMARK    3  A    between atoms: C2_2  and  C9_30 
REMARK    4  A    between atoms: C3_7  and  S1_8 
REMARK    5  A    between atoms: S1_8  and  C4_9 
REMARK    6  A    between atoms: C5_14  and  C6_15 
REMARK    7  A    between atoms: C7_21  and  N6_22 
REMARK       I    between atoms: N6_22  and  C8_24 
ROOT
HETATM    1  C4  UNL     1      51.138  20.113  32.395  1.00  0.00     0.203 A 
HETATM    2  N2  UNL     1      49.806  20.236  32.377  1.00  0.00    -0.272 N 
ATOM      3  H2  UNL     1      49.293  20.952  31.864  1.00  0.00     0.189 HD
HETATM    4  N3  UNL     1      49.262  19.311  33.110  1.00  0.00    -0.275 N 
ATOM      5  H3  UNL     1      48.265  19.175  33.270  1.00  0.00     0.189 HD
HETATM    6  C5  UNL     1      50.265  18.566  33.619  1.00  0.00     0.197 A 
HETATM    7  O2  UNL     1      51.387  19.065  33.176  1.00  0.00    -0.266 OA
ENDROOT
BRANCH   6   8
HETATM    8  C6  UNL     1      50.039  17.429  34.495  1.00  0.00     0.155 A 
HETATM    9  N4  UNL     1      49.001  16.581  34.539  1.00  0.00    -0.234 N 
HETATM   10  O1  UNL     1      49.213  15.699  35.498  1.00  0.00    -0.155 OA
ATOM     11  H4  UNL     1      48.183  16.612  33.931  1.00  0.00     0.197 HD
HETATM   12  N5  UNL     1      50.353  15.936  36.087  1.00  0.00    -0.223 N 
HETATM   13  C7  UNL     1      50.906  17.015  35.488  1.00  0.00     0.163 A 
ATOM     14  H5  UNL     1      50.754  15.404  36.859  1.00  0.00     0.198 HD
BRANCH  13  15
HETATM   15  N6  UNL     1      52.028  17.591  35.752  1.00  0.00    -0.314 N 
HETATM   16  C8  UNL     1      52.681  17.504  36.998  1.00  0.00     0.187 C 
HETATM   17  N7  UNL     1      53.111  18.579  37.613  1.00  0.00    -0.373 N 
HETATM   18  N8  UNL     1      52.902  16.267  37.642  1.00  0.00    -0.064 NA
ATOM     19  H72 UNL     1      52.951  19.473  37.148  1.00  0.00     0.158 HD
ATOM     20  H71 UNL     1      53.583  18.516  38.514  1.00  0.00     0.158 HD
ATOM     21  H6  UNL     1      52.469  18.142  35.015  1.00  0.00     0.170 HD
ENDBRANCH  13  15
ENDBRANCH   6   8
BRANCH   1  22
HETATM   22  S1  UNL     1      52.308  21.123  31.565  1.00  0.00    -0.082 SA
BRANCH  22  23
HETATM   23  C3  UNL     1      53.791  21.511  32.471  1.00  0.00     0.131 C 
BRANCH  23  24
HETATM   24  C2  UNL     1      54.874  22.027  31.586  1.00  0.00     0.206 C 
HETATM   25  C1  UNL     1      54.459  21.980  30.114  1.00  0.00     0.057 C 
BRANCH  24  26
HETATM   26  N1  UNL     1      55.245  23.384  31.842  1.00  0.00    -0.061 N 
ATOM     27  H13 UNL     1      55.572  23.882  31.013  1.00  0.00     0.275 HD
ATOM     28  H12 UNL     1      54.451  23.993  32.044  1.00  0.00     0.275 HD
ATOM     29  H11 UNL     1      55.933  23.347  32.594  1.00  0.00     0.275 HD
ENDBRANCH  24  26
BRANCH  24  30
HETATM   30  C9  UNL     1      56.079  21.158  31.677  1.00  0.00     0.267 C 
HETATM   31  N9  UNL     1      56.000  19.962  32.422  1.00  0.00    -0.060 NA
HETATM   32  O3  UNL     1      57.167  21.438  31.121  1.00  0.00    -0.274 OA
ENDBRANCH  24  30
ENDBRANCH  23  24
ENDBRANCH  22  23
ENDBRANCH   1  22
TORSDOF 7
ENDMDL
MODEL 5
REMARK VINA RESULT: -6.310777552      2.450      3.703
REMARK  7 active torsions:
REMARK  status: ('A' for Active; 'I' for Inactive)
REMARK    1  A    between atoms: C2_2  and  N1_3 
REMARK    2  A    between atoms: C2_2  and  C3_7 
REMARK    3  A    between atoms: C2_2  and  C9_30 
REMARK    4  A    between atoms: C3_7  and  S1_8 
REMARK    5  A    between atoms: S1_8  and  C4_9 
REMARK    6  A    between atoms: C5_14  and  C6_15 
REMARK    7  A    between atoms: C7_21  and  N6_22 
REMARK       I    between atoms: N6_22  and  C8_24 
ROOT
HETATM    1  C4  UNL     1      51.132  19.978  32.264  1.00  0.00     0.203 A 
HETATM    2  N2  UNL     1      49.811  20.171  32.341  1.00  0.00    -0.272 N 
ATOM      3  H2  UNL     1      49.298  20.903  31.852  1.00  0.00     0.189 HD
HETATM    4  N3  UNL     1      49.276  19.289  33.132  1.00  0.00    -0.275 N 
ATOM      5  H3  UNL     1      48.288  19.209  33.368  1.00  0.00     0.189 HD
HETATM    6  C5  UNL     1      50.275  18.501  33.581  1.00  0.00     0.197 A 
HETATM    7  O2  UNL     1      51.384  18.931  33.047  1.00  0.00    -0.266 OA
ENDROOT
BRANCH   6   8
HETATM    8  C6  UNL     1      50.056  17.393  34.496  1.00  0.00     0.155 A 
HETATM    9  N4  UNL     1      49.024  16.540  34.569  1.00  0.00    -0.234 N 
HETATM   10  O1  UNL     1      49.242  15.693  35.558  1.00  0.00    -0.155 OA
ATOM     11  H4  UNL     1      48.206  16.545  33.961  1.00  0.00     0.197 HD
HETATM   12  N5  UNL     1      50.380  15.957  36.139  1.00  0.00    -0.223 N 
HETATM   13  C7  UNL     1      50.926  17.020  35.503  1.00  0.00     0.163 A 
ATOM     14  H5  UNL     1      50.785  15.455  36.928  1.00  0.00     0.198 HD
BRANCH  13  15
HETATM   15  N6  UNL     1      52.044  17.612  35.746  1.00  0.00    -0.314 N 
HETATM   16  C8  UNL     1      52.710  17.552  36.987  1.00  0.00     0.187 C 
HETATM   17  N7  UNL     1      53.134  18.641  37.581  1.00  0.00    -0.373 N 
HETATM   18  N8  UNL     1      52.951  16.327  37.648  1.00  0.00    -0.064 NA
ATOM     19  H72 UNL     1      52.959  19.525  37.104  1.00  0.00     0.158 HD
ATOM     20  H71 UNL     1      53.616  18.597  38.479  1.00  0.00     0.158 HD
ATOM     21  H6  UNL     1      52.472  18.156  34.997  1.00  0.00     0.170 HD
ENDBRANCH  13  15
ENDBRANCH   6   8
BRANCH   1  22
HETATM   22  S1  UNL     1      52.288  20.909  31.328  1.00  0.00    -0.082 SA
BRANCH  22  23
HETATM   23  C3  UNL     1      51.782  22.555  30.872  1.00  0.00     0.131 C 
BRANCH  23  24
HETATM   24  C2  UNL     1      51.187  22.603  29.506  1.00  0.00     0.206 C 
HETATM   25  C1  UNL     1      51.674  23.830  28.731  1.00  0.00     0.057 C 
BRANCH  24  26
HETATM   26  N1  UNL     1      51.504  21.475  28.687  1.00  0.00    -0.061 N 
ATOM     27  H13 UNL     1      51.607  21.704  27.698  1.00  0.00     0.275 HD
ATOM     28  H12 UNL     1      52.450  21.120  28.829  1.00  0.00     0.275 HD
ATOM     29  H11 UNL     1      50.777  20.784  28.872  1.00  0.00     0.275 HD
ENDBRANCH  24  26
BRANCH  24  30
HETATM   30  C9  UNL     1      49.709  22.758  29.588  1.00  0.00     0.267 C 
HETATM   31  N9  UNL     1      49.090  23.787  28.848  1.00  0.00    -0.060 NA
HETATM   32  O3  UNL     1      48.982  22.013  30.288  1.00  0.00    -0.274 OA
ENDBRANCH  24  30
ENDBRANCH  23  24
ENDBRANCH  22  23
ENDBRANCH   1  22
TORSDOF 7
ENDMDL
