MODEL 1
REMARK VINA RESULT: -7.321501892      0.000      0.000
REMARK  7 active torsions:
REMARK  status: ('A' for Active; 'I' for Inactive)
REMARK    1  A    between atoms: C2_2  and  C3_3 
REMARK    2  A    between atoms: C3_3  and  N1_4 
REMARK    3  A    between atoms: C4_9  and  C5_10 
REMARK    4  A    between atoms: C6_11  and  N4_12 
REMARK    5  A    between atoms: N4_12  and  C7_14 
REMARK    6  A    between atoms: C8_19  and  N7_20 
REMARK    7  A    between atoms: C9_27  and  C10_28 
ROOT
HETATM    1  C5  UNL     1      52.584  17.959  36.115  1.00  0.00     0.123 A 
HETATM    2  C6  UNL     1      51.729  18.241  35.057  1.00  0.00     0.142 A 
HETATM    3  N9  UNL     1      50.654  17.470  34.774  1.00  0.00    -0.325 N 
ATOM      4  H9  UNL     1      50.042  17.701  33.991  1.00  0.00     0.169 HD
HETATM    5  C9  UNL     1      50.406  16.393  35.541  1.00  0.00     0.148 A 
HETATM    6  N10 UNL     1      51.224  16.103  36.570  1.00  0.00    -0.306 N 
ATOM      7  H10 UNL     1      51.021  15.283  37.142  1.00  0.00     0.170 HD
HETATM    8  C11 UNL     1      52.299  16.854  36.873  1.00  0.00     0.265 A 
HETATM    9  O2  UNL     1      53.058  16.560  37.851  1.00  0.00    -0.267 OA
ENDROOT
BRANCH   2  10
HETATM   10  N4  UNL     1      52.016  19.373  34.278  1.00  0.00    -0.173 N 
ATOM     11  H4  UNL     1      52.880  19.887  34.449  1.00  0.00     0.186 HD
BRANCH  10  12
HETATM   12  C7  UNL     1      51.210  19.783  33.342  1.00  0.00     0.713 A 
HETATM   13  N5  UNL     1      51.440  19.775  32.016  1.00  0.00    -0.117 N 
HETATM   14  N6  UNL     1      50.374  20.276  31.371  1.00  0.00    -0.118 N 
ATOM     15  H5  UNL     1      52.294  19.440  31.570  1.00  0.00     0.206 HD
HETATM   16  C8  UNL     1      49.453  20.608  32.292  1.00  0.00     0.705 A 
ATOM     17  H6  UNL     1      50.281  20.385  30.361  1.00  0.00     0.206 HD
HETATM   18  N8  UNL     1      49.978  20.300  33.491  1.00  0.00    -0.020 N 
ATOM     19  H8  UNL     1      49.509  20.439  34.387  1.00  0.00     0.203 HD
BRANCH  16  20
HETATM   20  N7  UNL     1      48.298  21.121  32.023  1.00  0.00    -0.233 N 
ATOM     21  H72 UNL     1      48.076  22.071  31.727  1.00  0.00     0.174 HD
ATOM     22  H71 UNL     1      47.414  20.617  32.078  1.00  0.00     0.174 HD
ENDBRANCH  16  20
ENDBRANCH  10  12
ENDBRANCH   2  10
BRANCH   1  23
HETATM   23  C4  UNL     1      53.740  18.791  36.417  1.00  0.00     0.157 A 
HETATM   24  N3  UNL     1      55.031  18.351  36.480  1.00  0.00    -0.268 N 
HETATM   25  N2  UNL     1      55.794  19.371  36.774  1.00  0.00    -0.224 N 
ATOM     26  H3  UNL     1      55.346  17.394  36.326  1.00  0.00     0.190 HD
HETATM   27  N1  UNL     1      55.056  20.462  36.905  1.00  0.00    -0.218 N 
ATOM     28  H2  UNL     1      56.807  19.332  36.885  1.00  0.00     0.210 HD
HETATM   29  N11 UNL     1      53.810  20.091  36.685  1.00  0.00    -0.266 N 
ATOM     30  H11 UNL     1      53.007  20.718  36.715  1.00  0.00     0.190 HD
BRANCH  27  31
HETATM   31  C3  UNL     1      55.482  21.803  37.224  1.00  0.00     0.171 C 
BRANCH  31  32
HETATM   32  C2  UNL     1      55.711  22.607  35.965  1.00  0.00     0.019 C 
HETATM   33  C1  UNL     1      57.159  22.490  35.538  1.00  0.00     0.007 C 
ENDBRANCH  31  32
ENDBRANCH  27  31
ENDBRANCH   1  23
BRANCH   5  34
HETATM   34  C10 UNL     1      49.238  15.556  35.232  1.00  0.00     0.307 C 
HETATM   35  O1  UNL     1      48.640  15.640  34.132  1.00  0.00    -0.298 OA
ENDBRANCH   5  34
TORSDOF 7
ENDMDL
MODEL 2
REMARK VINA RESULT: -7.184480729      0.680      1.172
REMARK  7 active torsions:
REMARK  status: ('A' for Active; 'I' for Inactive)
REMARK    1  A    between atoms: C2_2  and  C3_3 
REMARK    2  A    between atoms: C3_3  and  N1_4 
REMARK    3  A    between atoms: C4_9  and  C5_10 
REMARK    4  A    between atoms: C6_11  and  N4_12 
REMARK    5  A    between atoms: N4_12  and  C7_14 
REMARK    6  A    between atoms: C8_19  and  N7_20 
REMARK    7  A    between atoms: C9_27  and  C10_28 
ROOT
HETATM    1  C5  UNL     1      52.558  17.953  36.132  1.00  0.00     0.123 A 
HETATM    2  C6  UNL     1      51.702  18.253  35.080  1.00  0.00     0.142 A 
HETATM    3  N9  UNL     1      50.634  17.481  34.777  1.00  0.00    -0.325 N 
ATOM      4  H9  UNL     1      50.021  17.726  33.999  1.00  0.00     0.169 HD
HETATM    5  C9  UNL     1      50.391  16.386  35.519  1.00  0.00     0.148 A 
HETATM    6  N10 UNL     1      51.209  16.078  36.542  1.00  0.00    -0.306 N 
ATOM      7  H10 UNL     1      51.011  15.244  37.095  1.00  0.00     0.170 HD
HETATM    8  C11 UNL     1      52.279  16.829  36.864  1.00  0.00     0.265 A 
HETATM    9  O2  UNL     1      53.039  16.518  37.837  1.00  0.00    -0.267 OA
ENDROOT
BRANCH   2  10
HETATM   10  N4  UNL     1      51.983  19.404  34.326  1.00  0.00    -0.173 N 
ATOM     11  H4  UNL     1      52.774  19.990  34.593  1.00  0.00     0.186 HD
BRANCH  10  12
HETATM   12  C7  UNL     1      51.262  19.743  33.297  1.00  0.00     0.713 A 
HETATM   13  N5  UNL     1      51.594  19.610  32.000  1.00  0.00    -0.117 N 
HETATM   14  N6  UNL     1      50.594  20.071  31.231  1.00  0.00    -0.118 N 
ATOM     15  H5  UNL     1      52.471  19.220  31.654  1.00  0.00     0.206 HD
HETATM   16  C8  UNL     1      49.613  20.502  32.043  1.00  0.00     0.705 A 
ATOM     17  H6  UNL     1      50.581  20.090  30.211  1.00  0.00     0.206 HD
HETATM   18  N8  UNL     1      50.036  20.294  33.303  1.00  0.00    -0.020 N 
ATOM     19  H8  UNL     1      49.503  20.522  34.142  1.00  0.00     0.203 HD
BRANCH  16  20
HETATM   20  N7  UNL     1      48.496  21.009  31.640  1.00  0.00    -0.233 N 
ATOM     21  H72 UNL     1      48.091  20.997  30.704  1.00  0.00     0.174 HD
ATOM     22  H71 UNL     1      47.840  21.514  32.235  1.00  0.00     0.174 HD
ENDBRANCH  16  20
ENDBRANCH  10  12
ENDBRANCH   2  10
BRANCH   1  23
HETATM   23  C4  UNL     1      53.708  18.785  36.455  1.00  0.00     0.157 A 
HETATM   24  N3  UNL     1      55.011  18.382  36.400  1.00  0.00    -0.268 N 
HETATM   25  N2  UNL     1      55.763  19.390  36.756  1.00  0.00    -0.224 N 
ATOM     26  H3  UNL     1      55.341  17.457  36.128  1.00  0.00     0.190 HD
HETATM   27  N1  UNL     1      55.006  20.437  37.043  1.00  0.00    -0.218 N 
ATOM     28  H2  UNL     1      56.782  19.373  36.806  1.00  0.00     0.210 HD
HETATM   29  N11 UNL     1      53.760  20.052  36.854  1.00  0.00    -0.266 N 
ATOM     30  H11 UNL     1      52.944  20.647  36.995  1.00  0.00     0.190 HD
BRANCH  27  31
HETATM   31  C3  UNL     1      55.416  21.751  37.477  1.00  0.00     0.171 C 
BRANCH  31  32
HETATM   32  C2  UNL     1      56.280  21.663  38.714  1.00  0.00     0.019 C 
HETATM   33  C1  UNL     1      55.429  21.285  39.908  1.00  0.00     0.007 C 
ENDBRANCH  31  32
ENDBRANCH  27  31
ENDBRANCH   1  23
BRANCH   5  34
HETATM   34  C10 UNL     1      49.229  15.548  35.189  1.00  0.00     0.307 C 
HETATM   35  O1  UNL     1      48.625  15.662  34.095  1.00  0.00    -0.298 OA
ENDBRANCH   5  34
TORSDOF 7
ENDMDL
MODEL 3
REMARK VINA RESULT: -7.120749932      2.086      5.803
REMARK  7 active torsions:
REMARK  status: ('A' for Active; 'I' for Inactive)
REMARK    1  A    between atoms: C2_2  and  C3_3 
REMARK    2  A    between atoms: C3_3  and  N1_4 
REMARK    3  A    between atoms: C4_9  and  C5_10 
REMARK    4  A    between atoms: C6_11  and  N4_12 
REMARK    5  A    between atoms: N4_12  and  C7_14 
REMARK    6  A    between atoms: C8_19  and  N7_20 
REMARK    7  A    between atoms: C9_27  and  C10_28 
ROOT
HETATM    1  C5  UNL     1      50.664  18.749  33.929  1.00  0.00     0.123 A 
HETATM    2  C6  UNL     1      51.902  19.008  34.502  1.00  0.00     0.142 A 
HETATM    3  N9  UNL     1      52.415  18.236  35.487  1.00  0.00    -0.325 N 
ATOM      4  H9  UNL     1      53.328  18.449  35.890  1.00  0.00     0.169 HD
HETATM    5  C9  UNL     1      51.704  17.183  35.927  1.00  0.00     0.148 A 
HETATM    6  N10 UNL     1      50.501  16.916  35.384  1.00  0.00    -0.306 N 
ATOM      7  H10 UNL     1      49.974  16.114  35.729  1.00  0.00     0.170 HD
HETATM    8  C11 UNL     1      49.968  17.668  34.403  1.00  0.00     0.265 A 
HETATM    9  O2  UNL     1      48.829  17.396  33.905  1.00  0.00    -0.267 OA
ENDROOT
BRANCH   2  10
HETATM   10  N4  UNL     1      52.619  20.113  34.019  1.00  0.00    -0.173 N 
ATOM     11  H4  UNL     1      52.114  20.869  33.558  1.00  0.00     0.186 HD
BRANCH  10  12
HETATM   12  C7  UNL     1      53.912  20.200  34.145  1.00  0.00     0.713 A 
HETATM   13  N5  UNL     1      54.839  19.579  33.394  1.00  0.00    -0.117 N 
HETATM   14  N6  UNL     1      56.066  19.915  33.825  1.00  0.00    -0.118 N 
ATOM     15  H5  UNL     1      54.642  18.949  32.616  1.00  0.00     0.206 HD
HETATM   16  C8  UNL     1      55.923  20.758  34.862  1.00  0.00     0.705 A 
ATOM     17  H6  UNL     1      56.950  19.588  33.435  1.00  0.00     0.206 HD
HETATM   18  N8  UNL     1      54.600  20.923  35.045  1.00  0.00    -0.020 N 
ATOM     19  H8  UNL     1      54.180  21.513  35.763  1.00  0.00     0.203 HD
BRANCH  16  20
HETATM   20  N7  UNL     1      56.901  21.284  35.521  1.00  0.00    -0.233 N 
ATOM     21  H72 UNL     1      57.887  21.333  35.268  1.00  0.00     0.174 HD
ATOM     22  H71 UNL     1      56.810  21.740  36.428  1.00  0.00     0.174 HD
ENDBRANCH  16  20
ENDBRANCH  10  12
ENDBRANCH   2  10
BRANCH   1  23
HETATM   23  C4  UNL     1      50.113  19.581  32.868  1.00  0.00     0.157 A 
HETATM   24  N3  UNL     1      48.816  20.001  32.791  1.00  0.00    -0.268 N 
HETATM   25  N2  UNL     1      48.688  20.725  31.711  1.00  0.00    -0.224 N 
ATOM     26  H3  UNL     1      48.076  19.786  33.459  1.00  0.00     0.190 HD
HETATM   27  N1  UNL     1      49.847  20.799  31.078  1.00  0.00    -0.218 N 
ATOM     28  H2  UNL     1      47.823  21.169  31.403  1.00  0.00     0.210 HD
HETATM   29  N11 UNL     1      50.703  20.098  31.795  1.00  0.00    -0.266 N 
ATOM     30  H11 UNL     1      51.686  19.969  31.559  1.00  0.00     0.190 HD
BRANCH  27  31
HETATM   31  C3  UNL     1      50.160  21.491  29.851  1.00  0.00     0.171 C 
BRANCH  31  32
HETATM   32  C2  UNL     1      51.648  21.473  29.588  1.00  0.00     0.019 C 
HETATM   33  C1  UNL     1      51.948  22.181  28.284  1.00  0.00     0.007 C 
ENDBRANCH  31  32
ENDBRANCH  27  31
ENDBRANCH   1  23
BRANCH   5  34
HETATM   34  C10 UNL     1      52.263  16.345  36.998  1.00  0.00     0.307 C 
HETATM   35  O1  UNL     1      52.985  16.829  37.904  1.00  0.00    -0.298 OA
ENDBRANCH   5  34
TORSDOF 7
ENDMDL
MODEL 4
REMARK VINA RESULT: -7.049113087      1.145      1.247
REMARK  7 active torsions:
REMARK  status: ('A' for Active; 'I' for Inactive)
REMARK    1  A    between atoms: C2_2  and  C3_3 
REMARK    2  A    between atoms: C3_3  and  N1_4 
REMARK    3  A    between atoms: C4_9  and  C5_10 
REMARK    4  A    between atoms: C6_11  and  N4_12 
REMARK    5  A    between atoms: N4_12  and  C7_14 
REMARK    6  A    between atoms: C8_19  and  N7_20 
REMARK    7  A    between atoms: C9_27  and  C10_28 
ROOT
HETATM    1  C5  UNL     1      52.536  17.873  35.940  1.00  0.00     0.123 A 
HETATM    2  C6  UNL     1      51.572  18.082  34.961  1.00  0.00     0.142 A 
HETATM    3  N9  UNL     1      50.470  17.304  34.858  1.00  0.00    -0.325 N 
ATOM      4  H9  UNL     1      49.778  17.480  34.129  1.00  0.00     0.169 HD
HETATM    5  C9  UNL     1      50.301  16.295  35.730  1.00  0.00     0.148 A 
HETATM    6  N10 UNL     1      51.225  16.076  36.685  1.00  0.00    -0.306 N 
ATOM      7  H10 UNL     1      51.081  15.307  37.339  1.00  0.00     0.170 HD
HETATM    8  C11 UNL     1      52.330  16.835  36.810  1.00  0.00     0.265 A 
HETATM    9  O2  UNL     1      53.189  16.609  37.721  1.00  0.00    -0.267 OA
ENDROOT
BRANCH   2  10
HETATM   10  N4  UNL     1      51.779  19.144  34.067  1.00  0.00    -0.173 N 
ATOM     11  H4  UNL     1      52.674  19.632  34.075  1.00  0.00     0.186 HD
BRANCH  10  12
HETATM   12  C7  UNL     1      50.858  19.522  33.228  1.00  0.00     0.713 A 
HETATM   13  N5  UNL     1      50.695  19.096  31.963  1.00  0.00    -0.117 N 
HETATM   14  N6  UNL     1      49.636  19.714  31.413  1.00  0.00    -0.118 N 
ATOM     15  H5  UNL     1      51.284  18.409  31.492  1.00  0.00     0.206 HD
HETATM   16  C8  UNL     1      49.118  20.543  32.335  1.00  0.00     0.705 A 
ATOM     17  H6  UNL     1      49.288  19.577  30.464  1.00  0.00     0.206 HD
HETATM   18  N8  UNL     1      49.875  20.415  33.439  1.00  0.00    -0.020 N 
ATOM     19  H8  UNL     1      49.725  20.921  34.312  1.00  0.00     0.203 HD
BRANCH  16  20
HETATM   20  N7  UNL     1      48.087  21.298  32.147  1.00  0.00    -0.233 N 
ATOM     21  H72 UNL     1      47.773  22.098  32.695  1.00  0.00     0.174 HD
ATOM     22  H71 UNL     1      47.415  21.183  31.388  1.00  0.00     0.174 HD
ENDBRANCH  16  20
ENDBRANCH  10  12
ENDBRANCH   2  10
BRANCH   1  23
HETATM   23  C4  UNL     1      53.722  18.711  36.049  1.00  0.00     0.157 A 
HETATM   24  N3  UNL     1      54.311  19.092  37.220  1.00  0.00    -0.268 N 
HETATM   25  N2  UNL     1      55.346  19.835  36.930  1.00  0.00    -0.224 N 
ATOM     26  H3  UNL     1      53.998  18.841  38.157  1.00  0.00     0.190 HD
HETATM   27  N1  UNL     1      55.460  19.957  35.618  1.00  0.00    -0.218 N 
ATOM     28  H2  UNL     1      55.973  20.258  37.614  1.00  0.00     0.210 HD
HETATM   29  N11 UNL     1      54.464  19.267  35.097  1.00  0.00    -0.266 N 
ATOM     30  H11 UNL     1      54.288  19.172  34.097  1.00  0.00     0.190 HD
BRANCH  27  31
HETATM   31  C3  UNL     1      56.452  20.685  34.865  1.00  0.00     0.171 C 
BRANCH  31  32
HETATM   32  C2  UNL     1      56.077  20.748  33.402  1.00  0.00     0.019 C 
HETATM   33  C1  UNL     1      56.519  22.073  32.816  1.00  0.00     0.007 C 
ENDBRANCH  31  32
ENDBRANCH  27  31
ENDBRANCH   1  23
BRANCH   5  34
HETATM   34  C10 UNL     1      49.103  15.451  35.617  1.00  0.00     0.307 C 
HETATM   35  O1  UNL     1      48.714  15.005  34.510  1.00  0.00    -0.298 OA
ENDBRANCH   5  34
TORSDOF 7
ENDMDL
MODEL 5
REMARK VINA RESULT: -6.985159389      2.407      5.605
REMARK  7 active torsions:
REMARK  status: ('A' for Active; 'I' for Inactive)
REMARK    1  A    between atoms: C2_2  and  C3_3 
REMARK    2  A    between atoms: C3_3  and  N1_4 
REMARK    3  A    between atoms: C4_9  and  C5_10 
REMARK    4  A    between atoms: C6_11  and  N4_12 
REMARK    5  A    between atoms: N4_12  and  C7_14 
REMARK    6  A    between atoms: C8_19  and  N7_20 
REMARK    7  A    between atoms: C9_27  and  C10_28 
ROOT
HETATM    1  C5  UNL     1      50.664  18.710  33.955  1.00  0.00     0.123 A 
HETATM    2  C6  UNL     1      51.842  19.031  34.617  1.00  0.00     0.142 A 
HETATM    3  N9  UNL     1      52.349  18.255  35.602  1.00  0.00    -0.325 N 
ATOM      4  H9  UNL     1      53.217  18.514  36.071  1.00  0.00     0.169 HD
HETATM    5  C9  UNL     1      51.691  17.136  35.954  1.00  0.00     0.148 A 
HETATM    6  N10 UNL     1      50.547  16.809  35.324  1.00  0.00    -0.306 N 
ATOM      7  H10 UNL     1      50.060  15.957  35.603  1.00  0.00     0.170 HD
HETATM    8  C11 UNL     1      50.021  17.563  34.341  1.00  0.00     0.265 A 
HETATM    9  O2  UNL     1      48.938  17.233  33.760  1.00  0.00    -0.267 OA
ENDROOT
BRANCH   2  10
HETATM   10  N4  UNL     1      52.505  20.204  34.225  1.00  0.00    -0.173 N 
ATOM     11  H4  UNL     1      52.051  21.105  34.378  1.00  0.00     0.186 HD
BRANCH  10  12
HETATM   12  C7  UNL     1      53.682  20.174  33.671  1.00  0.00     0.713 A 
HETATM   13  N5  UNL     1      54.767  19.514  34.117  1.00  0.00    -0.117 N 
HETATM   14  N6  UNL     1      55.796  19.722  33.278  1.00  0.00    -0.118 N 
ATOM     15  H5  UNL     1      54.803  18.943  34.962  1.00  0.00     0.206 HD
HETATM   16  C8  UNL     1      55.366  20.523  32.288  1.00  0.00     0.705 A 
ATOM     17  H6  UNL     1      56.737  19.340  33.376  1.00  0.00     0.206 HD
HETATM   18  N8  UNL     1      54.072  20.790  32.542  1.00  0.00    -0.020 N 
ATOM     19  H8  UNL     1      53.472  21.375  31.960  1.00  0.00     0.203 HD
BRANCH  16  20
HETATM   20  N7  UNL     1      56.095  20.928  31.302  1.00  0.00    -0.233 N 
ATOM     21  H72 UNL     1      56.911  20.479  30.887  1.00  0.00     0.174 HD
ATOM     22  H71 UNL     1      55.944  21.794  30.786  1.00  0.00     0.174 HD
ENDBRANCH  16  20
ENDBRANCH  10  12
ENDBRANCH   2  10
BRANCH   1  23
HETATM   23  C4  UNL     1      50.120  19.547  32.895  1.00  0.00     0.157 A 
HETATM   24  N3  UNL     1      48.826  19.976  32.817  1.00  0.00    -0.268 N 
HETATM   25  N2  UNL     1      48.704  20.702  31.737  1.00  0.00    -0.224 N 
ATOM     26  H3  UNL     1      48.084  19.766  33.484  1.00  0.00     0.190 HD
HETATM   27  N1  UNL     1      49.864  20.767  31.105  1.00  0.00    -0.218 N 
ATOM     28  H2  UNL     1      47.842  21.152  31.429  1.00  0.00     0.210 HD
HETATM   29  N11 UNL     1      50.714  20.060  31.822  1.00  0.00    -0.266 N 
ATOM     30  H11 UNL     1      51.697  19.924  31.586  1.00  0.00     0.190 HD
BRANCH  27  31
HETATM   31  C3  UNL     1      50.182  21.458  29.878  1.00  0.00     0.171 C 
BRANCH  31  32
HETATM   32  C2  UNL     1      51.671  21.433  29.619  1.00  0.00     0.019 C 
HETATM   33  C1  UNL     1      51.978  22.153  28.322  1.00  0.00     0.007 C 
ENDBRANCH  31  32
ENDBRANCH  27  31
ENDBRANCH   1  23
BRANCH   5  34
HETATM   34  C10 UNL     1      52.243  16.294  37.024  1.00  0.00     0.307 C 
HETATM   35  O1  UNL     1      52.996  16.765  37.911  1.00  0.00    -0.298 OA
ENDBRANCH   5  34
TORSDOF 7
ENDMDL
