MODEL 1
REMARK VINA RESULT: -6.927823406      0.000      0.000
REMARK  8 active torsions:
REMARK  status: ('A' for Active; 'I' for Inactive)
REMARK    1  A    between atoms: C2_2  and  C3_3 
REMARK    2  A    between atoms: C3_3  and  N1_4 
REMARK    3  A    between atoms: C6_8  and  C7_9 
REMARK    4  A    between atoms: C7_9  and  O1_10 
REMARK    5  A    between atoms: C7_9  and  C8_12 
REMARK    6  A    between atoms: C8_12  and  C9_13 
REMARK    7  A    between atoms: C9_13  and  C10_15 
REMARK    8  A    between atoms: C14_20  and  O4_21 
ROOT
HETATM    1  N1  UNL     1       2.202  14.532  17.451  1.00  0.00    -0.321 N 
HETATM    2  C4  UNL     1       0.980  14.084  17.142  1.00  0.00     0.085 A 
HETATM    3  S1  UNL     1      -0.000  14.521  15.717  1.00  0.00    -0.033 SA
HETATM    4  C5  UNL     1       0.628  13.217  18.151  1.00  0.00     0.052 A 
HETATM    5  C6  UNL     1       1.638  13.133  19.084  1.00  0.00     0.024 A 
HETATM    6  C14 UNL     1       2.628  13.985  18.606  1.00  0.00     0.152 A 
ENDROOT
BRANCH   5   7
HETATM    7  C7  UNL     1       1.664  12.332  20.339  1.00  0.00     0.162 C 
BRANCH   7   8
HETATM    8  O1  UNL     1       0.900  12.967  21.316  1.00  0.00    -0.390 OA
ATOM      9  H1  UNL     1       0.008  12.642  21.285  1.00  0.00     0.210 HD
ENDBRANCH   7   8
BRANCH   7  10
HETATM   10  C8  UNL     1       1.310  10.901  20.176  1.00  0.00     0.117 C 
BRANCH  10  11
HETATM   11  C9  UNL     1       1.310  10.140  21.442  1.00  0.00     0.158 C 
HETATM   12  O2  UNL     1       0.580  10.470  22.349  1.00  0.00    -0.295 OA
BRANCH  11  13
HETATM   13  C10 UNL     1       2.191   8.953  21.659  1.00  0.00     0.190 C 
HETATM   14  C11 UNL     1       1.698   8.167  22.845  1.00  0.00     0.042 C 
HETATM   15  C12 UNL     1       2.930   7.954  23.652  1.00  0.00     0.029 C 
HETATM   16  C13 UNL     1       3.910   8.932  23.112  1.00  0.00     0.168 C 
HETATM   17  O3  UNL     1       3.492   9.302  21.872  1.00  0.00    -0.378 OA
ENDBRANCH  11  13
ENDBRANCH  10  11
ENDBRANCH   7  10
ENDBRANCH   5   7
BRANCH   6  18
HETATM   18  O4  UNL     1       3.827  14.177  19.279  1.00  0.00    -0.345 OA
ATOM     19  H4  UNL     1       4.553  13.576  19.396  1.00  0.00     0.219 HD
ENDBRANCH   6  18
BRANCH   1  20
HETATM   20  C3  UNL     1       3.023  15.473  16.710  1.00  0.00     0.131 C 
BRANCH  20  21
HETATM   21  C2  UNL     1       2.785  16.899  17.063  1.00  0.00     0.016 C 
HETATM   22  C1  UNL     1       4.019  17.396  17.793  1.00  0.00     0.006 C 
ENDBRANCH  20  21
ENDBRANCH   1  20
TORSDOF 8
ENDMDL
MODEL 2
REMARK VINA RESULT: -6.413146241      2.372      3.062
REMARK  8 active torsions:
REMARK  status: ('A' for Active; 'I' for Inactive)
REMARK    1  A    between atoms: C2_2  and  C3_3 
REMARK    2  A    between atoms: C3_3  and  N1_4 
REMARK    3  A    between atoms: C6_8  and  C7_9 
REMARK    4  A    between atoms: C7_9  and  O1_10 
REMARK    5  A    between atoms: C7_9  and  C8_12 
REMARK    6  A    between atoms: C8_12  and  C9_13 
REMARK    7  A    between atoms: C9_13  and  C10_15 
REMARK    8  A    between atoms: C14_20  and  O4_21 
ROOT
HETATM    1  N1  UNL     1       2.505  13.352  19.246  1.00  0.00    -0.321 N 
HETATM    2  C4  UNL     1       3.111  13.540  20.423  1.00  0.00     0.085 A 
HETATM    3  S1  UNL     1       4.348  14.763  20.817  1.00  0.00    -0.033 SA
HETATM    4  C5  UNL     1       2.589  12.592  21.274  1.00  0.00     0.052 A 
HETATM    5  C6  UNL     1       1.659  11.819  20.615  1.00  0.00     0.024 A 
HETATM    6  C14 UNL     1       1.629  12.331  19.322  1.00  0.00     0.152 A 
ENDROOT
BRANCH   5   7
HETATM    7  C7  UNL     1       0.872  10.673  21.150  1.00  0.00     0.162 C 
BRANCH   7   8
HETATM    8  O1  UNL     1       0.768   9.682  20.177  1.00  0.00    -0.390 OA
ATOM      9  H1  UNL     1      -0.104   9.695  19.800  1.00  0.00     0.210 HD
ENDBRANCH   7   8
BRANCH   7  10
HETATM   10  C8  UNL     1       1.342  10.147  22.454  1.00  0.00     0.117 C 
BRANCH  10  11
HETATM   11  C9  UNL     1       1.781   8.737  22.404  1.00  0.00     0.158 C 
HETATM   12  O2  UNL     1       0.974   7.845  22.531  1.00  0.00    -0.295 OA
BRANCH  11  13
HETATM   13  C10 UNL     1       3.211   8.354  22.197  1.00  0.00     0.190 C 
HETATM   14  C11 UNL     1       4.076   9.069  23.202  1.00  0.00     0.042 C 
HETATM   15  C12 UNL     1       5.169   9.641  22.369  1.00  0.00     0.029 C 
HETATM   16  C13 UNL     1       4.658   9.570  20.975  1.00  0.00     0.168 C 
HETATM   17  O3  UNL     1       3.654   8.653  20.943  1.00  0.00    -0.378 OA
ENDBRANCH  11  13
ENDBRANCH  10  11
ENDBRANCH   7  10
ENDBRANCH   5   7
BRANCH   6  18
HETATM   18  O4  UNL     1       0.800  11.811  18.338  1.00  0.00    -0.345 OA
ATOM     19  H4  UNL     1       0.052  12.210  17.910  1.00  0.00     0.219 HD
ENDBRANCH   6  18
BRANCH   1  20
HETATM   20  C3  UNL     1       2.702  14.091  18.011  1.00  0.00     0.131 C 
BRANCH  20  21
HETATM   21  C2  UNL     1       1.622  15.069  17.707  1.00  0.00     0.016 C 
HETATM   22  C1  UNL     1       0.984  14.644  16.397  1.00  0.00     0.006 C 
ENDBRANCH  20  21
ENDBRANCH   1  20
TORSDOF 8
ENDMDL
MODEL 3
REMARK VINA RESULT: -6.330599883      2.592      3.188
REMARK  8 active torsions:
REMARK  status: ('A' for Active; 'I' for Inactive)
REMARK    1  A    between atoms: C2_2  and  C3_3 
REMARK    2  A    between atoms: C3_3  and  N1_4 
REMARK    3  A    between atoms: C6_8  and  C7_9 
REMARK    4  A    between atoms: C7_9  and  O1_10 
REMARK    5  A    between atoms: C7_9  and  C8_12 
REMARK    6  A    between atoms: C8_12  and  C9_13 
REMARK    7  A    between atoms: C9_13  and  C10_15 
REMARK    8  A    between atoms: C14_20  and  O4_21 
ROOT
HETATM    1  N1  UNL     1       4.122  16.159  18.884  1.00  0.00    -0.321 N 
HETATM    2  C4  UNL     1       4.591  16.227  20.135  1.00  0.00     0.085 A 
HETATM    3  S1  UNL     1       5.300  17.649  20.947  1.00  0.00    -0.033 SA
HETATM    4  C5  UNL     1       4.418  14.972  20.673  1.00  0.00     0.052 A 
HETATM    5  C6  UNL     1       3.842  14.130  19.747  1.00  0.00     0.024 A 
HETATM    6  C14 UNL     1       3.666  14.920  18.617  1.00  0.00     0.152 A 
ENDROOT
BRANCH   5   7
HETATM    7  C7  UNL     1       3.502  12.689  19.904  1.00  0.00     0.162 C 
BRANCH   7   8
HETATM    8  O1  UNL     1       4.541  12.031  20.559  1.00  0.00    -0.390 OA
ATOM      9  H1  UNL     1       4.236  11.188  20.875  1.00  0.00     0.210 HD
ENDBRANCH   7   8
BRANCH   7  10
HETATM   10  C8  UNL     1       2.179  12.421  20.517  1.00  0.00     0.117 C 
BRANCH  10  11
HETATM   11  C9  UNL     1       1.474  11.263  19.930  1.00  0.00     0.158 C 
HETATM   12  O2  UNL     1       0.888  11.379  18.877  1.00  0.00    -0.295 OA
BRANCH  11  13
HETATM   13  C10 UNL     1       1.451   9.923  20.591  1.00  0.00     0.190 C 
HETATM   14  C11 UNL     1       0.888  10.056  21.982  1.00  0.00     0.042 C 
HETATM   15  C12 UNL     1       1.874   9.323  22.823  1.00  0.00     0.029 C 
HETATM   16  C13 UNL     1       3.078   9.187  21.962  1.00  0.00     0.168 C 
HETATM   17  O3  UNL     1       2.690   9.359  20.670  1.00  0.00    -0.378 OA
ENDBRANCH  11  13
ENDBRANCH  10  11
ENDBRANCH   7  10
ENDBRANCH   5   7
BRANCH   6  18
HETATM   18  O4  UNL     1       3.103  14.426  17.448  1.00  0.00    -0.345 OA
ATOM     19  H4  UNL     1       2.540  14.864  16.821  1.00  0.00     0.219 HD
ENDBRANCH   6  18
BRANCH   1  20
HETATM   20  C3  UNL     1       4.075  17.215  17.889  1.00  0.00     0.131 C 
BRANCH  20  21
HETATM   21  C2  UNL     1       2.960  18.182  18.078  1.00  0.00     0.016 C 
HETATM   22  C1  UNL     1       1.830  17.752  17.159  1.00  0.00     0.006 C 
ENDBRANCH  20  21
ENDBRANCH   1  20
TORSDOF 8
ENDMDL
MODEL 4
REMARK VINA RESULT: -6.282486910      3.036      7.058
REMARK  8 active torsions:
REMARK  status: ('A' for Active; 'I' for Inactive)
REMARK    1  A    between atoms: C2_2  and  C3_3 
REMARK    2  A    between atoms: C3_3  and  N1_4 
REMARK    3  A    between atoms: C6_8  and  C7_9 
REMARK    4  A    between atoms: C7_9  and  O1_10 
REMARK    5  A    between atoms: C7_9  and  C8_12 
REMARK    6  A    between atoms: C8_12  and  C9_13 
REMARK    7  A    between atoms: C9_13  and  C10_15 
REMARK    8  A    between atoms: C14_20  and  O4_21 
ROOT
HETATM    1  N1  UNL     1       3.142   9.711  21.400  1.00  0.00    -0.321 N 
HETATM    2  C4  UNL     1       1.913   9.212  21.574  1.00  0.00     0.085 A 
HETATM    3  S1  UNL     1       1.482   7.602  22.211  1.00  0.00    -0.033 SA
HETATM    4  C5  UNL     1       1.043  10.193  21.158  1.00  0.00     0.052 A 
HETATM    5  C6  UNL     1       1.741  11.300  20.725  1.00  0.00     0.024 A 
HETATM    6  C14 UNL     1       3.078  10.958  20.893  1.00  0.00     0.152 A 
ENDROOT
BRANCH   5   7
HETATM    7  C7  UNL     1       1.197  12.572  20.176  1.00  0.00     0.162 C 
BRANCH   7   8
HETATM    8  O1  UNL     1       1.843  13.653  20.771  1.00  0.00    -0.390 OA
ATOM      9  H1  UNL     1       2.292  13.363  21.557  1.00  0.00     0.210 HD
ENDBRANCH   7   8
BRANCH   7  10
HETATM   10  C8  UNL     1       1.181  12.660  18.696  1.00  0.00     0.117 C 
BRANCH  10  11
HETATM   11  C9  UNL     1       1.966  13.790  18.159  1.00  0.00     0.158 C 
HETATM   12  O2  UNL     1       3.173  13.783  18.238  1.00  0.00    -0.295 OA
BRANCH  11  13
HETATM   13  C10 UNL     1       1.322  14.970  17.506  1.00  0.00     0.190 C 
HETATM   14  C11 UNL     1       0.507  14.513  16.325  1.00  0.00     0.042 C 
HETATM   15  C12 UNL     1       0.939  15.430  15.234  1.00  0.00     0.029 C 
HETATM   16  C13 UNL     1       2.199  16.040  15.731  1.00  0.00     0.168 C 
HETATM   17  O3  UNL     1       2.231  15.893  17.083  1.00  0.00    -0.378 OA
ENDBRANCH  11  13
ENDBRANCH  10  11
ENDBRANCH   7  10
ENDBRANCH   5   7
BRANCH   6  18
HETATM   18  O4  UNL     1       4.112  11.825  20.566  1.00  0.00    -0.345 OA
ATOM     19  H4  UNL     1       4.073  12.745  20.335  1.00  0.00     0.219 HD
ENDBRANCH   6  18
BRANCH   1  20
HETATM   20  C3  UNL     1       4.414   9.072  21.684  1.00  0.00     0.131 C 
BRANCH  20  21
HETATM   21  C2  UNL     1       4.700   8.899  23.133  1.00  0.00     0.016 C 
HETATM   22  C1  UNL     1       5.643  10.016  23.544  1.00  0.00     0.006 C 
ENDBRANCH  20  21
ENDBRANCH   1  20
TORSDOF 8
ENDMDL
MODEL 5
REMARK VINA RESULT: -6.262024558      2.758      3.797
REMARK  8 active torsions:
REMARK  status: ('A' for Active; 'I' for Inactive)
REMARK    1  A    between atoms: C2_2  and  C3_3 
REMARK    2  A    between atoms: C3_3  and  N1_4 
REMARK    3  A    between atoms: C6_8  and  C7_9 
REMARK    4  A    between atoms: C7_9  and  O1_10 
REMARK    5  A    between atoms: C7_9  and  C8_12 
REMARK    6  A    between atoms: C8_12  and  C9_13 
REMARK    7  A    between atoms: C9_13  and  C10_15 
REMARK    8  A    between atoms: C14_20  and  O4_21 
ROOT
HETATM    1  N1  UNL     1       4.606  16.795  20.079  1.00  0.00    -0.321 N 
HETATM    2  C4  UNL     1       4.271  17.109  18.823  1.00  0.00     0.085 A 
HETATM    3  S1  UNL     1       4.389  18.708  18.042  1.00  0.00    -0.033 SA
HETATM    4  C5  UNL     1       3.811  15.944  18.252  1.00  0.00     0.052 A 
HETATM    5  C6  UNL     1       3.862  14.911  19.162  1.00  0.00     0.024 A 
HETATM    6  C14 UNL     1       4.375  15.489  20.318  1.00  0.00     0.152 A 
ENDROOT
BRANCH   5   7
HETATM    7  C7  UNL     1       3.444  13.496  18.969  1.00  0.00     0.162 C 
BRANCH   7   8
HETATM    8  O1  UNL     1       4.251  12.660  19.737  1.00  0.00    -0.390 OA
ATOM      9  H1  UNL     1       3.734  11.936  20.071  1.00  0.00     0.210 HD
ENDBRANCH   7   8
BRANCH   7  10
HETATM   10  C8  UNL     1       1.997  13.237  19.170  1.00  0.00     0.117 C 
BRANCH  10  11
HETATM   11  C9  UNL     1       1.681  12.607  20.468  1.00  0.00     0.158 C 
HETATM   12  O2  UNL     1       1.735  13.257  21.488  1.00  0.00    -0.295 OA
BRANCH  11  13
HETATM   13  C10 UNL     1       1.287  11.171  20.583  1.00  0.00     0.190 C 
HETATM   14  C11 UNL     1       0.749  10.902  21.964  1.00  0.00     0.042 C 
HETATM   15  C12 UNL     1       1.485   9.680  22.388  1.00  0.00     0.029 C 
HETATM   16  C13 UNL     1       2.628   9.580  21.443  1.00  0.00     0.168 C 
HETATM   17  O3  UNL     1       2.328  10.324  20.344  1.00  0.00    -0.378 OA
ENDBRANCH  11  13
ENDBRANCH  10  11
ENDBRANCH   7  10
ENDBRANCH   5   7
BRANCH   6  18
HETATM   18  O4  UNL     1       4.582  14.760  21.482  1.00  0.00    -0.345 OA
ATOM     19  H4  UNL     1       4.519  15.042  22.386  1.00  0.00     0.219 HD
ENDBRANCH   6  18
BRANCH   1  20
HETATM   20  C3  UNL     1       5.144  17.669  21.106  1.00  0.00     0.131 C 
BRANCH  20  21
HETATM   21  C2  UNL     1       6.618  17.854  21.039  1.00  0.00     0.016 C 
HETATM   22  C1  UNL     1       7.230  17.009  22.141  1.00  0.00     0.006 C 
ENDBRANCH  20  21
ENDBRANCH   1  20
TORSDOF 8
ENDMDL
