MODEL 1
REMARK VINA RESULT: -5.701928467      0.000      0.000
REMARK  7 active torsions:
REMARK  status: ('A' for Active; 'I' for Inactive)
REMARK    1  A    between atoms: C2_2  and  C3_3 
REMARK    2  A    between atoms: C2_2  and  C12_19 
REMARK    3  A    between atoms: C3_3  and  C4_4 
REMARK    4  A    between atoms: C4_4  and  C5_5 
REMARK    5  A    between atoms: C5_5  and  N1_6 
REMARK    6  A    between atoms: C6_7  and  O1_8 
REMARK    7  A    between atoms: C9_12  and  O2_13 
ROOT
HETATM    1  N1  UNL     1       1.455  13.854  17.748  1.00  0.00    -0.306 N 
HETATM    2  C6  UNL     1       2.689  14.394  17.740  1.00  0.00     0.163 A 
HETATM    3  C7  UNL     1       2.685  15.447  16.836  1.00  0.00     0.072 A 
HETATM    4  C8  UNL     1       1.405  15.533  16.290  1.00  0.00     0.072 A 
HETATM    5  C9  UNL     1       0.685  14.538  16.877  1.00  0.00     0.163 A 
HETATM    6  S1  UNL     1       1.138  16.821  15.088  1.00  0.00    -0.123 SA
HETATM    7  C10 UNL     1       1.793  18.366  15.746  1.00  0.00     0.090 C 
HETATM    8  C11 UNL     1       3.223  18.292  16.148  1.00  0.00     0.090 C 
HETATM    9  S2  UNL     1       3.881  16.631  16.261  1.00  0.00    -0.123 SA
ENDROOT
BRANCH   1  10
HETATM   10  C5  UNL     1       1.071  12.711  18.586  1.00  0.00     0.133 C 
BRANCH  10  11
HETATM   11  C4  UNL     1       0.754  13.270  19.956  1.00  0.00     0.021 C 
BRANCH  11  12
HETATM   12  C3  UNL     1       1.548  12.606  21.036  1.00  0.00     0.016 C 
BRANCH  12  13
HETATM   13  C2  UNL     1       2.057  11.241  20.631  1.00  0.00     0.083 C 
HETATM   14  C1  UNL     1       3.527  11.094  20.835  1.00  0.00     0.021 C 
BRANCH  13  15
HETATM   15  C12 UNL     1       1.339  10.171  21.364  1.00  0.00     0.176 C 
HETATM   16  O3  UNL     1       0.351  10.443  22.057  1.00  0.00    -0.648 OA
HETATM   17  O4  UNL     1       1.767   8.865  21.280  1.00  0.00    -0.648 OA
ENDBRANCH  13  15
ENDBRANCH  12  13
ENDBRANCH  11  12
ENDBRANCH  10  11
ENDBRANCH   1  10
BRANCH   2  18
HETATM   18  O1  UNL     1       3.800  13.997  18.490  1.00  0.00    -0.345 OA
ATOM     19  H1  UNL     1       4.085  14.335  19.330  1.00  0.00     0.219 HD
ENDBRANCH   2  18
BRANCH   5  20
HETATM   20  O2  UNL     1      -0.655  14.286  16.599  1.00  0.00    -0.345 OA
ATOM     21  H2  UNL     1      -1.390  14.488  17.166  1.00  0.00     0.219 HD
ENDBRANCH   5  20
TORSDOF 7
ENDMDL
MODEL 2
REMARK VINA RESULT: -5.677378226      0.686      2.196
REMARK  7 active torsions:
REMARK  status: ('A' for Active; 'I' for Inactive)
REMARK    1  A    between atoms: C2_2  and  C3_3 
REMARK    2  A    between atoms: C2_2  and  C12_19 
REMARK    3  A    between atoms: C3_3  and  C4_4 
REMARK    4  A    between atoms: C4_4  and  C5_5 
REMARK    5  A    between atoms: C5_5  and  N1_6 
REMARK    6  A    between atoms: C6_7  and  O1_8 
REMARK    7  A    between atoms: C9_12  and  O2_13 
ROOT
HETATM    1  N1  UNL     1       1.605  13.898  17.853  1.00  0.00    -0.306 N 
HETATM    2  C6  UNL     1       0.817  14.606  17.022  1.00  0.00     0.163 A 
HETATM    3  C7  UNL     1       1.567  15.664  16.527  1.00  0.00     0.072 A 
HETATM    4  C8  UNL     1       2.842  15.579  17.084  1.00  0.00     0.072 A 
HETATM    5  C9  UNL     1       2.820  14.482  17.891  1.00  0.00     0.163 A 
HETATM    6  S1  UNL     1       4.007  16.837  16.602  1.00  0.00    -0.123 SA
HETATM    7  C10 UNL     1       3.968  16.998  14.806  1.00  0.00     0.090 C 
HETATM    8  C11 UNL     1       2.615  17.276  14.255  1.00  0.00     0.090 C 
HETATM    9  S2  UNL     1       1.271  17.016  15.409  1.00  0.00    -0.123 SA
ENDROOT
BRANCH   1  10
HETATM   10  C5  UNL     1       1.160  12.698  18.572  1.00  0.00     0.133 C 
BRANCH  10  11
HETATM   11  C4  UNL     1       0.752  13.153  19.957  1.00  0.00     0.021 C 
BRANCH  11  12
HETATM   12  C3  UNL     1       1.596  12.537  21.027  1.00  0.00     0.016 C 
BRANCH  12  13
HETATM   13  C2  UNL     1       2.149  11.187  20.629  1.00  0.00     0.083 C 
HETATM   14  C1  UNL     1       3.618  11.076  20.867  1.00  0.00     0.021 C 
BRANCH  13  15
HETATM   15  C12 UNL     1       1.442  10.097  21.344  1.00  0.00     0.176 C 
HETATM   16  O3  UNL     1       0.433  10.342  22.016  1.00  0.00    -0.648 OA
HETATM   17  O4  UNL     1       1.904   8.803  21.266  1.00  0.00    -0.648 OA
ENDBRANCH  13  15
ENDBRANCH  12  13
ENDBRANCH  11  12
ENDBRANCH  10  11
ENDBRANCH   1  10
BRANCH   2  18
HETATM   18  O1  UNL     1      -0.517  14.357  16.690  1.00  0.00    -0.345 OA
ATOM     19  H1  UNL     1      -1.216  14.990  16.578  1.00  0.00     0.219 HD
ENDBRANCH   2  18
BRANCH   5  20
HETATM   20  O2  UNL     1       3.913  14.049  18.636  1.00  0.00    -0.345 OA
ATOM     21  H2  UNL     1       4.785  14.425  18.618  1.00  0.00     0.219 HD
ENDBRANCH   5  20
TORSDOF 7
ENDMDL
MODEL 3
REMARK VINA RESULT: -5.654786298      1.345      1.828
REMARK  7 active torsions:
REMARK  status: ('A' for Active; 'I' for Inactive)
REMARK    1  A    between atoms: C2_2  and  C3_3 
REMARK    2  A    between atoms: C2_2  and  C12_19 
REMARK    3  A    between atoms: C3_3  and  C4_4 
REMARK    4  A    between atoms: C4_4  and  C5_5 
REMARK    5  A    between atoms: C5_5  and  N1_6 
REMARK    6  A    between atoms: C6_7  and  O1_8 
REMARK    7  A    between atoms: C9_12  and  O2_13 
ROOT
HETATM    1  N1  UNL     1       1.484  13.588  18.619  1.00  0.00    -0.306 N 
HETATM    2  C6  UNL     1       2.690  14.160  18.438  1.00  0.00     0.163 A 
HETATM    3  C7  UNL     1       2.601  14.995  17.332  1.00  0.00     0.072 A 
HETATM    4  C8  UNL     1       1.298  14.914  16.843  1.00  0.00     0.072 A 
HETATM    5  C9  UNL     1       0.649  14.040  17.661  1.00  0.00     0.163 A 
HETATM    6  S1  UNL     1       0.924  15.904  15.410  1.00  0.00    -0.123 SA
HETATM    7  C10 UNL     1       1.530  17.578  15.694  1.00  0.00     0.090 C 
HETATM    8  C11 UNL     1       2.976  17.646  16.033  1.00  0.00     0.090 C 
HETATM    9  S2  UNL     1       3.716  16.074  16.464  1.00  0.00    -0.123 SA
ENDROOT
BRANCH   1  10
HETATM   10  C5  UNL     1       1.188  12.636  19.697  1.00  0.00     0.133 C 
BRANCH  10  11
HETATM   11  C4  UNL     1       1.122  11.267  19.055  1.00  0.00     0.021 C 
BRANCH  11  12
HETATM   12  C3  UNL     1       1.124  10.166  20.068  1.00  0.00     0.016 C 
BRANCH  12  13
HETATM   13  C2  UNL     1       2.025  10.459  21.246  1.00  0.00     0.083 C 
HETATM   14  C1  UNL     1       1.680   9.645  22.448  1.00  0.00     0.021 C 
BRANCH  13  15
HETATM   15  C12 UNL     1       3.447  10.246  20.888  1.00  0.00     0.176 C 
HETATM   16  O3  UNL     1       3.878   9.103  20.692  1.00  0.00    -0.648 OA
HETATM   17  O4  UNL     1       4.301  11.319  20.770  1.00  0.00    -0.648 OA
ENDBRANCH  13  15
ENDBRANCH  12  13
ENDBRANCH  11  12
ENDBRANCH  10  11
ENDBRANCH   1  10
BRANCH   2  18
HETATM   18  O1  UNL     1       3.847  13.975  19.200  1.00  0.00    -0.345 OA
ATOM     19  H1  UNL     1       3.912  13.630  20.083  1.00  0.00     0.219 HD
ENDBRANCH   2  18
BRANCH   5  20
HETATM   20  O2  UNL     1      -0.687  13.684  17.507  1.00  0.00    -0.345 OA
ATOM     21  H2  UNL     1      -1.008  12.877  17.124  1.00  0.00     0.219 HD
ENDBRANCH   5  20
TORSDOF 7
ENDMDL
MODEL 4
REMARK VINA RESULT: -5.531530165      2.449      3.201
REMARK  7 active torsions:
REMARK  status: ('A' for Active; 'I' for Inactive)
REMARK    1  A    between atoms: C2_2  and  C3_3 
REMARK    2  A    between atoms: C2_2  and  C12_19 
REMARK    3  A    between atoms: C3_3  and  C4_4 
REMARK    4  A    between atoms: C4_4  and  C5_5 
REMARK    5  A    between atoms: C5_5  and  N1_6 
REMARK    6  A    between atoms: C6_7  and  O1_8 
REMARK    7  A    between atoms: C9_12  and  O2_13 
ROOT
HETATM    1  N1  UNL     1       3.949  14.325  19.810  1.00  0.00    -0.306 N 
HETATM    2  C6  UNL     1       4.421  15.266  20.650  1.00  0.00     0.163 A 
HETATM    3  C7  UNL     1       4.476  16.466  19.953  1.00  0.00     0.072 A 
HETATM    4  C8  UNL     1       4.022  16.226  18.657  1.00  0.00     0.072 A 
HETATM    5  C9  UNL     1       3.710  14.901  18.614  1.00  0.00     0.163 A 
HETATM    6  S1  UNL     1       3.996  17.623  17.552  1.00  0.00    -0.123 SA
HETATM    7  C10 UNL     1       3.205  19.007  18.395  1.00  0.00     0.090 C 
HETATM    8  C11 UNL     1       3.834  19.360  19.695  1.00  0.00     0.090 C 
HETATM    9  S2  UNL     1       4.969  18.132  20.333  1.00  0.00    -0.123 SA
ENDROOT
BRANCH   1  10
HETATM   10  C5  UNL     1       3.750  12.921  20.190  1.00  0.00     0.133 C 
BRANCH  10  11
HETATM   11  C4  UNL     1       2.278  12.766  20.508  1.00  0.00     0.021 C 
BRANCH  11  12
HETATM   12  C3  UNL     1       1.781  11.383  20.229  1.00  0.00     0.016 C 
BRANCH  12  13
HETATM   13  C2  UNL     1       1.849  10.483  21.442  1.00  0.00     0.083 C 
HETATM   14  C1  UNL     1       0.549  10.404  22.171  1.00  0.00     0.021 C 
BRANCH  13  15
HETATM   15  C12 UNL     1       2.294   9.120  21.064  1.00  0.00     0.176 C 
HETATM   16  O3  UNL     1       3.233   8.967  20.273  1.00  0.00    -0.648 OA
HETATM   17  O4  UNL     1       1.666   8.014  21.589  1.00  0.00    -0.648 OA
ENDBRANCH  13  15
ENDBRANCH  12  13
ENDBRANCH  11  12
ENDBRANCH  10  11
ENDBRANCH   1  10
BRANCH   2  18
HETATM   18  O1  UNL     1       4.798  15.107  21.986  1.00  0.00    -0.345 OA
ATOM     19  H1  UNL     1       5.304  14.400  22.367  1.00  0.00     0.219 HD
ENDBRANCH   2  18
BRANCH   5  20
HETATM   20  O2  UNL     1       3.216  14.260  17.482  1.00  0.00    -0.345 OA
ATOM     21  H2  UNL     1       3.723  14.003  16.721  1.00  0.00     0.219 HD
ENDBRANCH   5  20
TORSDOF 7
ENDMDL
MODEL 5
REMARK VINA RESULT: -5.517140251      2.432      3.584
REMARK  7 active torsions:
REMARK  status: ('A' for Active; 'I' for Inactive)
REMARK    1  A    between atoms: C2_2  and  C3_3 
REMARK    2  A    between atoms: C2_2  and  C12_19 
REMARK    3  A    between atoms: C3_3  and  C4_4 
REMARK    4  A    between atoms: C4_4  and  C5_5 
REMARK    5  A    between atoms: C5_5  and  N1_6 
REMARK    6  A    between atoms: C6_7  and  O1_8 
REMARK    7  A    between atoms: C9_12  and  O2_13 
ROOT
HETATM    1  N1  UNL     1       4.079  14.908  19.488  1.00  0.00    -0.306 N 
HETATM    2  C6  UNL     1       3.574  15.180  18.269  1.00  0.00     0.163 A 
HETATM    3  C7  UNL     1       3.754  16.536  18.029  1.00  0.00     0.072 A 
HETATM    4  C8  UNL     1       4.387  17.084  19.144  1.00  0.00     0.072 A 
HETATM    5  C9  UNL     1       4.566  16.051  20.013  1.00  0.00     0.163 A 
HETATM    6  S1  UNL     1       4.734  18.830  19.083  1.00  0.00    -0.123 SA
HETATM    7  C10 UNL     1       5.512  19.206  17.500  1.00  0.00     0.090 C 
HETATM    8  C11 UNL     1       4.718  18.773  16.320  1.00  0.00     0.090 C 
HETATM    9  S2  UNL     1       3.376  17.649  16.695  1.00  0.00    -0.123 SA
ENDROOT
BRANCH   1  10
HETATM   10  C5  UNL     1       4.071  13.570  20.093  1.00  0.00     0.133 C 
BRANCH  10  11
HETATM   11  C4  UNL     1       3.142  13.644  21.287  1.00  0.00     0.021 C 
BRANCH  11  12
HETATM   12  C3  UNL     1       1.758  13.184  20.957  1.00  0.00     0.016 C 
BRANCH  12  13
HETATM   13  C2  UNL     1       1.687  11.698  20.684  1.00  0.00     0.083 C 
HETATM   14  C1  UNL     1       0.898  10.963  21.715  1.00  0.00     0.021 C 
BRANCH  13  15
HETATM   15  C12 UNL     1       1.122  11.435  19.339  1.00  0.00     0.176 C 
HETATM   16  O3  UNL     1       0.841  10.281  18.993  1.00  0.00    -0.648 OA
HETATM   17  O4  UNL     1       0.904  12.474  18.463  1.00  0.00    -0.648 OA
ENDBRANCH  13  15
ENDBRANCH  12  13
ENDBRANCH  11  12
ENDBRANCH  10  11
ENDBRANCH   1  10
BRANCH   2  18
HETATM   18  O1  UNL     1       2.970  14.290  17.377  1.00  0.00    -0.345 OA
ATOM     19  H1  UNL     1       3.144  14.190  16.449  1.00  0.00     0.219 HD
ENDBRANCH   2  18
BRANCH   5  20
HETATM   20  O2  UNL     1       5.171  16.185  21.259  1.00  0.00    -0.345 OA
ATOM     21  H2  UNL     1       6.064  16.469  21.418  1.00  0.00     0.219 HD
ENDBRANCH   5  20
TORSDOF 7
ENDMDL
