MODEL 1
REMARK VINA RESULT: -5.472610898      0.000      0.000
REMARK  10 active torsions:
REMARK  status: ('A' for Active; 'I' for Inactive)
REMARK    1  A    between atoms: C2_2  and  O1_3 
REMARK    2  A    between atoms: O1_3  and  C3_4 
REMARK       I    between atoms: C3_4  and  N1_6 
REMARK    3  A    between atoms: N1_6  and  C4_8 
REMARK    4  A    between atoms: C6_12  and  S1_13 
REMARK    5  A    between atoms: S1_13  and  C7_14 
REMARK    6  A    between atoms: C7_14  and  C8_15 
REMARK    7  A    between atoms: C8_15  and  C9_16 
REMARK    8  A    between atoms: C9_16  and  C10_17 
REMARK    9  A    between atoms: C10_17  and  O3_18 
REMARK   10  A    between atoms: N3_20  and  O4_22 
ROOT
HETATM    1  C4  UNL     1       1.155  11.932  19.429  1.00  0.00     0.154 A 
HETATM    2  N2  UNL     1       1.093  12.380  20.682  1.00  0.00    -0.344 N 
ATOM      3  H2  UNL     1       1.022  13.379  20.874  1.00  0.00     0.167 HD
HETATM    4  C5  UNL     1       1.127  11.520  21.654  1.00  0.00     0.116 A 
HETATM    5  C6  UNL     1       1.224  10.192  21.337  1.00  0.00     0.060 A 
HETATM    6  S2  UNL     1       1.263  10.244  19.623  1.00  0.00    -0.045 SA
ENDROOT
BRANCH   5   7
HETATM    7  S1  UNL     1       1.290   8.777  22.453  1.00  0.00    -0.121 SA
BRANCH   7   8
HETATM    8  C7  UNL     1       2.897   8.861  23.296  1.00  0.00     0.080 C 
BRANCH   8   9
HETATM    9  C8  UNL     1       4.041   8.796  22.292  1.00  0.00     0.019 C 
BRANCH   9  10
HETATM   10  C9  UNL     1       4.784  10.081  22.198  1.00  0.00     0.086 C 
BRANCH  10  11
HETATM   11  C10 UNL     1       4.926  10.515  20.811  1.00  0.00     0.135 C 
HETATM   12  N3  UNL     1       4.639  11.644  20.364  1.00  0.00    -0.251 N 
ATOM     13  H3  UNL     1       4.813  11.743  19.365  1.00  0.00     0.196 HD
BRANCH  11  14
HETATM   14  O3  UNL     1       5.433   9.568  19.903  1.00  0.00    -0.348 OA
ATOM     15  H3  UNL     1       5.464   9.828  18.990  1.00  0.00     0.219 HD
ENDBRANCH  11  14
BRANCH  12  16
HETATM   16  O4  UNL     1       4.147  12.755  20.934  1.00  0.00    -0.288 OA
ATOM     17  H4  UNL     1       3.921  13.612  20.592  1.00  0.00     0.244 HD
ENDBRANCH  12  16
ENDBRANCH  10  11
ENDBRANCH   9  10
ENDBRANCH   8   9
ENDBRANCH   7   8
ENDBRANCH   5   7
BRANCH   1  18
HETATM   18  N1  UNL     1       1.138  12.601  18.301  1.00  0.00    -0.282 N 
HETATM   19  C3  UNL     1       1.933  13.739  18.103  1.00  0.00     0.366 C 
HETATM   20  O2  UNL     1       3.192  13.747  18.290  1.00  0.00    -0.238 OA
ATOM     21  H1  UNL     1       0.530  12.284  17.546  1.00  0.00     0.173 HD
BRANCH  19  22
HETATM   22  O1  UNL     1       1.341  14.908  17.686  1.00  0.00    -0.304 OA
BRANCH  22  23
HETATM   23  C2  UNL     1       1.397  15.394  16.358  1.00  0.00     0.176 C 
HETATM   24  C1  UNL     1       0.279  14.777  15.582  1.00  0.00     0.034 C 
ENDBRANCH  22  23
ENDBRANCH  19  22
ENDBRANCH   1  18
TORSDOF 10
ENDMDL
MODEL 2
REMARK VINA RESULT: -5.108909531      1.363      1.802
REMARK  10 active torsions:
REMARK  status: ('A' for Active; 'I' for Inactive)
REMARK    1  A    between atoms: C2_2  and  O1_3 
REMARK    2  A    between atoms: O1_3  and  C3_4 
REMARK       I    between atoms: C3_4  and  N1_6 
REMARK    3  A    between atoms: N1_6  and  C4_8 
REMARK    4  A    between atoms: C6_12  and  S1_13 
REMARK    5  A    between atoms: S1_13  and  C7_14 
REMARK    6  A    between atoms: C7_14  and  C8_15 
REMARK    7  A    between atoms: C8_15  and  C9_16 
REMARK    8  A    between atoms: C9_16  and  C10_17 
REMARK    9  A    between atoms: C10_17  and  O3_18 
REMARK   10  A    between atoms: N3_20  and  O4_22 
ROOT
HETATM    1  C4  UNL     1       1.167  12.318  19.668  1.00  0.00     0.154 A 
HETATM    2  N2  UNL     1       1.108  11.193  18.957  1.00  0.00    -0.344 N 
ATOM      3  H2  UNL     1       1.050  11.224  17.940  1.00  0.00     0.167 HD
HETATM    4  C5  UNL     1       1.126  10.057  19.585  1.00  0.00     0.116 A 
HETATM    5  C6  UNL     1       1.205  10.076  20.952  1.00  0.00     0.060 A 
HETATM    6  S2  UNL     1       1.250  11.761  21.275  1.00  0.00    -0.045 SA
ENDROOT
BRANCH   5   7
HETATM    7  S1  UNL     1       1.248   8.679  22.090  1.00  0.00    -0.121 SA
BRANCH   7   8
HETATM    8  C7  UNL     1       2.583   9.020  23.274  1.00  0.00     0.080 C 
BRANCH   8   9
HETATM    9  C8  UNL     1       3.915   8.489  22.757  1.00  0.00     0.019 C 
BRANCH   9  10
HETATM   10  C9  UNL     1       4.840   9.581  22.355  1.00  0.00     0.086 C 
BRANCH  10  11
HETATM   11  C10 UNL     1       4.759   9.848  20.921  1.00  0.00     0.135 C 
HETATM   12  N3  UNL     1       4.722  10.975  20.387  1.00  0.00    -0.251 N 
ATOM     13  H3  UNL     1       4.665  10.941  19.370  1.00  0.00     0.196 HD
BRANCH  11  14
HETATM   14  O3  UNL     1       4.719   8.726  20.074  1.00  0.00    -0.348 OA
ATOM     15  H3  UNL     1       4.180   8.801  19.294  1.00  0.00     0.219 HD
ENDBRANCH  11  14
BRANCH  12  16
HETATM   16  O4  UNL     1       4.742  12.222  20.881  1.00  0.00    -0.288 OA
ATOM     17  H4  UNL     1       5.293  12.977  20.712  1.00  0.00     0.244 HD
ENDBRANCH  12  16
ENDBRANCH  10  11
ENDBRANCH   9  10
ENDBRANCH   8   9
ENDBRANCH   7   8
ENDBRANCH   5   7
BRANCH   1  18
HETATM   18  N1  UNL     1       1.163  13.564  19.261  1.00  0.00    -0.282 N 
HETATM   19  C3  UNL     1       1.301  13.902  17.907  1.00  0.00     0.366 C 
HETATM   20  O2  UNL     1       0.557  13.419  16.993  1.00  0.00    -0.238 OA
ATOM     21  H1  UNL     1       1.057  14.310  19.949  1.00  0.00     0.173 HD
BRANCH  19  22
HETATM   22  O1  UNL     1       2.277  14.795  17.533  1.00  0.00    -0.304 OA
BRANCH  22  23
HETATM   23  C2  UNL     1       3.443  15.057  18.292  1.00  0.00     0.176 C 
HETATM   24  C1  UNL     1       3.808  16.496  18.116  1.00  0.00     0.034 C 
ENDBRANCH  22  23
ENDBRANCH  19  22
ENDBRANCH   1  18
TORSDOF 10
ENDMDL
MODEL 3
REMARK VINA RESULT: -4.999268742      1.612      2.233
REMARK  10 active torsions:
REMARK  status: ('A' for Active; 'I' for Inactive)
REMARK    1  A    between atoms: C2_2  and  O1_3 
REMARK    2  A    between atoms: O1_3  and  C3_4 
REMARK       I    between atoms: C3_4  and  N1_6 
REMARK    3  A    between atoms: N1_6  and  C4_8 
REMARK    4  A    between atoms: C6_12  and  S1_13 
REMARK    5  A    between atoms: S1_13  and  C7_14 
REMARK    6  A    between atoms: C7_14  and  C8_15 
REMARK    7  A    between atoms: C8_15  and  C9_16 
REMARK    8  A    between atoms: C9_16  and  C10_17 
REMARK    9  A    between atoms: C10_17  and  O3_18 
REMARK   10  A    between atoms: N3_20  and  O4_22 
ROOT
HETATM    1  C4  UNL     1       1.323  12.425  19.462  1.00  0.00     0.154 A 
HETATM    2  N2  UNL     1       1.057  11.297  18.805  1.00  0.00    -0.344 N 
ATOM      3  H2  UNL     1       0.926  11.303  17.794  1.00  0.00     0.167 HD
HETATM    4  C5  UNL     1       0.967  10.191  19.478  1.00  0.00     0.116 A 
HETATM    5  C6  UNL     1       1.152  10.242  20.833  1.00  0.00     0.060 A 
HETATM    6  S2  UNL     1       1.451  11.914  21.081  1.00  0.00    -0.045 SA
ENDROOT
BRANCH   5   7
HETATM    7  S1  UNL     1       1.090   8.890  22.024  1.00  0.00    -0.121 SA
BRANCH   7   8
HETATM    8  C7  UNL     1       2.430   9.189  23.214  1.00  0.00     0.080 C 
BRANCH   8   9
HETATM    9  C8  UNL     1       3.692   8.436  22.811  1.00  0.00     0.019 C 
BRANCH   9  10
HETATM   10  C9  UNL     1       4.781   9.351  22.378  1.00  0.00     0.086 C 
BRANCH  10  11
HETATM   11  C10 UNL     1       4.678   9.669  20.956  1.00  0.00     0.135 C 
HETATM   12  N3  UNL     1       4.382   8.867  20.047  1.00  0.00    -0.251 N 
ATOM     13  H3  UNL     1       4.365   9.291  19.120  1.00  0.00     0.196 HD
BRANCH  11  14
HETATM   14  O3  UNL     1       4.940  11.000  20.588  1.00  0.00    -0.348 OA
ATOM     15  H3  UNL     1       4.627  11.675  21.179  1.00  0.00     0.219 HD
ENDBRANCH  11  14
BRANCH  12  16
HETATM   16  O4  UNL     1       4.080   7.560  20.043  1.00  0.00    -0.288 OA
ATOM     17  H4  UNL     1       4.112   6.890  19.370  1.00  0.00     0.244 HD
ENDBRANCH  12  16
ENDBRANCH  10  11
ENDBRANCH   9  10
ENDBRANCH   8   9
ENDBRANCH   7   8
ENDBRANCH   5   7
BRANCH   1  18
HETATM   18  N1  UNL     1       1.458  13.646  19.003  1.00  0.00    -0.282 N 
HETATM   19  C3  UNL     1       1.447  13.928  17.630  1.00  0.00     0.366 C 
HETATM   20  O2  UNL     1       0.510  13.554  16.853  1.00  0.00    -0.238 OA
ATOM     21  H1  UNL     1       1.575  14.414  19.665  1.00  0.00     0.173 HD
BRANCH  19  22
HETATM   22  O1  UNL     1       2.488  14.639  17.081  1.00  0.00    -0.304 OA
BRANCH  22  23
HETATM   23  C2  UNL     1       3.393  15.426  17.834  1.00  0.00     0.176 C 
HETATM   24  C1  UNL     1       3.813  16.592  16.998  1.00  0.00     0.034 C 
ENDBRANCH  22  23
ENDBRANCH  19  22
ENDBRANCH   1  18
TORSDOF 10
ENDMDL
MODEL 4
REMARK VINA RESULT: -4.937212258      2.097      2.861
REMARK  10 active torsions:
REMARK  status: ('A' for Active; 'I' for Inactive)
REMARK    1  A    between atoms: C2_2  and  O1_3 
REMARK    2  A    between atoms: O1_3  and  C3_4 
REMARK       I    between atoms: C3_4  and  N1_6 
REMARK    3  A    between atoms: N1_6  and  C4_8 
REMARK    4  A    between atoms: C6_12  and  S1_13 
REMARK    5  A    between atoms: S1_13  and  C7_14 
REMARK    6  A    between atoms: C7_14  and  C8_15 
REMARK    7  A    between atoms: C8_15  and  C9_16 
REMARK    8  A    between atoms: C9_16  and  C10_17 
REMARK    9  A    between atoms: C10_17  and  O3_18 
REMARK   10  A    between atoms: N3_20  and  O4_22 
ROOT
HETATM    1  C4  UNL     1       3.022  14.163  18.241  1.00  0.00     0.154 A 
HETATM    2  N2  UNL     1       3.857  13.822  19.220  1.00  0.00    -0.344 N 
ATOM      3  H2  UNL     1       4.821  14.155  19.221  1.00  0.00     0.167 HD
HETATM    4  C5  UNL     1       3.421  13.057  20.174  1.00  0.00     0.116 A 
HETATM    5  C6  UNL     1       2.118  12.639  20.121  1.00  0.00     0.060 A 
HETATM    6  S2  UNL     1       1.572  13.381  18.674  1.00  0.00    -0.045 SA
ENDROOT
BRANCH   5   7
HETATM    7  S1  UNL     1       1.234  11.583  21.284  1.00  0.00    -0.121 SA
BRANCH   7   8
HETATM    8  C7  UNL     1       1.208   9.920  20.553  1.00  0.00     0.080 C 
BRANCH   8   9
HETATM    9  C8  UNL     1       1.640   8.873  21.572  1.00  0.00     0.019 C 
BRANCH   9  10
HETATM   10  C9  UNL     1       2.988   8.319  21.275  1.00  0.00     0.086 C 
BRANCH  10  11
HETATM   11  C10 UNL     1       4.037   9.078  21.953  1.00  0.00     0.135 C 
HETATM   12  N3  UNL     1       4.934   9.744  21.397  1.00  0.00    -0.251 N 
ATOM     13  H3  UNL     1       5.569  10.198  22.052  1.00  0.00     0.196 HD
BRANCH  11  14
HETATM   14  O3  UNL     1       4.028   9.048  23.359  1.00  0.00    -0.348 OA
ATOM     15  H3  UNL     1       4.636   9.629  23.801  1.00  0.00     0.219 HD
ENDBRANCH  11  14
BRANCH  12  16
HETATM   16  O4  UNL     1       5.231   9.983  20.111  1.00  0.00    -0.288 OA
ATOM     17  H4  UNL     1       5.591  10.737  19.658  1.00  0.00     0.244 HD
ENDBRANCH  12  16
ENDBRANCH  10  11
ENDBRANCH   9  10
ENDBRANCH   8   9
ENDBRANCH   7   8
ENDBRANCH   5   7
BRANCH   1  18
HETATM   18  N1  UNL     1       3.233  14.915  17.187  1.00  0.00    -0.282 N 
HETATM   19  C3  UNL     1       2.297  15.865  16.755  1.00  0.00     0.366 C 
HETATM   20  O2  UNL     1       1.821  16.766  17.518  1.00  0.00    -0.238 OA
ATOM     21  H1  UNL     1       4.103  14.805  16.667  1.00  0.00     0.173 HD
BRANCH  19  22
HETATM   22  O1  UNL     1       1.863  15.837  15.450  1.00  0.00    -0.304 OA
BRANCH  22  23
HETATM   23  C2  UNL     1       0.500  15.789  15.071  1.00  0.00     0.176 C 
HETATM   24  C1  UNL     1      -0.026  14.422  15.371  1.00  0.00     0.034 C 
ENDBRANCH  22  23
ENDBRANCH  19  22
ENDBRANCH   1  18
TORSDOF 10
ENDMDL
MODEL 5
REMARK VINA RESULT: -4.874444530      2.257      2.913
REMARK  10 active torsions:
REMARK  status: ('A' for Active; 'I' for Inactive)
REMARK    1  A    between atoms: C2_2  and  O1_3 
REMARK    2  A    between atoms: O1_3  and  C3_4 
REMARK       I    between atoms: C3_4  and  N1_6 
REMARK    3  A    between atoms: N1_6  and  C4_8 
REMARK    4  A    between atoms: C6_12  and  S1_13 
REMARK    5  A    between atoms: S1_13  and  C7_14 
REMARK    6  A    between atoms: C7_14  and  C8_15 
REMARK    7  A    between atoms: C8_15  and  C9_16 
REMARK    8  A    between atoms: C9_16  and  C10_17 
REMARK    9  A    between atoms: C10_17  and  O3_18 
REMARK   10  A    between atoms: N3_20  and  O4_22 
ROOT
HETATM    1  C4  UNL     1       3.170  14.059  18.394  1.00  0.00     0.154 A 
HETATM    2  N2  UNL     1       4.020  13.589  19.306  1.00  0.00    -0.344 N 
ATOM      3  H2  UNL     1       5.003  13.859  19.287  1.00  0.00     0.167 HD
HETATM    4  C5  UNL     1       3.572  12.782  20.218  1.00  0.00     0.116 A 
HETATM    5  C6  UNL     1       2.243  12.454  20.194  1.00  0.00     0.060 A 
HETATM    6  S2  UNL     1       1.690  13.341  18.833  1.00  0.00    -0.045 SA
ENDROOT
BRANCH   5   7
HETATM    7  S1  UNL     1       1.338  11.370  21.314  1.00  0.00    -0.121 SA
BRANCH   7   8
HETATM    8  C7  UNL     1       1.310   9.729  20.533  1.00  0.00     0.080 C 
BRANCH   8   9
HETATM    9  C8  UNL     1       1.713   8.648  21.529  1.00  0.00     0.019 C 
BRANCH   9  10
HETATM   10  C9  UNL     1       3.084   8.131  21.276  1.00  0.00     0.086 C 
BRANCH  10  11
HETATM   11  C10 UNL     1       4.097   8.971  21.910  1.00  0.00     0.135 C 
HETATM   12  N3  UNL     1       4.998   9.601  21.320  1.00  0.00    -0.251 N 
ATOM     13  H3  UNL     1       5.604  10.128  21.949  1.00  0.00     0.196 HD
BRANCH  11  14
HETATM   14  O3  UNL     1       4.044   9.072  23.311  1.00  0.00    -0.348 OA
ATOM     15  H3  UNL     1       4.765   9.526  23.733  1.00  0.00     0.219 HD
ENDBRANCH  11  14
BRANCH  12  16
HETATM   16  O4  UNL     1       5.331   9.725  20.027  1.00  0.00    -0.288 OA
ATOM     17  H4  UNL     1       6.161   9.850  19.581  1.00  0.00     0.244 HD
ENDBRANCH  12  16
ENDBRANCH  10  11
ENDBRANCH   9  10
ENDBRANCH   8   9
ENDBRANCH   7   8
ENDBRANCH   5   7
BRANCH   1  18
HETATM   18  N1  UNL     1       3.388  14.875  17.391  1.00  0.00    -0.282 N 
HETATM   19  C3  UNL     1       3.436  16.266  17.564  1.00  0.00     0.366 C 
HETATM   20  O2  UNL     1       4.192  16.833  18.417  1.00  0.00    -0.238 OA
ATOM     21  H1  UNL     1       3.527  14.488  16.458  1.00  0.00     0.173 HD
BRANCH  19  22
HETATM   22  O1  UNL     1       2.635  17.068  16.785  1.00  0.00    -0.304 OA
BRANCH  22  23
HETATM   23  C2  UNL     1       1.415  16.644  16.206  1.00  0.00     0.176 C 
HETATM   24  C1  UNL     1       1.591  16.588  14.723  1.00  0.00     0.034 C 
ENDBRANCH  22  23
ENDBRANCH  19  22
ENDBRANCH   1  18
TORSDOF 10
ENDMDL
