MODEL 1
REMARK VINA RESULT: -6.806662830      0.000      0.000
REMARK  9 active torsions:
REMARK  status: ('A' for Active; 'I' for Inactive)
REMARK    1  A    between atoms: C6_9  and  C7_10 
REMARK    2  A    between atoms: C7_10  and  C8_11 
REMARK    3  A    between atoms: C8_11  and  C9_12 
REMARK    4  A    between atoms: C9_12  and  C10_13 
REMARK    5  A    between atoms: C10_13  and  O1_14 
REMARK    6  A    between atoms: O1_14  and  C11_15 
REMARK    7  A    between atoms: C11_15  and  C12_17 
REMARK    8  A    between atoms: C13_18  and  O3_19 
REMARK    9  A    between atoms: C15_23  and  O5_24 
ROOT
HETATM    1  C10 UNL     1       0.922  11.527  21.745  1.00  0.00     0.179 C 
ENDROOT
BRANCH   1   2
HETATM    2  C9  UNL     1       0.676  10.053  21.944  1.00  0.00     0.027 C 
BRANCH   2   3
HETATM    3  C8  UNL     1       1.795   9.442  22.765  1.00  0.00     0.002 C 
BRANCH   3   4
HETATM    4  C7  UNL     1       2.514   8.356  22.064  1.00  0.00     0.007 C 
BRANCH   4   5
HETATM    5  C6  UNL     1       3.973   8.473  21.882  1.00  0.00     0.021 C 
HETATM    6  C2  UNL     1       4.378   9.812  22.549  1.00  0.00     0.013 C 
HETATM    7  C1  UNL     1       5.425   9.575  23.630  1.00  0.00     0.012 C 
HETATM    8  C3  UNL     1       4.934  10.673  21.444  1.00  0.00     0.237 C 
HETATM    9  N1  UNL     1       4.261  10.102  20.266  1.00  0.00    -0.070 N 
HETATM   10  C4  UNL     1       4.504   8.691  20.520  1.00  0.00     0.186 C 
ATOM     11  H12 UNL     1       3.288  10.373  20.129  1.00  0.00     0.277 HD
ATOM     12  H11 UNL     1       4.567  10.455  19.359  1.00  0.00     0.277 HD
HETATM   13  C5  UNL     1       4.016   7.840  19.418  1.00  0.00     0.040 C 
ENDBRANCH   4   5
ENDBRANCH   3   4
ENDBRANCH   2   3
ENDBRANCH   1   2
BRANCH   1  14
HETATM   14  O1  UNL     1       1.863  11.827  20.763  1.00  0.00    -0.317 OA
BRANCH  14  15
HETATM   15  C11 UNL     1       1.516  12.073  19.470  1.00  0.00     0.301 C 
HETATM   16  O2  UNL     1       0.766  11.280  18.805  1.00  0.00    -0.259 OA
BRANCH  15  17
HETATM   17  C12 UNL     1       1.970  13.268  18.728  1.00  0.00     0.132 A 
HETATM   18  C13 UNL     1       1.245  14.053  17.887  1.00  0.00     0.109 A 
HETATM   19  C14 UNL     1       2.087  15.047  17.431  1.00  0.00     0.182 A 
HETATM   20  O4  UNL     1       3.244  14.847  17.983  1.00  0.00    -0.297 OA
HETATM   21  C15 UNL     1       3.244  13.814  18.759  1.00  0.00     0.202 A 
BRANCH  18  22
HETATM   22  O3  UNL     1      -0.055  13.937  17.524  1.00  0.00    -0.358 OA
ATOM     23  H3  UNL     1      -0.775  14.533  17.690  1.00  0.00     0.217 HD
ENDBRANCH  18  22
BRANCH  21  24
HETATM   24  O5  UNL     1       4.314  13.350  19.478  1.00  0.00    -0.340 OA
ATOM     25  H5  UNL     1       4.816  13.835  20.123  1.00  0.00     0.220 HD
ENDBRANCH  21  24
ENDBRANCH  15  17
ENDBRANCH  14  15
ENDBRANCH   1  14
TORSDOF 9
ENDMDL
MODEL 2
REMARK VINA RESULT: -6.779866815      1.588      2.669
REMARK  9 active torsions:
REMARK  status: ('A' for Active; 'I' for Inactive)
REMARK    1  A    between atoms: C6_9  and  C7_10 
REMARK    2  A    between atoms: C7_10  and  C8_11 
REMARK    3  A    between atoms: C8_11  and  C9_12 
REMARK    4  A    between atoms: C9_12  and  C10_13 
REMARK    5  A    between atoms: C10_13  and  O1_14 
REMARK    6  A    between atoms: O1_14  and  C11_15 
REMARK    7  A    between atoms: C11_15  and  C12_17 
REMARK    8  A    between atoms: C13_18  and  O3_19 
REMARK    9  A    between atoms: C15_23  and  O5_24 
ROOT
HETATM    1  C10 UNL     1       1.636  11.338  20.051  1.00  0.00     0.179 C 
ENDROOT
BRANCH   1   2
HETATM    2  C9  UNL     1       1.057  11.409  21.441  1.00  0.00     0.027 C 
BRANCH   2   3
HETATM    3  C8  UNL     1       0.968  10.019  22.042  1.00  0.00     0.002 C 
BRANCH   3   4
HETATM    4  C7  UNL     1       1.537   8.965  21.175  1.00  0.00     0.007 C 
BRANCH   4   5
HETATM    5  C6  UNL     1       2.639   8.135  21.697  1.00  0.00     0.021 C 
HETATM    6  C2  UNL     1       3.006   8.736  23.077  1.00  0.00     0.013 C 
HETATM    7  C1  UNL     1       2.877   7.682  24.170  1.00  0.00     0.012 C 
HETATM    8  C3  UNL     1       4.431   9.211  22.956  1.00  0.00     0.237 C 
HETATM    9  N1  UNL     1       4.536   9.443  21.507  1.00  0.00    -0.070 N 
HETATM   10  C4  UNL     1       3.956   8.199  21.028  1.00  0.00     0.186 C 
ATOM     11  H12 UNL     1       4.111  10.302  21.158  1.00  0.00     0.277 HD
ATOM     12  H11 UNL     1       5.467   9.671  21.155  1.00  0.00     0.277 HD
HETATM   13  C5  UNL     1       4.017   8.092  19.558  1.00  0.00     0.040 C 
ENDBRANCH   4   5
ENDBRANCH   3   4
ENDBRANCH   2   3
ENDBRANCH   1   2
BRANCH   1  14
HETATM   14  O1  UNL     1       2.153  12.543  19.580  1.00  0.00    -0.317 OA
BRANCH  14  15
HETATM   15  C11 UNL     1       3.361  13.024  19.977  1.00  0.00     0.301 C 
HETATM   16  O2  UNL     1       4.204  12.304  20.617  1.00  0.00    -0.259 OA
BRANCH  15  17
HETATM   17  C12 UNL     1       3.806  14.408  19.708  1.00  0.00     0.132 A 
HETATM   18  C13 UNL     1       4.393  15.279  20.572  1.00  0.00     0.109 A 
HETATM   19  C14 UNL     1       4.628  16.447  19.875  1.00  0.00     0.182 A 
HETATM   20  O4  UNL     1       4.198  16.261  18.666  1.00  0.00    -0.297 OA
HETATM   21  C15 UNL     1       3.700  15.080  18.500  1.00  0.00     0.202 A 
BRANCH  18  22
HETATM   22  O3  UNL     1       4.713  15.097  21.876  1.00  0.00    -0.358 OA
ATOM     23  H3  UNL     1       4.836  15.750  22.555  1.00  0.00     0.217 HD
ENDBRANCH  18  22
BRANCH  21  24
HETATM   24  O5  UNL     1       3.167  14.589  17.337  1.00  0.00    -0.340 OA
ATOM     25  H5  UNL     1       2.342  14.845  16.940  1.00  0.00     0.220 HD
ENDBRANCH  21  24
ENDBRANCH  15  17
ENDBRANCH  14  15
ENDBRANCH   1  14
TORSDOF 9
ENDMDL
MODEL 3
REMARK VINA RESULT: -6.670029147      1.533      2.195
REMARK  9 active torsions:
REMARK  status: ('A' for Active; 'I' for Inactive)
REMARK    1  A    between atoms: C6_9  and  C7_10 
REMARK    2  A    between atoms: C7_10  and  C8_11 
REMARK    3  A    between atoms: C8_11  and  C9_12 
REMARK    4  A    between atoms: C9_12  and  C10_13 
REMARK    5  A    between atoms: C10_13  and  O1_14 
REMARK    6  A    between atoms: O1_14  and  C11_15 
REMARK    7  A    between atoms: C11_15  and  C12_17 
REMARK    8  A    between atoms: C13_18  and  O3_19 
REMARK    9  A    between atoms: C15_23  and  O5_24 
ROOT
HETATM    1  C10 UNL     1       1.601  11.286  20.016  1.00  0.00     0.179 C 
ENDROOT
BRANCH   1   2
HETATM    2  C9  UNL     1       1.037  11.395  21.410  1.00  0.00     0.027 C 
BRANCH   2   3
HETATM    3  C8  UNL     1       0.944  10.022  22.046  1.00  0.00     0.002 C 
BRANCH   3   4
HETATM    4  C7  UNL     1       1.502   8.943  21.201  1.00  0.00     0.007 C 
BRANCH   4   5
HETATM    5  C6  UNL     1       2.617   8.135  21.728  1.00  0.00     0.021 C 
HETATM    6  C2  UNL     1       2.984   8.759  23.097  1.00  0.00     0.013 C 
HETATM    7  C1  UNL     1       2.876   7.719  24.206  1.00  0.00     0.012 C 
HETATM    8  C3  UNL     1       4.403   9.251  22.961  1.00  0.00     0.237 C 
HETATM    9  N1  UNL     1       4.496   9.465  21.509  1.00  0.00    -0.070 N 
HETATM   10  C4  UNL     1       3.929   8.206  21.051  1.00  0.00     0.186 C 
ATOM     11  H12 UNL     1       4.058  10.313  21.150  1.00  0.00     0.277 HD
ATOM     12  H11 UNL     1       5.422   9.699  21.148  1.00  0.00     0.277 HD
HETATM   13  C5  UNL     1       3.983   8.079  19.582  1.00  0.00     0.040 C 
ENDBRANCH   4   5
ENDBRANCH   3   4
ENDBRANCH   2   3
ENDBRANCH   1   2
BRANCH   1  14
HETATM   14  O1  UNL     1       2.065  12.488  19.486  1.00  0.00    -0.317 OA
BRANCH  14  15
HETATM   15  C11 UNL     1       3.279  13.009  19.810  1.00  0.00     0.301 C 
HETATM   16  O2  UNL     1       4.163  12.331  20.439  1.00  0.00    -0.259 OA
BRANCH  15  17
HETATM   17  C12 UNL     1       3.681  14.389  19.467  1.00  0.00     0.132 A 
HETATM   18  C13 UNL     1       3.514  15.037  18.283  1.00  0.00     0.109 A 
HETATM   19  C14 UNL     1       4.045  16.302  18.433  1.00  0.00     0.182 A 
HETATM   20  O4  UNL     1       4.496  16.383  19.647  1.00  0.00    -0.297 OA
HETATM   21  C15 UNL     1       4.314  15.290  20.310  1.00  0.00     0.202 A 
BRANCH  18  22
HETATM   22  O3  UNL     1       2.947  14.584  17.139  1.00  0.00    -0.358 OA
ATOM     23  H3  UNL     1       2.026  14.468  16.936  1.00  0.00     0.217 HD
ENDBRANCH  18  22
BRANCH  21  24
HETATM   24  O5  UNL     1       4.682  15.068  21.612  1.00  0.00    -0.340 OA
ATOM     25  H5  UNL     1       5.100  15.691  22.195  1.00  0.00     0.220 HD
ENDBRANCH  21  24
ENDBRANCH  15  17
ENDBRANCH  14  15
ENDBRANCH   1  14
TORSDOF 9
ENDMDL
MODEL 4
REMARK VINA RESULT: -6.644445118      1.199      1.997
REMARK  9 active torsions:
REMARK  status: ('A' for Active; 'I' for Inactive)
REMARK    1  A    between atoms: C6_9  and  C7_10 
REMARK    2  A    between atoms: C7_10  and  C8_11 
REMARK    3  A    between atoms: C8_11  and  C9_12 
REMARK    4  A    between atoms: C9_12  and  C10_13 
REMARK    5  A    between atoms: C10_13  and  O1_14 
REMARK    6  A    between atoms: O1_14  and  C11_15 
REMARK    7  A    between atoms: C11_15  and  C12_17 
REMARK    8  A    between atoms: C13_18  and  O3_19 
REMARK    9  A    between atoms: C15_23  and  O5_24 
ROOT
HETATM    1  C10 UNL     1       2.141  11.938  20.712  1.00  0.00     0.179 C 
ENDROOT
BRANCH   1   2
HETATM    2  C9  UNL     1       0.939  11.621  21.564  1.00  0.00     0.027 C 
BRANCH   2   3
HETATM    3  C8  UNL     1       0.967  10.164  21.986  1.00  0.00     0.002 C 
BRANCH   3   4
HETATM    4  C7  UNL     1       1.711   9.294  21.050  1.00  0.00     0.007 C 
BRANCH   4   5
HETATM    5  C6  UNL     1       2.693   8.340  21.597  1.00  0.00     0.021 C 
HETATM    6  C2  UNL     1       3.102   8.899  22.982  1.00  0.00     0.013 C 
HETATM    7  C1  UNL     1       2.825   7.874  24.076  1.00  0.00     0.012 C 
HETATM    8  C3  UNL     1       4.577   9.196  22.890  1.00  0.00     0.237 C 
HETATM    9  N1  UNL     1       4.739   9.406  21.443  1.00  0.00    -0.070 N 
HETATM   10  C4  UNL     1       4.021   8.239  20.956  1.00  0.00     0.186 C 
ATOM     11  H12 UNL     1       4.429  10.308  21.082  1.00  0.00     0.277 HD
ATOM     12  H11 UNL     1       5.697   9.517  21.109  1.00  0.00     0.277 HD
HETATM   13  C5  UNL     1       4.099   8.117  19.488  1.00  0.00     0.040 C 
ENDBRANCH   4   5
ENDBRANCH   3   4
ENDBRANCH   2   3
ENDBRANCH   1   2
BRANCH   1  14
HETATM   14  O1  UNL     1       2.267  13.283  20.371  1.00  0.00    -0.317 OA
BRANCH  14  15
HETATM   15  C11 UNL     1       2.890  13.693  19.233  1.00  0.00     0.301 C 
HETATM   16  O2  UNL     1       4.164  13.705  19.121  1.00  0.00    -0.259 OA
BRANCH  15  17
HETATM   17  C12 UNL     1       2.156  14.154  18.035  1.00  0.00     0.132 A 
HETATM   18  C13 UNL     1       0.900  13.812  17.643  1.00  0.00     0.109 A 
HETATM   19  C14 UNL     1       0.643  14.489  16.468  1.00  0.00     0.182 A 
HETATM   20  O4  UNL     1       1.699  15.190  16.194  1.00  0.00    -0.297 OA
HETATM   21  C15 UNL     1       2.629  15.038  17.077  1.00  0.00     0.202 A 
BRANCH  18  22
HETATM   22  O3  UNL     1       0.020  12.975  18.243  1.00  0.00    -0.358 OA
ATOM     23  H3  UNL     1      -0.844  13.166  18.587  1.00  0.00     0.217 HD
ENDBRANCH  18  22
BRANCH  21  24
HETATM   24  O5  UNL     1       3.858  15.645  17.063  1.00  0.00    -0.340 OA
ATOM     25  H5  UNL     1       4.134  16.377  17.601  1.00  0.00     0.220 HD
ENDBRANCH  21  24
ENDBRANCH  15  17
ENDBRANCH  14  15
ENDBRANCH   1  14
TORSDOF 9
ENDMDL
MODEL 5
REMARK VINA RESULT: -6.642922894      1.129      2.369
REMARK  9 active torsions:
REMARK  status: ('A' for Active; 'I' for Inactive)
REMARK    1  A    between atoms: C6_9  and  C7_10 
REMARK    2  A    between atoms: C7_10  and  C8_11 
REMARK    3  A    between atoms: C8_11  and  C9_12 
REMARK    4  A    between atoms: C9_12  and  C10_13 
REMARK    5  A    between atoms: C10_13  and  O1_14 
REMARK    6  A    between atoms: O1_14  and  C11_15 
REMARK    7  A    between atoms: C11_15  and  C12_17 
REMARK    8  A    between atoms: C13_18  and  O3_19 
REMARK    9  A    between atoms: C15_23  and  O5_24 
ROOT
HETATM    1  C10 UNL     1       2.137  11.955  20.658  1.00  0.00     0.179 C 
ENDROOT
BRANCH   1   2
HETATM    2  C9  UNL     1       0.951  11.646  21.535  1.00  0.00     0.027 C 
BRANCH   2   3
HETATM    3  C8  UNL     1       0.978  10.189  21.957  1.00  0.00     0.002 C 
BRANCH   3   4
HETATM    4  C7  UNL     1       1.729   9.320  21.025  1.00  0.00     0.007 C 
BRANCH   4   5
HETATM    5  C6  UNL     1       2.700   8.358  21.579  1.00  0.00     0.021 C 
HETATM    6  C2  UNL     1       3.100   8.912  22.969  1.00  0.00     0.013 C 
HETATM    7  C1  UNL     1       2.806   7.888  24.058  1.00  0.00     0.012 C 
HETATM    8  C3  UNL     1       4.578   9.199  22.890  1.00  0.00     0.237 C 
HETATM    9  N1  UNL     1       4.754   9.411  21.445  1.00  0.00    -0.070 N 
HETATM   10  C4  UNL     1       4.033   8.249  20.950  1.00  0.00     0.186 C 
ATOM     11  H12 UNL     1       4.454  10.316  21.083  1.00  0.00     0.277 HD
ATOM     12  H11 UNL     1       5.716   9.515  21.120  1.00  0.00     0.277 HD
HETATM   13  C5  UNL     1       4.122   8.129  19.482  1.00  0.00     0.040 C 
ENDBRANCH   4   5
ENDBRANCH   3   4
ENDBRANCH   2   3
ENDBRANCH   1   2
BRANCH   1  14
HETATM   14  O1  UNL     1       2.243  13.293  20.283  1.00  0.00    -0.317 OA
BRANCH  14  15
HETATM   15  C11 UNL     1       2.872  13.683  19.141  1.00  0.00     0.301 C 
HETATM   16  O2  UNL     1       4.141  13.599  19.001  1.00  0.00    -0.259 OA
BRANCH  15  17
HETATM   17  C12 UNL     1       2.153  14.234  17.973  1.00  0.00     0.132 A 
HETATM   18  C13 UNL     1       2.619  15.109  17.042  1.00  0.00     0.109 A 
HETATM   19  C14 UNL     1       1.594  15.332  16.146  1.00  0.00     0.182 A 
HETATM   20  O4  UNL     1       0.584  14.620  16.538  1.00  0.00    -0.297 OA
HETATM   21  C15 UNL     1       0.845  13.949  17.610  1.00  0.00     0.202 A 
BRANCH  18  22
HETATM   22  O3  UNL     1       3.842  15.686  16.956  1.00  0.00    -0.358 OA
ATOM     23  H3  UNL     1       4.412  15.762  16.200  1.00  0.00     0.217 HD
ENDBRANCH  18  22
BRANCH  21  24
HETATM   24  O5  UNL     1      -0.019  13.109  18.263  1.00  0.00    -0.340 OA
ATOM     25  H5  UNL     1      -0.084  12.168  18.153  1.00  0.00     0.220 HD
ENDBRANCH  21  24
ENDBRANCH  15  17
ENDBRANCH  14  15
ENDBRANCH   1  14
TORSDOF 9
ENDMDL
