MODEL 1
REMARK VINA RESULT: -6.090515972      0.000      0.000
REMARK  11 active torsions:
REMARK  status: ('A' for Active; 'I' for Inactive)
REMARK    1  A    between atoms: C3_3  and  C4_4 
REMARK    2  A    between atoms: C4_4  and  C5_5 
REMARK    3  A    between atoms: C5_5  and  C6_6 
REMARK    4  A    between atoms: C7_8  and  O2_9 
REMARK    5  A    between atoms: C8_11  and  C9_12 
REMARK    6  A    between atoms: C9_12  and  C10_13 
REMARK    7  A    between atoms: C10_13  and  C11_14 
REMARK    8  A    between atoms: C10_13  and  O5_20 
REMARK    9  A    between atoms: C12_15  and  O3_16 
REMARK   10  A    between atoms: C12_15  and  O4_18 
REMARK   11  A    between atoms: C15_22  and  O6_23 
ROOT
HETATM    1  C6  UNL     1       1.912  12.765  19.581  1.00  0.00     0.112 A 
HETATM    2  O1  UNL     1       0.827  13.067  18.915  1.00  0.00    -0.285 OA
HETATM    3  C7  UNL     1       1.083  13.941  17.964  1.00  0.00     0.193 A 
HETATM    4  C8  UNL     1       2.424  14.232  18.007  1.00  0.00     0.042 A 
HETATM    5  C15 UNL     1       2.973  13.505  19.015  1.00  0.00     0.111 A 
ENDROOT
BRANCH   4   6
HETATM    6  C9  UNL     1       3.071  15.197  17.067  1.00  0.00     0.111 C 
BRANCH   6   7
HETATM    7  C10 UNL     1       2.915  16.574  17.460  1.00  0.00     0.054 C 
BRANCH   7   8
HETATM    8  C11 UNL     1       3.819  17.372  17.898  1.00  0.00     0.096 C 
HETATM    9  C12 UNL     1       4.524  17.259  19.139  1.00  0.00     0.179 C 
BRANCH   9  10
HETATM   10  O3  UNL     1       5.406  18.180  19.391  1.00  0.00    -0.341 OA
ATOM     11  H3  UNL     1       5.071  19.021  19.679  1.00  0.00     0.220 HD
ENDBRANCH   9  10
BRANCH   9  12
HETATM   12  O4  UNL     1       4.413  16.314  20.122  1.00  0.00    -0.336 OA
HETATM   13  C13 UNL     1       4.890  16.426  21.424  1.00  0.00     0.212 C 
ENDBRANCH   9  12
ENDBRANCH   7   8
BRANCH   7  14
HETATM   14  O5  UNL     1       1.601  17.124  17.352  1.00  0.00    -0.360 OA
HETATM   15  C14 UNL     1       1.207  17.628  16.068  1.00  0.00     0.209 C 
ENDBRANCH   7  14
ENDBRANCH   6   7
ENDBRANCH   4   6
BRANCH   3  16
HETATM   16  O2  UNL     1       0.084  14.414  17.124  1.00  0.00    -0.340 OA
ATOM     17  H2  UNL     1      -0.036  15.343  16.968  1.00  0.00     0.220 HD
ENDBRANCH   3  16
BRANCH   5  18
HETATM   18  O6  UNL     1       4.262  13.465  19.432  1.00  0.00    -0.357 OA
ATOM     19  H6  UNL     1       4.934  12.893  19.078  1.00  0.00     0.217 HD
ENDBRANCH   5  18
BRANCH   1  20
HETATM   20  C5  UNL     1       2.024  11.846  20.691  1.00  0.00     0.040 C 
BRANCH  20  21
HETATM   21  C4  UNL     1       1.061  11.513  21.476  1.00  0.00     0.003 C 
BRANCH  21  22
HETATM   22  C3  UNL     1       0.828  10.248  22.153  1.00  0.00    -0.004 C 
HETATM   23  C2  UNL     1       1.559   9.161  21.859  1.00  0.00    -0.031 C 
HETATM   24  C1  UNL     1       1.348   7.860  22.529  1.00  0.00     0.036 C 
ENDBRANCH  21  22
ENDBRANCH  20  21
ENDBRANCH   1  20
TORSDOF 11
ENDMDL
MODEL 2
REMARK VINA RESULT: -6.036256188      3.276      5.146
REMARK  11 active torsions:
REMARK  status: ('A' for Active; 'I' for Inactive)
REMARK    1  A    between atoms: C3_3  and  C4_4 
REMARK    2  A    between atoms: C4_4  and  C5_5 
REMARK    3  A    between atoms: C5_5  and  C6_6 
REMARK    4  A    between atoms: C7_8  and  O2_9 
REMARK    5  A    between atoms: C8_11  and  C9_12 
REMARK    6  A    between atoms: C9_12  and  C10_13 
REMARK    7  A    between atoms: C10_13  and  C11_14 
REMARK    8  A    between atoms: C10_13  and  O5_20 
REMARK    9  A    between atoms: C12_15  and  O3_16 
REMARK   10  A    between atoms: C12_15  and  O4_18 
REMARK   11  A    between atoms: C15_22  and  O6_23 
ROOT
HETATM    1  C6  UNL     1       3.579   9.584  22.141  1.00  0.00     0.112 A 
HETATM    2  O1  UNL     1       2.320   9.559  22.501  1.00  0.00    -0.285 OA
HETATM    3  C7  UNL     1       1.601  10.380  21.766  1.00  0.00     0.193 A 
HETATM    4  C8  UNL     1       2.440  10.984  20.862  1.00  0.00     0.042 A 
HETATM    5  C15 UNL     1       3.693  10.502  21.074  1.00  0.00     0.111 A 
ENDROOT
BRANCH   4   6
HETATM    6  C9  UNL     1       1.962  11.988  19.863  1.00  0.00     0.111 C 
BRANCH   6   7
HETATM    7  C10 UNL     1       2.733  13.205  19.857  1.00  0.00     0.054 C 
BRANCH   7   8
HETATM    8  C11 UNL     1       3.275  13.785  18.849  1.00  0.00     0.096 C 
HETATM    9  C12 UNL     1       2.590  14.430  17.770  1.00  0.00     0.179 C 
BRANCH   9  10
HETATM   10  O3  UNL     1       3.334  14.960  16.845  1.00  0.00    -0.341 OA
ATOM     11  H3  UNL     1       2.952  15.022  15.977  1.00  0.00     0.220 HD
ENDBRANCH   9  10
BRANCH   9  12
HETATM   12  O4  UNL     1       1.247  14.579  17.554  1.00  0.00    -0.336 OA
HETATM   13  C13 UNL     1       0.556  14.207  16.406  1.00  0.00     0.212 C 
ENDBRANCH   9  12
ENDBRANCH   7   8
BRANCH   7  14
HETATM   14  O5  UNL     1       2.923  13.847  21.118  1.00  0.00    -0.360 OA
HETATM   15  C14 UNL     1       4.165  14.534  21.322  1.00  0.00     0.209 C 
ENDBRANCH   7  14
ENDBRANCH   6   7
ENDBRANCH   4   6
BRANCH   3  16
HETATM   16  O2  UNL     1       0.234  10.524  21.964  1.00  0.00    -0.340 OA
ATOM     17  H2  UNL     1      -0.194  11.368  21.880  1.00  0.00     0.220 HD
ENDBRANCH   3  16
BRANCH   5  18
HETATM   18  O6  UNL     1       4.844  10.807  20.427  1.00  0.00    -0.357 OA
ATOM     19  H6  UNL     1       5.402  11.550  20.623  1.00  0.00     0.217 HD
ENDBRANCH   5  18
BRANCH   1  20
HETATM   20  C5  UNL     1       4.664   8.821  22.716  1.00  0.00     0.040 C 
BRANCH  20  21
HETATM   21  C4  UNL     1       5.680   9.322  23.324  1.00  0.00     0.003 C 
BRANCH  21  22
HETATM   22  C3  UNL     1       5.738  10.464  24.221  1.00  0.00    -0.004 C 
HETATM   23  C2  UNL     1       6.808  10.674  25.004  1.00  0.00    -0.031 C 
HETATM   24  C1  UNL     1       6.898  11.827  25.927  1.00  0.00     0.036 C 
ENDBRANCH  21  22
ENDBRANCH  20  21
ENDBRANCH   1  20
TORSDOF 11
ENDMDL
MODEL 3
REMARK VINA RESULT: -5.915784385      4.313      6.601
REMARK  11 active torsions:
REMARK  status: ('A' for Active; 'I' for Inactive)
REMARK    1  A    between atoms: C3_3  and  C4_4 
REMARK    2  A    between atoms: C4_4  and  C5_5 
REMARK    3  A    between atoms: C5_5  and  C6_6 
REMARK    4  A    between atoms: C7_8  and  O2_9 
REMARK    5  A    between atoms: C8_11  and  C9_12 
REMARK    6  A    between atoms: C9_12  and  C10_13 
REMARK    7  A    between atoms: C10_13  and  C11_14 
REMARK    8  A    between atoms: C10_13  and  O5_20 
REMARK    9  A    between atoms: C12_15  and  O3_16 
REMARK   10  A    between atoms: C12_15  and  O4_18 
REMARK   11  A    between atoms: C15_22  and  O6_23 
ROOT
HETATM    1  C6  UNL     1       4.822   9.331  22.924  1.00  0.00     0.112 A 
HETATM    2  O1  UNL     1       3.920   8.440  23.249  1.00  0.00    -0.285 OA
HETATM    3  C7  UNL     1       3.002   8.332  22.311  1.00  0.00     0.193 A 
HETATM    4  C8  UNL     1       3.322   9.209  21.303  1.00  0.00     0.042 A 
HETATM    5  C15 UNL     1       4.464   9.852  21.662  1.00  0.00     0.111 A 
ENDROOT
BRANCH   4   6
HETATM    6  C9  UNL     1       2.491   9.360  20.070  1.00  0.00     0.111 C 
BRANCH   6   7
HETATM    7  C10 UNL     1       1.424  10.317  20.209  1.00  0.00     0.054 C 
BRANCH   7   8
HETATM    8  C11 UNL     1       1.201  11.354  19.486  1.00  0.00     0.096 C 
HETATM    9  C12 UNL     1       1.992  12.546  19.443  1.00  0.00     0.179 C 
BRANCH   9  10
HETATM   10  O3  UNL     1       1.588  13.481  18.635  1.00  0.00    -0.341 OA
ATOM     11  H3  UNL     1       1.341  14.308  19.033  1.00  0.00     0.220 HD
ENDBRANCH   9  10
BRANCH   9  12
HETATM   12  O4  UNL     1       3.130  12.863  20.132  1.00  0.00    -0.336 OA
HETATM   13  C13 UNL     1       3.991  13.920  19.851  1.00  0.00     0.212 C 
ENDBRANCH   9  12
ENDBRANCH   7   8
BRANCH   7  14
HETATM   14  O5  UNL     1       0.501  10.095  21.276  1.00  0.00    -0.360 OA
HETATM   15  C14 UNL     1       0.459  11.077  22.320  1.00  0.00     0.209 C 
ENDBRANCH   7  14
ENDBRANCH   6   7
ENDBRANCH   4   6
BRANCH   3  16
HETATM   16  O2  UNL     1       1.939   7.448  22.433  1.00  0.00    -0.340 OA
ATOM     17  H2  UNL     1       1.190   7.487  21.850  1.00  0.00     0.220 HD
ENDBRANCH   3  16
BRANCH   5  18
HETATM   18  O6  UNL     1       5.155  10.802  20.985  1.00  0.00    -0.357 OA
ATOM     19  H6  UNL     1       4.917  11.721  20.938  1.00  0.00     0.217 HD
ENDBRANCH   5  18
BRANCH   1  20
HETATM   20  C5  UNL     1       5.978   9.722  23.700  1.00  0.00     0.040 C 
BRANCH  20  21
HETATM   21  C4  UNL     1       6.070  10.798  24.399  1.00  0.00     0.003 C 
BRANCH  21  22
HETATM   22  C3  UNL     1       6.975  11.102  25.495  1.00  0.00    -0.004 C 
HETATM   23  C2  UNL     1       7.932  10.236  25.862  1.00  0.00    -0.031 C 
HETATM   24  C1  UNL     1       8.869  10.515  26.972  1.00  0.00     0.036 C 
ENDBRANCH  21  22
ENDBRANCH  20  21
ENDBRANCH   1  20
TORSDOF 11
ENDMDL
MODEL 4
REMARK VINA RESULT: -5.906914829      1.517      2.970
REMARK  11 active torsions:
REMARK  status: ('A' for Active; 'I' for Inactive)
REMARK    1  A    between atoms: C3_3  and  C4_4 
REMARK    2  A    between atoms: C4_4  and  C5_5 
REMARK    3  A    between atoms: C5_5  and  C6_6 
REMARK    4  A    between atoms: C7_8  and  O2_9 
REMARK    5  A    between atoms: C8_11  and  C9_12 
REMARK    6  A    between atoms: C9_12  and  C10_13 
REMARK    7  A    between atoms: C10_13  and  C11_14 
REMARK    8  A    between atoms: C10_13  and  O5_20 
REMARK    9  A    between atoms: C12_15  and  O3_16 
REMARK   10  A    between atoms: C12_15  and  O4_18 
REMARK   11  A    between atoms: C15_22  and  O6_23 
ROOT
HETATM    1  C6  UNL     1       1.705  11.487  20.141  1.00  0.00     0.112 A 
HETATM    2  O1  UNL     1       1.137  12.371  19.361  1.00  0.00    -0.285 OA
HETATM    3  C7  UNL     1       1.976  13.339  19.053  1.00  0.00     0.193 A 
HETATM    4  C8  UNL     1       3.173  13.074  19.670  1.00  0.00     0.042 A 
HETATM    5  C15 UNL     1       3.033  11.913  20.363  1.00  0.00     0.111 A 
ENDROOT
BRANCH   4   6
HETATM    6  C9  UNL     1       4.362  13.971  19.545  1.00  0.00     0.111 C 
BRANCH   6   7
HETATM    7  C10 UNL     1       4.346  15.079  20.466  1.00  0.00     0.054 C 
BRANCH   7   8
HETATM    8  C11 UNL     1       4.726  16.285  20.249  1.00  0.00     0.096 C 
HETATM    9  C12 UNL     1       4.334  17.115  19.149  1.00  0.00     0.179 C 
BRANCH   9  10
HETATM   10  O3  UNL     1       4.837  18.313  19.120  1.00  0.00    -0.341 OA
ATOM     11  H3  UNL     1       5.670  18.435  19.561  1.00  0.00     0.220 HD
ENDBRANCH   9  10
BRANCH   9  12
HETATM   12  O4  UNL     1       3.497  16.839  18.103  1.00  0.00    -0.336 OA
HETATM   13  C13 UNL     1       3.881  16.593  16.789  1.00  0.00     0.212 C 
ENDBRANCH   9  12
ENDBRANCH   7   8
BRANCH   7  14
HETATM   14  O5  UNL     1       3.851  14.811  21.778  1.00  0.00    -0.360 OA
HETATM   15  C14 UNL     1       4.151  15.773  22.799  1.00  0.00     0.209 C 
ENDBRANCH   7  14
ENDBRANCH   6   7
ENDBRANCH   4   6
BRANCH   3  16
HETATM   16  O2  UNL     1       1.597  14.395  18.234  1.00  0.00    -0.340 OA
ATOM     17  H2  UNL     1       1.998  14.532  17.384  1.00  0.00     0.220 HD
ENDBRANCH   3  16
BRANCH   5  18
HETATM   18  O6  UNL     1       3.946  11.260  21.123  1.00  0.00    -0.357 OA
ATOM     19  H6  UNL     1       3.768  10.858  21.966  1.00  0.00     0.217 HD
ENDBRANCH   5  18
BRANCH   1  20
HETATM   20  C5  UNL     1       1.103  10.291  20.684  1.00  0.00     0.040 C 
BRANCH  20  21
HETATM   21  C4  UNL     1       0.887  10.072  21.933  1.00  0.00     0.003 C 
BRANCH  21  22
HETATM   22  C3  UNL     1       1.687   9.315  22.881  1.00  0.00    -0.004 C 
HETATM   23  C2  UNL     1       2.318   8.191  22.510  1.00  0.00    -0.031 C 
HETATM   24  C1  UNL     1       3.141   7.398  23.450  1.00  0.00     0.036 C 
ENDBRANCH  21  22
ENDBRANCH  20  21
ENDBRANCH   1  20
TORSDOF 11
ENDMDL
MODEL 5
REMARK VINA RESULT: -5.836818005      1.066      3.027
REMARK  11 active torsions:
REMARK  status: ('A' for Active; 'I' for Inactive)
REMARK    1  A    between atoms: C3_3  and  C4_4 
REMARK    2  A    between atoms: C4_4  and  C5_5 
REMARK    3  A    between atoms: C5_5  and  C6_6 
REMARK    4  A    between atoms: C7_8  and  O2_9 
REMARK    5  A    between atoms: C8_11  and  C9_12 
REMARK    6  A    between atoms: C9_12  and  C10_13 
REMARK    7  A    between atoms: C10_13  and  C11_14 
REMARK    8  A    between atoms: C10_13  and  O5_20 
REMARK    9  A    between atoms: C12_15  and  O3_16 
REMARK   10  A    between atoms: C12_15  and  O4_18 
REMARK   11  A    between atoms: C15_22  and  O6_23 
ROOT
HETATM    1  C6  UNL     1       1.860  12.883  19.585  1.00  0.00     0.112 A 
HETATM    2  O1  UNL     1       0.767  13.090  18.895  1.00  0.00    -0.285 OA
HETATM    3  C7  UNL     1       0.993  13.901  17.882  1.00  0.00     0.193 A 
HETATM    4  C8  UNL     1       2.321  14.249  17.907  1.00  0.00     0.042 A 
HETATM    5  C15 UNL     1       2.893  13.622  18.968  1.00  0.00     0.111 A 
ENDROOT
BRANCH   4   6
HETATM    6  C9  UNL     1       2.933  15.168  16.900  1.00  0.00     0.111 C 
BRANCH   6   7
HETATM    7  C10 UNL     1       3.000  16.538  17.338  1.00  0.00     0.054 C 
BRANCH   7   8
HETATM    8  C11 UNL     1       2.051  17.401  17.364  1.00  0.00     0.096 C 
HETATM    9  C12 UNL     1       0.951  17.482  16.451  1.00  0.00     0.179 C 
BRANCH   9  10
HETATM   10  O3  UNL     1       0.094  18.437  16.660  1.00  0.00    -0.341 OA
ATOM     11  H3  UNL     1      -0.814  18.245  16.453  1.00  0.00     0.220 HD
ENDBRANCH   9  10
BRANCH   9  12
HETATM   12  O4  UNL     1       0.653  16.696  15.372  1.00  0.00    -0.336 OA
HETATM   13  C13 UNL     1       1.113  16.880  14.072  1.00  0.00     0.212 C 
ENDBRANCH   9  12
ENDBRANCH   7   8
BRANCH   7  14
HETATM   14  O5  UNL     1       4.271  17.000  17.798  1.00  0.00    -0.360 OA
HETATM   15  C14 UNL     1       4.392  17.292  19.198  1.00  0.00     0.209 C 
ENDBRANCH   7  14
ENDBRANCH   6   7
ENDBRANCH   4   6
BRANCH   3  16
HETATM   16  O2  UNL     1      -0.020  14.268  17.007  1.00  0.00    -0.340 OA
ATOM     17  H2  UNL     1      -0.932  14.268  17.273  1.00  0.00     0.220 HD
ENDBRANCH   3  16
BRANCH   5  18
HETATM   18  O6  UNL     1       4.181  13.666  19.390  1.00  0.00    -0.357 OA
ATOM     19  H6  UNL     1       4.849  14.249  19.050  1.00  0.00     0.217 HD
ENDBRANCH   5  18
BRANCH   1  20
HETATM   20  C5  UNL     1       2.003  12.054  20.761  1.00  0.00     0.040 C 
BRANCH  20  21
HETATM   21  C4  UNL     1       1.031  11.616  21.480  1.00  0.00     0.003 C 
BRANCH  21  22
HETATM   22  C3  UNL     1       0.884  10.325  22.131  1.00  0.00    -0.004 C 
HETATM   23  C2  UNL     1       1.581   9.257  21.714  1.00  0.00    -0.031 C 
HETATM   24  C1  UNL     1       1.455   7.930  22.355  1.00  0.00     0.036 C 
ENDBRANCH  21  22
ENDBRANCH  20  21
ENDBRANCH   1  20
TORSDOF 11
ENDMDL
