MODEL 1
REMARK VINA RESULT: -6.897780583      0.000      0.000
REMARK  6 active torsions:
REMARK  status: ('A' for Active; 'I' for Inactive)
REMARK    1  A    between atoms: C2_2  and  C3_3 
REMARK    2  A    between atoms: C2_2  and  C5_9 
REMARK    3  A    between atoms: C3_3  and  N1_4 
REMARK    4  A    between atoms: C5_9  and  O1_10 
REMARK    5  A    between atoms: C5_9  and  C6_13 
REMARK    6  A    between atoms: O1_10  and  O2_11 
ROOT
HETATM    1  C1  UNL     1      32.940  36.891  29.364  1.00  0.00     0.014 C 
HETATM    2  C2  UNL     1      32.640  38.104  30.257  1.00  0.00     0.032 C 
ENDROOT
BRANCH   2   3
HETATM    3  C3  UNL     1      32.490  37.564  31.654  1.00  0.00     0.128 C 
BRANCH   3   4
HETATM    4  N1  UNL     1      33.698  37.003  32.205  1.00  0.00    -0.366 N 
HETATM    5  C4  UNL     1      33.659  36.250  33.236  1.00  0.00     0.196 C 
HETATM    6  N2  UNL     1      32.429  35.958  33.850  1.00  0.00    -0.067 NA
HETATM    7  N3  UNL     1      34.849  35.706  33.768  1.00  0.00    -0.067 NA
ATOM      8  H1  UNL     1      34.595  37.211  31.766  1.00  0.00     0.161 HD
ENDBRANCH   3   4
ENDBRANCH   2   3
BRANCH   2   9
HETATM    9  C5  UNL     1      31.488  38.886  29.754  1.00  0.00     0.169 C 
BRANCH   9  10
HETATM   10  O1  UNL     1      30.993  39.608  30.867  1.00  0.00    -0.237 OA
BRANCH  10  11
HETATM   11  O2  UNL     1      29.681  39.623  30.891  1.00  0.00    -0.250 OA
ATOM     12  H2  UNL     1      29.348  40.166  31.596  1.00  0.00     0.253 HD
ENDBRANCH  10  11
ENDBRANCH   9  10
BRANCH   9  13
HETATM   13  C6  UNL     1      31.743  39.829  28.624  1.00  0.00     0.018 A 
HETATM   14  C7  UNL     1      30.795  40.682  27.947  1.00  0.00     0.008 A 
HETATM   15  C8  UNL     1      31.466  39.512  27.193  1.00  0.00     0.008 A 
ENDBRANCH   9  13
ENDBRANCH   2   9
TORSDOF 6
ENDMDL
MODEL 2
REMARK VINA RESULT: -6.879229605      1.952      2.235
REMARK  6 active torsions:
REMARK  status: ('A' for Active; 'I' for Inactive)
REMARK    1  A    between atoms: C2_2  and  C3_3 
REMARK    2  A    between atoms: C2_2  and  C5_9 
REMARK    3  A    between atoms: C3_3  and  N1_4 
REMARK    4  A    between atoms: C5_9  and  O1_10 
REMARK    5  A    between atoms: C5_9  and  C6_13 
REMARK    6  A    between atoms: O1_10  and  O2_11 
ROOT
HETATM    1  C1  UNL     1      30.760  38.851  30.804  1.00  0.00     0.014 C 
HETATM    2  C2  UNL     1      31.985  38.150  30.200  1.00  0.00     0.032 C 
ENDROOT
BRANCH   2   3
HETATM    3  C3  UNL     1      33.038  38.151  31.276  1.00  0.00     0.128 C 
BRANCH   3   4
HETATM    4  N1  UNL     1      33.735  36.898  31.423  1.00  0.00    -0.366 N 
HETATM    5  C4  UNL     1      33.472  36.113  32.396  1.00  0.00     0.196 C 
HETATM    6  N2  UNL     1      32.493  36.465  33.341  1.00  0.00    -0.067 NA
HETATM    7  N3  UNL     1      34.161  34.888  32.531  1.00  0.00    -0.067 NA
ATOM      8  H1  UNL     1      34.447  36.635  30.742  1.00  0.00     0.161 HD
ENDBRANCH   3   4
ENDBRANCH   2   3
BRANCH   2   9
HETATM    9  C5  UNL     1      32.393  38.765  28.916  1.00  0.00     0.169 C 
BRANCH   9  10
HETATM   10  O1  UNL     1      33.316  37.865  28.330  1.00  0.00    -0.237 OA
BRANCH  10  11
HETATM   11  O2  UNL     1      32.863  36.632  28.336  1.00  0.00    -0.250 OA
ATOM     12  H2  UNL     1      33.102  36.166  27.544  1.00  0.00     0.253 HD
ENDBRANCH  10  11
ENDBRANCH   9  10
BRANCH   9  13
HETATM   13  C6  UNL     1      31.312  39.078  27.934  1.00  0.00     0.018 A 
HETATM   14  C7  UNL     1      31.454  39.469  26.551  1.00  0.00     0.008 A 
HETATM   15  C8  UNL     1      30.876  40.461  27.585  1.00  0.00     0.008 A 
ENDBRANCH   9  13
ENDBRANCH   2   9
TORSDOF 6
ENDMDL
MODEL 3
REMARK VINA RESULT: -6.761049543      2.146      2.650
REMARK  6 active torsions:
REMARK  status: ('A' for Active; 'I' for Inactive)
REMARK    1  A    between atoms: C2_2  and  C3_3 
REMARK    2  A    between atoms: C2_2  and  C5_9 
REMARK    3  A    between atoms: C3_3  and  N1_4 
REMARK    4  A    between atoms: C5_9  and  O1_10 
REMARK    5  A    between atoms: C5_9  and  C6_13 
REMARK    6  A    between atoms: O1_10  and  O2_11 
ROOT
HETATM    1  C1  UNL     1      32.845  37.500  28.022  1.00  0.00     0.014 C 
HETATM    2  C2  UNL     1      32.807  38.870  28.713  1.00  0.00     0.032 C 
ENDROOT
BRANCH   2   3
HETATM    3  C3  UNL     1      32.496  38.597  30.161  1.00  0.00     0.128 C 
BRANCH   3   4
HETATM    4  N1  UNL     1      32.584  37.207  30.533  1.00  0.00    -0.366 N 
HETATM    5  C4  UNL     1      33.350  36.831  31.482  1.00  0.00     0.196 C 
HETATM    6  N2  UNL     1      34.124  37.775  32.180  1.00  0.00    -0.067 NA
HETATM    7  N3  UNL     1      33.430  35.467  31.838  1.00  0.00    -0.067 NA
ATOM      8  H1  UNL     1      32.027  36.516  30.031  1.00  0.00     0.161 HD
ENDBRANCH   3   4
ENDBRANCH   2   3
BRANCH   2   9
HETATM    9  C5  UNL     1      31.882  39.804  28.033  1.00  0.00     0.169 C 
BRANCH   9  10
HETATM   10  O1  UNL     1      31.216  39.040  27.043  1.00  0.00    -0.237 OA
BRANCH  10  11
HETATM   11  O2  UNL     1      31.588  39.385  25.832  1.00  0.00    -0.250 OA
ATOM     12  H2  UNL     1      30.850  39.423  25.236  1.00  0.00     0.253 HD
ENDBRANCH  10  11
ENDBRANCH   9  10
BRANCH   9  13
HETATM   13  C6  UNL     1      30.872  40.506  28.881  1.00  0.00     0.018 A 
HETATM   14  C7  UNL     1      29.443  40.298  28.917  1.00  0.00     0.008 A 
HETATM   15  C8  UNL     1      30.023  41.636  28.405  1.00  0.00     0.008 A 
ENDBRANCH   9  13
ENDBRANCH   2   9
TORSDOF 6
ENDMDL
MODEL 4
REMARK VINA RESULT: -6.643351281      1.585      2.265
REMARK  6 active torsions:
REMARK  status: ('A' for Active; 'I' for Inactive)
REMARK    1  A    between atoms: C2_2  and  C3_3 
REMARK    2  A    between atoms: C2_2  and  C5_9 
REMARK    3  A    between atoms: C3_3  and  N1_4 
REMARK    4  A    between atoms: C5_9  and  O1_10 
REMARK    5  A    between atoms: C5_9  and  C6_13 
REMARK    6  A    between atoms: O1_10  and  O2_11 
ROOT
HETATM    1  C1  UNL     1      32.100  37.949  27.213  1.00  0.00     0.014 C 
HETATM    2  C2  UNL     1      32.307  38.897  28.402  1.00  0.00     0.032 C 
ENDROOT
BRANCH   2   3
HETATM    3  C3  UNL     1      33.429  38.307  29.214  1.00  0.00     0.128 C 
BRANCH   3   4
HETATM    4  N1  UNL     1      33.098  37.065  29.865  1.00  0.00    -0.366 N 
HETATM    5  C4  UNL     1      33.355  36.886  31.104  1.00  0.00     0.196 C 
HETATM    6  N2  UNL     1      33.968  37.906  31.851  1.00  0.00    -0.067 NA
HETATM    7  N3  UNL     1      33.027  35.664  31.731  1.00  0.00    -0.067 NA
ATOM      8  H1  UNL     1      32.654  36.319  29.330  1.00  0.00     0.161 HD
ENDBRANCH   3   4
ENDBRANCH   2   3
BRANCH   2   9
HETATM    9  C5  UNL     1      31.047  39.134  29.143  1.00  0.00     0.169 C 
BRANCH   9  10
HETATM   10  O1  UNL     1      31.427  39.695  30.387  1.00  0.00    -0.237 OA
BRANCH  10  11
HETATM   11  O2  UNL     1      31.025  38.957  31.395  1.00  0.00    -0.250 OA
ATOM     12  H2  UNL     1      30.425  38.276  31.115  1.00  0.00     0.253 HD
ENDBRANCH  10  11
ENDBRANCH   9  10
BRANCH   9  13
HETATM   13  C6  UNL     1      30.026  40.010  28.494  1.00  0.00     0.018 A 
HETATM   14  C7  UNL     1      29.969  41.453  28.486  1.00  0.00     0.008 A 
HETATM   15  C8  UNL     1      28.881  40.635  29.217  1.00  0.00     0.008 A 
ENDBRANCH   9  13
ENDBRANCH   2   9
TORSDOF 6
ENDMDL
MODEL 5
REMARK VINA RESULT: -6.393498840      5.399      8.443
REMARK  6 active torsions:
REMARK  status: ('A' for Active; 'I' for Inactive)
REMARK    1  A    between atoms: C2_2  and  C3_3 
REMARK    2  A    between atoms: C2_2  and  C5_9 
REMARK    3  A    between atoms: C3_3  and  N1_4 
REMARK    4  A    between atoms: C5_9  and  O1_10 
REMARK    5  A    between atoms: C5_9  and  C6_13 
REMARK    6  A    between atoms: O1_10  and  O2_11 
ROOT
HETATM    1  C1  UNL     1      36.447  33.065  34.444  1.00  0.00     0.014 C 
HETATM    2  C2  UNL     1      34.970  32.898  34.057  1.00  0.00     0.032 C 
ENDROOT
BRANCH   2   3
HETATM    3  C3  UNL     1      34.303  34.206  34.390  1.00  0.00     0.128 C 
BRANCH   3   4
HETATM    4  N1  UNL     1      34.509  35.242  33.411  1.00  0.00    -0.366 N 
HETATM    5  C4  UNL     1      33.600  36.107  33.171  1.00  0.00     0.196 C 
HETATM    6  N2  UNL     1      32.379  36.057  33.865  1.00  0.00    -0.067 NA
HETATM    7  N3  UNL     1      33.812  37.118  32.208  1.00  0.00    -0.067 NA
ATOM      8  H1  UNL     1      35.392  35.285  32.902  1.00  0.00     0.161 HD
ENDBRANCH   3   4
ENDBRANCH   2   3
BRANCH   2   9
HETATM    9  C5  UNL     1      34.368  31.702  34.688  1.00  0.00     0.169 C 
BRANCH   9  10
HETATM   10  O1  UNL     1      33.820  30.939  33.629  1.00  0.00    -0.237 OA
BRANCH  10  11
HETATM   11  O2  UNL     1      32.527  31.136  33.507  1.00  0.00    -0.250 OA
ATOM     12  H2  UNL     1      32.032  30.346  33.693  1.00  0.00     0.253 HD
ENDBRANCH  10  11
ENDBRANCH   9  10
BRANCH   9  13
HETATM   13  C6  UNL     1      35.266  30.837  35.510  1.00  0.00     0.018 A 
HETATM   14  C7  UNL     1      35.887  29.589  35.133  1.00  0.00     0.008 A 
HETATM   15  C8  UNL     1      34.812  29.619  36.242  1.00  0.00     0.008 A 
ENDBRANCH   9  13
ENDBRANCH   2   9
TORSDOF 6
ENDMDL
