MODEL 1
REMARK VINA RESULT: -5.895711282      0.000      0.000
REMARK  6 active torsions:
REMARK  status: ('A' for Active; 'I' for Inactive)
REMARK    1  A    between atoms: C2_2  and  N1_3 
REMARK    2  A    between atoms: C2_2  and  C3_7 
REMARK    3  A    between atoms: C3_7  and  N2_8 
REMARK    4  A    between atoms: N2_8  and  C4_10 
REMARK    5  A    between atoms: C4_10  and  C5_11 
REMARK    6  A    between atoms: C5_11  and  N3_12 
ROOT
HETATM    1  C4  UNL     1      33.102  37.629  30.903  1.00  0.00     0.149 C 
ENDROOT
BRANCH   1   2
HETATM    2  N2  UNL     1      33.678  37.189  32.117  1.00  0.00    -0.399 N 
ATOM      3  H2  UNL     1      34.256  37.827  32.664  1.00  0.00     0.158 HD
BRANCH   2   4
HETATM    4  C3  UNL     1      33.461  35.891  32.569  1.00  0.00     0.087 C 
BRANCH   4   5
HETATM    5  C2  UNL     1      33.903  35.494  33.930  1.00  0.00     0.217 C 
HETATM    6  C1  UNL     1      34.995  34.479  33.986  1.00  0.00     0.045 C 
BRANCH   5   7
HETATM    7  N1  UNL     1      32.819  35.052  34.780  1.00  0.00    -0.071 N 
ATOM      8  H13 UNL     1      32.248  34.329  34.342  1.00  0.00     0.275 HD
ATOM      9  H12 UNL     1      33.145  34.508  35.579  1.00  0.00     0.275 HD
ATOM     10  H11 UNL     1      32.272  35.867  35.059  1.00  0.00     0.275 HD
ENDBRANCH   5   7
ENDBRANCH   4   5
ENDBRANCH   2   4
ENDBRANCH   1   2
BRANCH   1  11
HETATM   11  C5  UNL     1      31.801  38.311  31.175  1.00  0.00     0.292 C 
BRANCH  11  12
HETATM   12  N3  UNL     1      31.123  38.843  30.062  1.00  0.00     0.093 N 
HETATM   13  C6  UNL     1      31.863  39.464  29.040  1.00  0.00     0.300 C 
HETATM   14  C7  UNL     1      31.570  40.970  29.084  1.00  0.00     0.262 C 
HETATM   15  N4  UNL     1      30.180  41.211  28.721  1.00  0.00    -0.072 N 
HETATM   16  C8  UNL     1      29.316  40.161  29.243  1.00  0.00     0.262 C 
ATOM     17  H42 UNL     1      29.868  42.136  29.017  1.00  0.00     0.277 HD
ATOM     18  H41 UNL     1      30.067  41.325  27.714  1.00  0.00     0.277 HD
HETATM   19  C9  UNL     1      29.950  39.572  30.486  1.00  0.00     0.300 C 
ENDBRANCH  11  12
ENDBRANCH   1  11
TORSDOF 6
ENDMDL
MODEL 2
REMARK VINA RESULT: -5.765485453      0.303      1.356
REMARK  6 active torsions:
REMARK  status: ('A' for Active; 'I' for Inactive)
REMARK    1  A    between atoms: C2_2  and  N1_3 
REMARK    2  A    between atoms: C2_2  and  C3_7 
REMARK    3  A    between atoms: C3_7  and  N2_8 
REMARK    4  A    between atoms: N2_8  and  C4_10 
REMARK    5  A    between atoms: C4_10  and  C5_11 
REMARK    6  A    between atoms: C5_11  and  N3_12 
ROOT
HETATM    1  C4  UNL     1      33.133  37.688  30.877  1.00  0.00     0.149 C 
ENDROOT
BRANCH   1   2
HETATM    2  N2  UNL     1      33.628  37.265  32.132  1.00  0.00    -0.399 N 
ATOM      3  H2  UNL     1      34.144  37.920  32.720  1.00  0.00     0.158 HD
BRANCH   2   4
HETATM    4  C3  UNL     1      33.414  35.961  32.570  1.00  0.00     0.087 C 
BRANCH   4   5
HETATM    5  C2  UNL     1      33.872  35.546  33.920  1.00  0.00     0.217 C 
HETATM    6  C1  UNL     1      34.953  34.519  33.950  1.00  0.00     0.045 C 
BRANCH   5   7
HETATM    7  N1  UNL     1      32.795  35.107  34.781  1.00  0.00    -0.071 N 
ATOM      8  H13 UNL     1      32.407  35.867  35.340  1.00  0.00     0.275 HD
ATOM      9  H12 UNL     1      31.950  34.870  34.261  1.00  0.00     0.275 HD
ATOM     10  H11 UNL     1      33.132  34.333  35.353  1.00  0.00     0.275 HD
ENDBRANCH   5   7
ENDBRANCH   4   5
ENDBRANCH   2   4
ENDBRANCH   1   2
BRANCH   1  11
HETATM   11  C5  UNL     1      31.680  38.014  30.987  1.00  0.00     0.292 C 
BRANCH  11  12
HETATM   12  N3  UNL     1      31.295  39.314  30.607  1.00  0.00     0.093 N 
HETATM   13  C6  UNL     1      29.934  39.667  30.648  1.00  0.00     0.300 C 
HETATM   14  C7  UNL     1      29.438  39.828  29.204  1.00  0.00     0.262 C 
HETATM   15  N4  UNL     1      30.090  40.975  28.585  1.00  0.00    -0.072 N 
HETATM   16  C8  UNL     1      31.473  41.087  29.026  1.00  0.00     0.262 C 
ATOM     17  H42 UNL     1      30.021  40.944  27.568  1.00  0.00     0.277 HD
ATOM     18  H41 UNL     1      29.571  41.837  28.749  1.00  0.00     0.277 HD
HETATM   19  C9  UNL     1      31.986  39.712  29.401  1.00  0.00     0.300 C 
ENDBRANCH  11  12
ENDBRANCH   1  11
TORSDOF 6
ENDMDL
MODEL 3
REMARK VINA RESULT: -5.685452498      1.281      1.514
REMARK  6 active torsions:
REMARK  status: ('A' for Active; 'I' for Inactive)
REMARK    1  A    between atoms: C2_2  and  N1_3 
REMARK    2  A    between atoms: C2_2  and  C3_7 
REMARK    3  A    between atoms: C3_7  and  N2_8 
REMARK    4  A    between atoms: N2_8  and  C4_10 
REMARK    5  A    between atoms: C4_10  and  C5_11 
REMARK    6  A    between atoms: C5_11  and  N3_12 
ROOT
HETATM    1  C4  UNL     1      33.329  37.561  31.823  1.00  0.00     0.149 C 
ENDROOT
BRANCH   1   2
HETATM    2  N2  UNL     1      34.070  36.685  32.650  1.00  0.00    -0.399 N 
ATOM      3  H2  UNL     1      34.994  36.960  32.981  1.00  0.00     0.158 HD
BRANCH   2   4
HETATM    4  C3  UNL     1      33.543  35.449  33.015  1.00  0.00     0.087 C 
BRANCH   4   5
HETATM    5  C2  UNL     1      33.646  34.983  34.421  1.00  0.00     0.217 C 
HETATM    6  C1  UNL     1      33.970  33.539  34.603  1.00  0.00     0.045 C 
BRANCH   5   7
HETATM    7  N1  UNL     1      32.479  35.298  35.217  1.00  0.00    -0.071 N 
ATOM      8  H13 UNL     1      32.557  36.200  35.686  1.00  0.00     0.275 HD
ATOM      9  H12 UNL     1      31.661  35.508  34.645  1.00  0.00     0.275 HD
ATOM     10  H11 UNL     1      32.314  34.530  35.868  1.00  0.00     0.275 HD
ENDBRANCH   5   7
ENDBRANCH   4   5
ENDBRANCH   2   4
ENDBRANCH   1   2
BRANCH   1  11
HETATM   11  C5  UNL     1      32.980  36.877  30.542  1.00  0.00     0.292 C 
BRANCH  11  12
HETATM   12  N3  UNL     1      32.190  37.606  29.634  1.00  0.00     0.093 N 
HETATM   13  C6  UNL     1      32.714  37.922  28.367  1.00  0.00     0.300 C 
HETATM   14  C7  UNL     1      32.966  39.435  28.317  1.00  0.00     0.262 C 
HETATM   15  N4  UNL     1      31.696  40.147  28.370  1.00  0.00    -0.072 N 
HETATM   16  C8  UNL     1      30.757  39.470  29.253  1.00  0.00     0.262 C 
ATOM     17  H42 UNL     1      31.823  41.124  28.632  1.00  0.00     0.277 HD
ATOM     18  H41 UNL     1      31.304  40.288  27.439  1.00  0.00     0.277 HD
HETATM   19  C9  UNL     1      31.532  38.704  30.305  1.00  0.00     0.300 C 
ENDBRANCH  11  12
ENDBRANCH   1  11
TORSDOF 6
ENDMDL
MODEL 4
REMARK VINA RESULT: -5.489224147      3.353      8.509
REMARK  6 active torsions:
REMARK  status: ('A' for Active; 'I' for Inactive)
REMARK    1  A    between atoms: C2_2  and  N1_3 
REMARK    2  A    between atoms: C2_2  and  C3_7 
REMARK    3  A    between atoms: C3_7  and  N2_8 
REMARK    4  A    between atoms: N2_8  and  C4_10 
REMARK    5  A    between atoms: C4_10  and  C5_11 
REMARK    6  A    between atoms: C5_11  and  N3_12 
ROOT
HETATM    1  C4  UNL     1      35.115  34.562  34.005  1.00  0.00     0.149 C 
ENDROOT
BRANCH   1   2
HETATM    2  N2  UNL     1      34.473  35.767  33.639  1.00  0.00    -0.399 N 
ATOM      3  H2  UNL     1      34.807  36.654  34.016  1.00  0.00     0.158 HD
BRANCH   2   4
HETATM    4  C3  UNL     1      33.388  35.750  32.768  1.00  0.00     0.087 C 
BRANCH   4   5
HETATM    5  C2  UNL     1      33.173  36.877  31.826  1.00  0.00     0.217 C 
HETATM    6  C1  UNL     1      32.962  36.498  30.399  1.00  0.00     0.045 C 
BRANCH   5   7
HETATM    7  N1  UNL     1      34.212  37.882  31.887  1.00  0.00    -0.071 N 
ATOM      8  H13 UNL     1      33.943  38.751  31.426  1.00  0.00     0.275 HD
ATOM      9  H12 UNL     1      34.339  38.257  32.828  1.00  0.00     0.275 HD
ATOM     10  H11 UNL     1      35.070  37.485  31.506  1.00  0.00     0.275 HD
ENDBRANCH   5   7
ENDBRANCH   4   5
ENDBRANCH   2   4
ENDBRANCH   1   2
BRANCH   1  11
HETATM   11  C5  UNL     1      34.104  33.574  34.489  1.00  0.00     0.292 C 
BRANCH  11  12
HETATM   12  N3  UNL     1      34.470  32.216  34.426  1.00  0.00     0.093 N 
HETATM   13  C6  UNL     1      33.521  31.233  34.759  1.00  0.00     0.300 C 
HETATM   14  C7  UNL     1      33.945  30.586  36.085  1.00  0.00     0.262 C 
HETATM   15  N4  UNL     1      35.184  29.843  35.895  1.00  0.00    -0.072 N 
HETATM   16  C8  UNL     1      36.066  30.532  34.964  1.00  0.00     0.262 C 
ATOM     17  H42 UNL     1      35.648  29.652  36.783  1.00  0.00     0.277 HD
ATOM     18  H41 UNL     1      35.005  28.882  35.605  1.00  0.00     0.277 HD
HETATM   19  C9  UNL     1      35.776  32.017  35.014  1.00  0.00     0.300 C 
ENDBRANCH  11  12
ENDBRANCH   1  11
TORSDOF 6
ENDMDL
MODEL 5
REMARK VINA RESULT: -5.414140171      1.875      2.668
REMARK  6 active torsions:
REMARK  status: ('A' for Active; 'I' for Inactive)
REMARK    1  A    between atoms: C2_2  and  N1_3 
REMARK    2  A    between atoms: C2_2  and  C3_7 
REMARK    3  A    between atoms: C3_7  and  N2_8 
REMARK    4  A    between atoms: N2_8  and  C4_10 
REMARK    5  A    between atoms: C4_10  and  C5_11 
REMARK    6  A    between atoms: C5_11  and  N3_12 
ROOT
HETATM    1  C4  UNL     1      32.515  38.042  28.230  1.00  0.00     0.149 C 
ENDROOT
BRANCH   1   2
HETATM    2  N2  UNL     1      33.210  37.047  28.956  1.00  0.00    -0.399 N 
ATOM      3  H2  UNL     1      34.062  36.640  28.571  1.00  0.00     0.158 HD
BRANCH   2   4
HETATM    4  C3  UNL     1      32.737  36.622  30.194  1.00  0.00     0.087 C 
BRANCH   4   5
HETATM    5  C2  UNL     1      33.636  36.632  31.376  1.00  0.00     0.217 C 
HETATM    6  C1  UNL     1      33.133  35.907  32.579  1.00  0.00     0.045 C 
BRANCH   5   7
HETATM    7  N1  UNL     1      34.043  37.961  31.776  1.00  0.00    -0.071 N 
ATOM      8  H13 UNL     1      33.629  38.689  31.193  1.00  0.00     0.275 HD
ATOM      9  H12 UNL     1      33.634  38.244  32.666  1.00  0.00     0.275 HD
ATOM     10  H11 UNL     1      35.063  37.999  31.785  1.00  0.00     0.275 HD
ENDBRANCH   5   7
ENDBRANCH   4   5
ENDBRANCH   2   4
ENDBRANCH   1   2
BRANCH   1  11
HETATM   11  C5  UNL     1      32.912  39.398  28.718  1.00  0.00     0.292 C 
BRANCH  11  12
HETATM   12  N3  UNL     1      31.866  40.271  29.069  1.00  0.00     0.093 N 
HETATM   13  C6  UNL     1      31.171  40.062  30.274  1.00  0.00     0.300 C 
HETATM   14  C7  UNL     1      29.751  39.588  29.932  1.00  0.00     0.262 C 
HETATM   15  N4  UNL     1      29.019  40.662  29.275  1.00  0.00    -0.072 N 
HETATM   16  C8  UNL     1      29.894  41.428  28.398  1.00  0.00     0.262 C 
ATOM     17  H42 UNL     1      28.201  40.311  28.777  1.00  0.00     0.277 HD
ATOM     18  H41 UNL     1      28.543  41.261  29.949  1.00  0.00     0.277 HD
HETATM   19  C9  UNL     1      31.023  40.536  27.925  1.00  0.00     0.300 C 
ENDBRANCH  11  12
ENDBRANCH   1  11
TORSDOF 6
ENDMDL
