MODEL 1
REMARK VINA RESULT: -6.079391178      0.000      0.000
REMARK  5 active torsions:
REMARK  status: ('A' for Active; 'I' for Inactive)
REMARK    1  A    between atoms: C2_2  and  C3_3 
REMARK    2  A    between atoms: C2_2  and  C4_6 
REMARK    3  A    between atoms: C4_6  and  N2_7 
REMARK    4  A    between atoms: C4_6  and  C5_11 
REMARK    5  A    between atoms: C5_11  and  C6_12 
ROOT
HETATM    1  C4  UNL     1      32.391  39.378  28.642  1.00  0.00     0.201 C 
ENDROOT
BRANCH   1   2
HETATM    2  C2  UNL     1      31.688  38.638  27.555  1.00  0.00     0.101 C 
HETATM    3  C1  UNL     1      31.516  39.380  26.280  1.00  0.00     0.021 C 
BRANCH   2   4
HETATM    4  C3  UNL     1      32.299  37.325  27.251  1.00  0.00     0.236 C 
HETATM    5  N1  UNL     1      31.993  36.755  25.990  1.00  0.00    -0.062 NA
HETATM    6  O1  UNL     1      33.059  36.678  28.002  1.00  0.00    -0.276 OA
ENDBRANCH   2   4
ENDBRANCH   1   2
BRANCH   1   7
HETATM    7  N2  UNL     1      33.778  39.643  28.295  1.00  0.00    -0.074 N 
ATOM      8  H23 UNL     1      34.338  38.792  28.326  1.00  0.00     0.274 HD
ATOM      9  H22 UNL     1      33.879  39.864  27.304  1.00  0.00     0.274 HD
ATOM     10  H21 UNL     1      34.177  40.374  28.883  1.00  0.00     0.274 HD
ENDBRANCH   1   7
BRANCH   1  11
HETATM   11  C5  UNL     1      31.748  40.643  29.077  1.00  0.00     0.092 C 
BRANCH  11  12
HETATM   12  C6  UNL     1      30.361  40.491  29.582  1.00  0.00     0.027 A 
HETATM   13  C7  UNL     1      30.014  39.891  30.772  1.00  0.00     0.114 A 
HETATM   14  N3  UNL     1      28.685  39.923  30.922  1.00  0.00    -0.360 N 
HETATM   15  C8  UNL     1      28.169  40.532  29.849  1.00  0.00     0.180 A 
ATOM     16  H3  UNL     1      28.159  39.550  31.712  1.00  0.00     0.166 HD
HETATM   17  N4  UNL     1      29.196  40.880  29.029  1.00  0.00    -0.355 N 
ATOM     18  H4  UNL     1      29.099  41.360  28.134  1.00  0.00     0.166 HD
ENDBRANCH  11  12
ENDBRANCH   1  11
TORSDOF 5
ENDMDL
MODEL 2
REMARK VINA RESULT: -6.004113269      2.639      4.393
REMARK  5 active torsions:
REMARK  status: ('A' for Active; 'I' for Inactive)
REMARK    1  A    between atoms: C2_2  and  C3_3 
REMARK    2  A    between atoms: C2_2  and  C4_6 
REMARK    3  A    between atoms: C4_6  and  N2_7 
REMARK    4  A    between atoms: C4_6  and  C5_11 
REMARK    5  A    between atoms: C5_11  and  C6_12 
ROOT
HETATM    1  C4  UNL     1      31.418  39.413  28.153  1.00  0.00     0.201 C 
ENDROOT
BRANCH   1   2
HETATM    2  C2  UNL     1      30.937  40.569  28.962  1.00  0.00     0.101 C 
HETATM    3  C1  UNL     1      30.094  41.554  28.236  1.00  0.00     0.021 C 
BRANCH   2   4
HETATM    4  C3  UNL     1      30.225  40.166  30.195  1.00  0.00     0.236 C 
HETATM    5  N1  UNL     1      28.810  40.121  30.129  1.00  0.00    -0.062 NA
HETATM    6  O1  UNL     1      30.757  39.861  31.283  1.00  0.00    -0.276 OA
ENDBRANCH   2   4
ENDBRANCH   1   2
BRANCH   1   7
HETATM    7  N2  UNL     1      31.226  39.642  26.730  1.00  0.00    -0.074 N 
ATOM      8  H23 UNL     1      30.936  40.601  26.543  1.00  0.00     0.274 HD
ATOM      9  H22 UNL     1      32.116  39.645  26.230  1.00  0.00     0.274 HD
ATOM     10  H21 UNL     1      30.575  38.968  26.328  1.00  0.00     0.274 HD
ENDBRANCH   1   7
BRANCH   1  11
HETATM   11  C5  UNL     1      32.822  38.998  28.396  1.00  0.00     0.092 C 
BRANCH  11  12
HETATM   12  C6  UNL     1      33.010  38.092  29.555  1.00  0.00     0.027 A 
HETATM   13  C7  UNL     1      32.853  36.724  29.523  1.00  0.00     0.114 A 
HETATM   14  N3  UNL     1      33.097  36.214  30.735  1.00  0.00    -0.360 N 
HETATM   15  C8  UNL     1      33.407  37.228  31.548  1.00  0.00     0.180 A 
ATOM     16  H3  UNL     1      33.055  35.228  30.992  1.00  0.00     0.166 HD
HETATM   17  N4  UNL     1      33.354  38.378  30.825  1.00  0.00    -0.355 N 
ATOM     18  H4  UNL     1      33.545  39.312  31.188  1.00  0.00     0.166 HD
ENDBRANCH  11  12
ENDBRANCH   1  11
TORSDOF 5
ENDMDL
MODEL 3
REMARK VINA RESULT: -5.954853221      9.965     10.829
REMARK  5 active torsions:
REMARK  status: ('A' for Active; 'I' for Inactive)
REMARK    1  A    between atoms: C2_2  and  C3_3 
REMARK    2  A    between atoms: C2_2  and  C4_6 
REMARK    3  A    between atoms: C4_6  and  N2_7 
REMARK    4  A    between atoms: C4_6  and  C5_11 
REMARK    5  A    between atoms: C5_11  and  C6_12 
ROOT
HETATM    1  C4  UNL     1      33.956  30.707  34.242  1.00  0.00     0.201 C 
ENDROOT
BRANCH   1   2
HETATM    2  C2  UNL     1      34.676  29.487  34.707  1.00  0.00     0.101 C 
HETATM    3  C1  UNL     1      35.157  29.523  36.113  1.00  0.00     0.021 C 
BRANCH   2   4
HETATM    4  C3  UNL     1      33.905  28.240  34.511  1.00  0.00     0.236 C 
HETATM    5  N1  UNL     1      34.162  27.511  33.323  1.00  0.00    -0.062 NA
HETATM    6  O1  UNL     1      33.052  27.774  35.295  1.00  0.00    -0.276 OA
ENDBRANCH   2   4
ENDBRANCH   1   2
BRANCH   1   7
HETATM    7  N2  UNL     1      32.660  30.375  33.673  1.00  0.00    -0.074 N 
ATOM      8  H23 UNL     1      32.424  30.993  32.897  1.00  0.00     0.274 HD
ATOM      9  H22 UNL     1      32.690  29.490  33.167  1.00  0.00     0.274 HD
ATOM     10  H21 UNL     1      31.929  30.373  34.385  1.00  0.00     0.274 HD
ENDBRANCH   1   7
BRANCH   1  11
HETATM   11  C5  UNL     1      33.783  31.777  35.256  1.00  0.00     0.092 C 
BRANCH  11  12
HETATM   12  C6  UNL     1      33.979  33.154  34.742  1.00  0.00     0.027 A 
HETATM   13  C7  UNL     1      35.141  33.629  34.175  1.00  0.00     0.114 A 
HETATM   14  N3  UNL     1      34.979  34.909  33.820  1.00  0.00    -0.360 N 
HETATM   15  C8  UNL     1      33.735  35.268  34.149  1.00  0.00     0.180 A 
ATOM     16  H3  UNL     1      35.680  35.503  33.377  1.00  0.00     0.166 HD
HETATM   17  N4  UNL     1      33.123  34.194  34.714  1.00  0.00    -0.355 N 
ATOM     18  H4  UNL     1      32.164  34.177  35.062  1.00  0.00     0.166 HD
ENDBRANCH  11  12
ENDBRANCH   1  11
TORSDOF 5
ENDMDL
MODEL 4
REMARK VINA RESULT: -5.893248139      9.603     10.417
REMARK  5 active torsions:
REMARK  status: ('A' for Active; 'I' for Inactive)
REMARK    1  A    between atoms: C2_2  and  C3_3 
REMARK    2  A    between atoms: C2_2  and  C4_6 
REMARK    3  A    between atoms: C4_6  and  N2_7 
REMARK    4  A    between atoms: C4_6  and  C5_11 
REMARK    5  A    between atoms: C5_11  and  C6_12 
ROOT
HETATM    1  C4  UNL     1      33.705  31.212  34.642  1.00  0.00     0.201 C 
ENDROOT
BRANCH   1   2
HETATM    2  C2  UNL     1      34.267  29.894  34.230  1.00  0.00     0.101 C 
HETATM    3  C1  UNL     1      35.397  29.393  35.054  1.00  0.00     0.021 C 
BRANCH   2   4
HETATM    4  C3  UNL     1      33.248  28.826  34.138  1.00  0.00     0.236 C 
HETATM    5  N1  UNL     1      33.079  28.005  35.281  1.00  0.00    -0.062 NA
HETATM    6  O1  UNL     1      32.526  28.584  33.148  1.00  0.00    -0.276 OA
ENDBRANCH   2   4
ENDBRANCH   1   2
BRANCH   1   7
HETATM    7  N2  UNL     1      32.819  31.079  35.787  1.00  0.00    -0.074 N 
ATOM      8  H23 UNL     1      31.914  30.695  35.516  1.00  0.00     0.274 HD
ATOM      9  H22 UNL     1      33.127  30.333  36.412  1.00  0.00     0.274 HD
ATOM     10  H21 UNL     1      32.717  31.963  36.285  1.00  0.00     0.274 HD
ENDBRANCH   1   7
BRANCH   1  11
HETATM   11  C5  UNL     1      34.700  32.278  34.917  1.00  0.00     0.092 C 
BRANCH  11  12
HETATM   12  C6  UNL     1      34.294  33.634  34.474  1.00  0.00     0.027 A 
HETATM   13  C7  UNL     1      35.146  34.585  33.956  1.00  0.00     0.114 A 
HETATM   14  N3  UNL     1      34.458  35.693  33.659  1.00  0.00    -0.360 N 
HETATM   15  C8  UNL     1      33.179  35.475  33.978  1.00  0.00     0.180 A 
ATOM     16  H3  UNL     1      34.841  36.550  33.262  1.00  0.00     0.166 HD
HETATM   17  N4  UNL     1      33.079  34.214  34.477  1.00  0.00    -0.355 N 
ATOM     18  H4  UNL     1      32.217  33.776  34.803  1.00  0.00     0.166 HD
ENDBRANCH  11  12
ENDBRANCH   1  11
TORSDOF 5
ENDMDL
MODEL 5
REMARK VINA RESULT: -5.744577349      2.184      2.630
REMARK  5 active torsions:
REMARK  status: ('A' for Active; 'I' for Inactive)
REMARK    1  A    between atoms: C2_2  and  C3_3 
REMARK    2  A    between atoms: C2_2  and  C4_6 
REMARK    3  A    between atoms: C4_6  and  N2_7 
REMARK    4  A    between atoms: C4_6  and  C5_11 
REMARK    5  A    between atoms: C5_11  and  C6_12 
ROOT
HETATM    1  C4  UNL     1      32.517  39.194  29.581  1.00  0.00     0.201 C 
ENDROOT
BRANCH   1   2
HETATM    2  C2  UNL     1      32.527  37.730  29.860  1.00  0.00     0.101 C 
HETATM    3  C1  UNL     1      32.995  36.866  28.745  1.00  0.00     0.021 C 
BRANCH   2   4
HETATM    4  C3  UNL     1      33.289  37.371  31.077  1.00  0.00     0.236 C 
HETATM    5  N1  UNL     1      33.307  36.000  31.438  1.00  0.00    -0.062 NA
HETATM    6  O1  UNL     1      33.916  38.164  31.810  1.00  0.00    -0.276 OA
ENDBRANCH   2   4
ENDBRANCH   1   2
BRANCH   1   7
HETATM    7  N2  UNL     1      33.798  39.646  29.063  1.00  0.00    -0.074 N 
ATOM      8  H23 UNL     1      34.540  39.535  29.755  1.00  0.00     0.274 HD
ATOM      9  H22 UNL     1      34.155  39.015  28.346  1.00  0.00     0.274 HD
ATOM     10  H21 UNL     1      33.746  40.606  28.723  1.00  0.00     0.274 HD
ENDBRANCH   1   7
BRANCH   1  11
HETATM   11  C5  UNL     1      31.435  39.669  28.684  1.00  0.00     0.092 C 
BRANCH  11  12
HETATM   12  C6  UNL     1      30.142  39.935  29.360  1.00  0.00     0.027 A 
HETATM   13  C7  UNL     1      29.860  39.636  30.674  1.00  0.00     0.114 A 
HETATM   14  N3  UNL     1      28.607  40.005  30.963  1.00  0.00    -0.360 N 
HETATM   15  C8  UNL     1      28.075  40.536  29.858  1.00  0.00     0.180 A 
ATOM     16  H3  UNL     1      28.142  39.901  31.864  1.00  0.00     0.166 HD
HETATM   17  N4  UNL     1      29.015  40.493  28.877  1.00  0.00    -0.355 N 
ATOM     18  H4  UNL     1      28.887  40.831  27.922  1.00  0.00     0.166 HD
ENDBRANCH  11  12
ENDBRANCH   1  11
TORSDOF 5
ENDMDL
