MODEL 1
REMARK VINA RESULT: -6.081240879      0.000      0.000
REMARK  5 active torsions:
REMARK  status: ('A' for Active; 'I' for Inactive)
REMARK    1  A    between atoms: C2_2  and  C3_3 
REMARK    2  A    between atoms: C3_3  and  N1_4 
REMARK    3  A    between atoms: C3_3  and  C4_9 
REMARK    4  A    between atoms: N1_4  and  N2_6 
REMARK       I    between atoms: C4_9  and  N3_11 
REMARK    5  A    between atoms: N3_11  and  C5_13 
ROOT
HETATM    1  C4  UNL     1      33.629  28.744  35.652  1.00  0.00     0.242 C 
HETATM    2  O1  UNL     1      32.833  27.866  35.188  1.00  0.00    -0.271 OA
HETATM    3  N3  UNL     1      34.045  28.565  36.997  1.00  0.00    -0.354 N 
ATOM      4  H3  UNL     1      34.683  29.253  37.397  1.00  0.00     0.162 HD
ENDROOT
BRANCH   1   5
HETATM    5  C3  UNL     1      34.101  29.891  34.846  1.00  0.00     0.190 C 
BRANCH   5   6
HETATM    6  C2  UNL     1      34.913  30.878  35.645  1.00  0.00     0.032 C 
HETATM    7  C1  UNL     1      34.648  32.261  35.085  1.00  0.00     0.007 C 
ENDBRANCH   5   6
BRANCH   5   8
HETATM    8  N1  UNL     1      33.056  30.588  34.174  1.00  0.00    -0.329 N 
ATOM      9  H1  UNL     1      32.770  31.532  34.436  1.00  0.00     0.180 HD
BRANCH   8  10
HETATM   10  N2  UNL     1      32.461  29.895  33.148  1.00  0.00    -0.349 N 
ATOM     11  H22 UNL     1      31.942  29.033  33.316  1.00  0.00     0.176 HD
ATOM     12  H21 UNL     1      32.578  30.308  32.223  1.00  0.00     0.176 HD
ENDBRANCH   8  10
ENDBRANCH   5   8
ENDBRANCH   1   5
BRANCH   3  13
HETATM   13  C5  UNL     1      33.624  27.481  37.822  1.00  0.00     0.089 C 
HETATM   14  C6  UNL     1      34.123  27.507  39.246  1.00  0.00     0.030 C 
HETATM   15  C7  UNL     1      34.594  26.098  39.191  1.00  0.00    -0.006 A 
HETATM   16  C8  UNL     1      33.937  25.050  38.393  1.00  0.00     0.012 A 
HETATM   17  C9  UNL     1      34.451  26.202  37.646  1.00  0.00     0.013 A 
ENDBRANCH   3  13
TORSDOF 5
ENDMDL
MODEL 2
REMARK VINA RESULT: -5.999508692      1.145      1.483
REMARK  5 active torsions:
REMARK  status: ('A' for Active; 'I' for Inactive)
REMARK    1  A    between atoms: C2_2  and  C3_3 
REMARK    2  A    between atoms: C3_3  and  N1_4 
REMARK    3  A    between atoms: C3_3  and  C4_9 
REMARK    4  A    between atoms: N1_4  and  N2_6 
REMARK       I    between atoms: C4_9  and  N3_11 
REMARK    5  A    between atoms: N3_11  and  C5_13 
ROOT
HETATM    1  C4  UNL     1      34.309  28.810  34.874  1.00  0.00     0.242 C 
HETATM    2  O1  UNL     1      34.939  28.029  34.091  1.00  0.00    -0.271 OA
HETATM    3  N3  UNL     1      34.044  28.312  36.176  1.00  0.00    -0.354 N 
ATOM      4  H3  UNL     1      33.541  28.916  36.826  1.00  0.00     0.162 HD
ENDROOT
BRANCH   1   5
HETATM    5  C3  UNL     1      33.871  30.161  34.462  1.00  0.00     0.190 C 
BRANCH   5   6
HETATM    6  C2  UNL     1      33.784  31.129  35.614  1.00  0.00     0.032 C 
HETATM    7  C1  UNL     1      34.131  32.508  35.091  1.00  0.00     0.007 C 
ENDBRANCH   5   6
BRANCH   5   8
HETATM    8  N1  UNL     1      32.635  30.172  33.753  1.00  0.00    -0.329 N 
ATOM      9  H1  UNL     1      32.151  31.036  33.511  1.00  0.00     0.180 HD
BRANCH   8  10
HETATM   10  N2  UNL     1      32.145  28.933  33.420  1.00  0.00    -0.349 N 
ATOM     11  H22 UNL     1      32.043  28.194  34.116  1.00  0.00     0.176 HD
ATOM     12  H21 UNL     1      31.895  28.817  32.438  1.00  0.00     0.176 HD
ENDBRANCH   8  10
ENDBRANCH   5   8
ENDBRANCH   1   5
BRANCH   3  13
HETATM   13  C5  UNL     1      34.441  27.020  36.629  1.00  0.00     0.089 C 
HETATM   14  C6  UNL     1      33.395  25.937  36.520  1.00  0.00     0.030 C 
HETATM   15  C7  UNL     1      33.591  25.496  37.927  1.00  0.00    -0.006 A 
HETATM   16  C8  UNL     1      34.884  25.554  38.627  1.00  0.00     0.012 A 
HETATM   17  C9  UNL     1      34.352  26.834  38.148  1.00  0.00     0.013 A 
ENDBRANCH   3  13
TORSDOF 5
ENDMDL
MODEL 3
REMARK VINA RESULT: -5.974595599      1.804      5.265
REMARK  5 active torsions:
REMARK  status: ('A' for Active; 'I' for Inactive)
REMARK    1  A    between atoms: C2_2  and  C3_3 
REMARK    2  A    between atoms: C3_3  and  N1_4 
REMARK    3  A    between atoms: C3_3  and  C4_9 
REMARK    4  A    between atoms: N1_4  and  N2_6 
REMARK       I    between atoms: C4_9  and  N3_11 
REMARK    5  A    between atoms: N3_11  and  C5_13 
ROOT
HETATM    1  C4  UNL     1      33.784  28.139  36.726  1.00  0.00     0.242 C 
HETATM    2  O1  UNL     1      32.908  28.137  35.802  1.00  0.00    -0.271 OA
HETATM    3  N3  UNL     1      34.878  29.025  36.550  1.00  0.00    -0.354 N 
ATOM      4  H3  UNL     1      35.597  29.049  37.273  1.00  0.00     0.162 HD
ENDROOT
BRANCH   1   5
HETATM    5  C3  UNL     1      33.679  27.272  37.919  1.00  0.00     0.190 C 
BRANCH   5   6
HETATM    6  C2  UNL     1      35.021  26.868  38.475  1.00  0.00     0.032 C 
HETATM    7  C1  UNL     1      34.786  26.164  39.795  1.00  0.00     0.007 C 
ENDBRANCH   5   6
BRANCH   5   8
HETATM    8  N1  UNL     1      32.893  26.102  37.711  1.00  0.00    -0.329 N 
ATOM      9  H1  UNL     1      32.150  25.821  38.350  1.00  0.00     0.180 HD
BRANCH   8  10
HETATM   10  N2  UNL     1      33.211  25.382  36.585  1.00  0.00    -0.349 N 
ATOM     11  H22 UNL     1      34.106  25.499  36.111  1.00  0.00     0.176 HD
ATOM     12  H21 UNL     1      32.490  24.732  36.271  1.00  0.00     0.176 HD
ENDBRANCH   8  10
ENDBRANCH   5   8
ENDBRANCH   1   5
BRANCH   3  13
HETATM   13  C5  UNL     1      35.033  29.883  35.421  1.00  0.00     0.089 C 
HETATM   14  C6  UNL     1      36.402  30.493  35.244  1.00  0.00     0.030 C 
HETATM   15  C7  UNL     1      35.856  31.865  35.075  1.00  0.00    -0.006 A 
HETATM   16  C8  UNL     1      34.557  32.154  34.446  1.00  0.00     0.012 A 
HETATM   17  C9  UNL     1      34.520  31.310  35.644  1.00  0.00     0.013 A 
ENDBRANCH   3  13
TORSDOF 5
ENDMDL
MODEL 4
REMARK VINA RESULT: -5.969354024      9.342     12.963
REMARK  5 active torsions:
REMARK  status: ('A' for Active; 'I' for Inactive)
REMARK    1  A    between atoms: C2_2  and  C3_3 
REMARK    2  A    between atoms: C3_3  and  N1_4 
REMARK    3  A    between atoms: C3_3  and  C4_9 
REMARK    4  A    between atoms: N1_4  and  N2_6 
REMARK       I    between atoms: C4_9  and  N3_11 
REMARK    5  A    between atoms: N3_11  and  C5_13 
ROOT
HETATM    1  C4  UNL     1      32.250  38.293  30.657  1.00  0.00     0.242 C 
HETATM    2  O1  UNL     1      33.049  39.192  30.239  1.00  0.00    -0.271 OA
HETATM    3  N3  UNL     1      30.881  38.657  30.733  1.00  0.00    -0.354 N 
ATOM      4  H3  UNL     1      30.217  37.958  31.064  1.00  0.00     0.162 HD
ENDROOT
BRANCH   1   5
HETATM    5  C3  UNL     1      32.711  36.942  31.044  1.00  0.00     0.190 C 
BRANCH   5   6
HETATM    6  C2  UNL     1      33.675  36.958  32.203  1.00  0.00     0.032 C 
HETATM    7  C1  UNL     1      33.510  35.660  32.965  1.00  0.00     0.007 C 
ENDBRANCH   5   6
BRANCH   5   8
HETATM    8  N1  UNL     1      33.288  36.203  29.972  1.00  0.00    -0.329 N 
ATOM      9  H1  UNL     1      33.692  35.276  30.101  1.00  0.00     0.180 HD
BRANCH   8  10
HETATM   10  N2  UNL     1      33.260  36.832  28.751  1.00  0.00    -0.349 N 
ATOM     11  H22 UNL     1      34.107  37.207  28.324  1.00  0.00     0.176 HD
ATOM     12  H21 UNL     1      32.339  36.890  28.317  1.00  0.00     0.176 HD
ENDBRANCH   8  10
ENDBRANCH   5   8
ENDBRANCH   1   5
BRANCH   3  13
HETATM   13  C5  UNL     1      30.379  39.943  30.373  1.00  0.00     0.089 C 
HETATM   14  C6  UNL     1      28.877  40.085  30.377  1.00  0.00     0.030 C 
HETATM   15  C7  UNL     1      28.851  40.695  29.021  1.00  0.00    -0.006 A 
HETATM   16  C8  UNL     1      29.924  41.554  28.494  1.00  0.00     0.012 A 
HETATM   17  C9  UNL     1      30.313  40.189  28.861  1.00  0.00     0.013 A 
ENDBRANCH   3  13
TORSDOF 5
ENDMDL
MODEL 5
REMARK VINA RESULT: -5.926775232      1.252      1.347
REMARK  5 active torsions:
REMARK  status: ('A' for Active; 'I' for Inactive)
REMARK    1  A    between atoms: C2_2  and  C3_3 
REMARK    2  A    between atoms: C3_3  and  N1_4 
REMARK    3  A    between atoms: C3_3  and  C4_9 
REMARK    4  A    between atoms: N1_4  and  N2_6 
REMARK       I    between atoms: C4_9  and  N3_11 
REMARK    5  A    between atoms: N3_11  and  C5_13 
ROOT
HETATM    1  C4  UNL     1      33.998  29.039  35.977  1.00  0.00     0.242 C 
HETATM    2  O1  UNL     1      32.907  28.544  35.548  1.00  0.00    -0.271 OA
HETATM    3  N3  UNL     1      34.493  28.504  37.195  1.00  0.00    -0.354 N 
ATOM      4  H3  UNL     1      35.366  28.880  37.564  1.00  0.00     0.162 HD
ENDROOT
BRANCH   1   5
HETATM    5  C3  UNL     1      34.720  30.110  35.257  1.00  0.00     0.190 C 
BRANCH   5   6
HETATM    6  C2  UNL     1      36.214  30.044  35.445  1.00  0.00     0.032 C 
HETATM    7  C1  UNL     1      36.796  31.379  35.027  1.00  0.00     0.007 C 
ENDBRANCH   5   6
BRANCH   5   8
HETATM    8  N1  UNL     1      34.270  31.422  35.582  1.00  0.00    -0.329 N 
ATOM      9  H1  UNL     1      34.911  32.206  35.704  1.00  0.00     0.180 HD
BRANCH   8  10
HETATM   10  N2  UNL     1      32.909  31.554  35.719  1.00  0.00    -0.349 N 
ATOM     11  H22 UNL     1      32.394  31.052  36.443  1.00  0.00     0.176 HD
ATOM     12  H21 UNL     1      32.467  32.183  35.049  1.00  0.00     0.176 HD
ENDBRANCH   8  10
ENDBRANCH   5   8
ENDBRANCH   1   5
BRANCH   3  13
HETATM   13  C5  UNL     1      33.842  27.472  37.933  1.00  0.00     0.089 C 
HETATM   14  C6  UNL     1      34.257  27.336  39.377  1.00  0.00     0.030 C 
HETATM   15  C7  UNL     1      34.475  25.869  39.259  1.00  0.00    -0.006 A 
HETATM   16  C8  UNL     1      33.689  24.998  38.371  1.00  0.00     0.012 A 
HETATM   17  C9  UNL     1      34.438  26.076  37.718  1.00  0.00     0.013 A 
ENDBRANCH   3  13
TORSDOF 5
ENDMDL
