MODEL 1
REMARK VINA RESULT: -7.007999555      0.000      0.000
REMARK  1 active torsions:
REMARK  status: ('A' for Active; 'I' for Inactive)
REMARK    1  A    between atoms: C2_2  and  C5_5 
ROOT
HETATM    1  C5  UNL     1      55.005  57.950   6.162  1.00  0.00    -0.004 C 
HETATM    2  C6  UNL     1      53.927  57.586   6.824  1.00  0.00     0.024 C 
HETATM    3  C7  UNL     1      53.822  57.491   8.303  1.00  0.00     0.123 C 
HETATM    4  C8  UNL     1      52.434  57.924   8.753  1.00  0.00     0.146 C 
HETATM    5  C9  UNL     1      52.163  57.500  10.133  1.00  0.00     0.228 C 
HETATM    6  O1  UNL     1      51.340  58.153  10.821  1.00  0.00    -0.273 OA
HETATM    7  N1  UNL     1      52.788  56.377  10.743  1.00  0.00    -0.279 N 
ATOM      8  H1  UNL     1      52.554  56.106  11.699  1.00  0.00     0.173 HD
HETATM    9  C10 UNL     1      53.755  55.632   9.986  1.00  0.00     0.324 C 
HETATM   10  O2  UNL     1      54.331  54.632  10.485  1.00  0.00    -0.247 OA
HETATM   11  N2  UNL     1      54.012  56.091   8.659  1.00  0.00    -0.323 N 
ATOM     12  H2  UNL     1      54.333  55.430   7.952  1.00  0.00     0.165 HD
HETATM   13  C11 UNL     1      54.824  58.329   8.971  1.00  0.00     0.174 C 
HETATM   14  O3  UNL     1      54.597  58.860  10.045  1.00  0.00    -0.294 OA
HETATM   15  C12 UNL     1      56.167  58.578   8.379  1.00  0.00     0.081 C 
HETATM   16  C13 UNL     1      57.201  57.780   9.129  1.00  0.00     0.032 C 
HETATM   17  C14 UNL     1      56.514  60.045   8.553  1.00  0.00     0.032 C 
HETATM   18  C15 UNL     1      56.197  58.293   6.929  1.00  0.00     0.171 C 
HETATM   19  O4  UNL     1      57.323  58.361   6.375  1.00  0.00    -0.291 OA
ENDROOT
BRANCH   1  20
HETATM   20  C2  UNL     1      54.963  57.999   4.692  1.00  0.00    -0.021 C 
HETATM   21  C1  UNL     1      56.293  57.712   4.047  1.00  0.00     0.019 C 
HETATM   22  C3  UNL     1      53.989  56.969   4.166  1.00  0.00     0.019 C 
HETATM   23  C4  UNL     1      54.421  59.354   4.283  1.00  0.00     0.019 C 
ENDBRANCH   1  20
TORSDOF 1
ENDMDL
MODEL 2
REMARK VINA RESULT: -6.976176780      2.751      5.453
REMARK  1 active torsions:
REMARK  status: ('A' for Active; 'I' for Inactive)
REMARK    1  A    between atoms: C2_2  and  C5_5 
ROOT
HETATM    1  C5  UNL     1      55.380  56.969   8.054  1.00  0.00    -0.004 C 
HETATM    2  C6  UNL     1      55.794  57.861   7.179  1.00  0.00     0.024 C 
HETATM    3  C7  UNL     1      54.966  58.437   6.088  1.00  0.00     0.123 C 
HETATM    4  C8  UNL     1      55.328  59.901   5.881  1.00  0.00     0.146 C 
HETATM    5  C9  UNL     1      54.819  60.400   4.597  1.00  0.00     0.228 C 
HETATM    6  O1  UNL     1      54.580  61.627   4.472  1.00  0.00    -0.273 OA
HETATM    7  N1  UNL     1      54.579  59.564   3.472  1.00  0.00    -0.279 N 
ATOM      8  H1  UNL     1      54.244  59.958   2.592  1.00  0.00     0.173 HD
HETATM    9  C10 UNL     1      54.817  58.153   3.600  1.00  0.00     0.324 C 
HETATM   10  O2  UNL     1      54.619  57.376   2.631  1.00  0.00    -0.247 OA
HETATM   11  N2  UNL     1      55.284  57.701   4.871  1.00  0.00    -0.323 N 
ATOM     12  H2  UNL     1      55.846  56.853   4.927  1.00  0.00     0.165 HD
HETATM   13  C11 UNL     1      53.533  58.336   6.387  1.00  0.00     0.174 C 
HETATM   14  O3  UNL     1      52.741  59.180   6.002  1.00  0.00    -0.294 OA
HETATM   15  C12 UNL     1      52.967  57.205   7.172  1.00  0.00     0.081 C 
HETATM   16  C13 UNL     1      52.234  56.270   6.248  1.00  0.00     0.032 C 
HETATM   17  C14 UNL     1      51.952  57.754   8.158  1.00  0.00     0.032 C 
HETATM   18  C15 UNL     1      54.002  56.503   7.959  1.00  0.00     0.171 C 
HETATM   19  O4  UNL     1      53.631  55.460   8.556  1.00  0.00    -0.291 OA
ENDROOT
BRANCH   1  20
HETATM   20  C2  UNL     1      56.315  56.485   9.083  1.00  0.00    -0.021 C 
HETATM   21  C1  UNL     1      56.965  55.173   8.731  1.00  0.00     0.019 C 
HETATM   22  C3  UNL     1      57.429  57.487   9.283  1.00  0.00     0.019 C 
HETATM   23  C4  UNL     1      55.564  56.405  10.398  1.00  0.00     0.019 C 
ENDBRANCH   1  20
TORSDOF 1
ENDMDL
MODEL 3
REMARK VINA RESULT: -6.915222968      1.658      3.696
REMARK  1 active torsions:
REMARK  status: ('A' for Active; 'I' for Inactive)
REMARK    1  A    between atoms: C2_2  and  C5_5 
ROOT
HETATM    1  C5  UNL     1      55.612  59.368   7.544  1.00  0.00    -0.004 C 
HETATM    2  C6  UNL     1      55.538  58.652   8.646  1.00  0.00     0.024 C 
HETATM    3  C7  UNL     1      54.492  57.637   8.937  1.00  0.00     0.123 C 
HETATM    4  C8  UNL     1      55.101  56.473   9.706  1.00  0.00     0.146 C 
HETATM    5  C9  UNL     1      54.061  55.644  10.330  1.00  0.00     0.228 C 
HETATM    6  O1  UNL     1      54.304  54.434  10.562  1.00  0.00    -0.273 OA
HETATM    7  N1  UNL     1      52.778  56.140  10.693  1.00  0.00    -0.279 N 
ATOM      8  H1  UNL     1      52.093  55.533  11.144  1.00  0.00     0.173 HD
HETATM    9  C10 UNL     1      52.467  57.514  10.411  1.00  0.00     0.324 C 
HETATM   10  O2  UNL     1      51.345  57.995  10.715  1.00  0.00    -0.247 OA
HETATM   11  N2  UNL     1      53.491  58.280   9.778  1.00  0.00    -0.323 N 
ATOM     12  H2  UNL     1      53.522  59.290   9.917  1.00  0.00     0.165 HD
HETATM   13  C11 UNL     1      53.876  57.127   7.707  1.00  0.00     0.174 C 
HETATM   14  O3  UNL     1      53.473  55.980   7.625  1.00  0.00    -0.294 OA
HETATM   15  C12 UNL     1      53.708  57.978   6.497  1.00  0.00     0.081 C 
HETATM   16  C13 UNL     1      52.260  58.367   6.354  1.00  0.00     0.032 C 
HETATM   17  C14 UNL     1      54.079  57.163   5.271  1.00  0.00     0.032 C 
HETATM   18  C15 UNL     1      54.596  59.158   6.519  1.00  0.00     0.171 C 
HETATM   19  O4  UNL     1      54.432  59.992   5.593  1.00  0.00    -0.291 OA
ENDROOT
BRANCH   1  20
HETATM   20  C2  UNL     1      56.707  60.340   7.391  1.00  0.00    -0.021 C 
HETATM   21  C1  UNL     1      56.236  61.714   6.992  1.00  0.00     0.019 C 
HETATM   22  C3  UNL     1      57.449  60.494   8.700  1.00  0.00     0.019 C 
HETATM   23  C4  UNL     1      57.701  59.775   6.396  1.00  0.00     0.019 C 
ENDBRANCH   1  20
TORSDOF 1
ENDMDL
MODEL 4
REMARK VINA RESULT: -6.771756460      1.962      3.507
REMARK  1 active torsions:
REMARK  status: ('A' for Active; 'I' for Inactive)
REMARK    1  A    between atoms: C2_2  and  C5_5 
ROOT
HETATM    1  C5  UNL     1      54.949  59.022   5.432  1.00  0.00    -0.004 C 
HETATM    2  C6  UNL     1      55.105  59.147   6.733  1.00  0.00     0.024 C 
HETATM    3  C7  UNL     1      54.742  58.118   7.741  1.00  0.00     0.123 C 
HETATM    4  C8  UNL     1      55.755  58.124   8.877  1.00  0.00     0.146 C 
HETATM    5  C9  UNL     1      55.245  57.405  10.052  1.00  0.00     0.228 C 
HETATM    6  O1  UNL     1      56.064  56.888  10.852  1.00  0.00    -0.273 OA
HETATM    7  N1  UNL     1      53.859  57.258  10.339  1.00  0.00    -0.279 N 
ATOM      8  H1  UNL     1      53.551  56.768  11.179  1.00  0.00     0.173 HD
HETATM    9  C10 UNL     1      52.904  57.816   9.422  1.00  0.00     0.324 C 
HETATM   10  O2  UNL     1      51.670  57.710   9.637  1.00  0.00    -0.247 OA
HETATM   11  N2  UNL     1      53.436  58.482   8.278  1.00  0.00    -0.323 N 
ATOM     12  H2  UNL     1      52.896  59.223   7.831  1.00  0.00     0.165 HD
HETATM   13  C11 UNL     1      54.695  56.775   7.150  1.00  0.00     0.174 C 
HETATM   14  O3  UNL     1      54.993  55.785   7.795  1.00  0.00    -0.294 OA
HETATM   15  C12 UNL     1      54.282  56.548   5.738  1.00  0.00     0.081 C 
HETATM   16  C13 UNL     1      52.895  55.963   5.708  1.00  0.00     0.032 C 
HETATM   17  C14 UNL     1      55.217  55.528   5.114  1.00  0.00     0.032 C 
HETATM   18  C15 UNL     1      54.378  57.779   4.926  1.00  0.00     0.171 C 
HETATM   19  O4  UNL     1      53.934  57.704   3.752  1.00  0.00    -0.291 OA
ENDROOT
BRANCH   1  20
HETATM   20  C2  UNL     1      55.355  60.129   4.550  1.00  0.00    -0.021 C 
HETATM   21  C1  UNL     1      54.213  60.713   3.761  1.00  0.00     0.019 C 
HETATM   22  C3  UNL     1      55.943  61.255   5.369  1.00  0.00     0.019 C 
HETATM   23  C4  UNL     1      56.464  59.626   3.647  1.00  0.00     0.019 C 
ENDBRANCH   1  20
TORSDOF 1
ENDMDL
MODEL 5
REMARK VINA RESULT: -6.742859083      2.009      2.602
REMARK  1 active torsions:
REMARK  status: ('A' for Active; 'I' for Inactive)
REMARK    1  A    between atoms: C2_2  and  C5_5 
ROOT
HETATM    1  C5  UNL     1      55.024  55.663   5.290  1.00  0.00    -0.004 C 
HETATM    2  C6  UNL     1      54.224  55.606   6.334  1.00  0.00     0.024 C 
HETATM    3  C7  UNL     1      54.133  56.637   7.400  1.00  0.00     0.123 C 
HETATM    4  C8  UNL     1      52.691  56.770   7.870  1.00  0.00     0.146 C 
HETATM    5  C9  UNL     1      52.612  57.486   9.150  1.00  0.00     0.228 C 
HETATM    6  O1  UNL     1      51.559  58.108   9.435  1.00  0.00    -0.273 OA
HETATM    7  N1  UNL     1      53.672  57.515  10.098  1.00  0.00    -0.279 N 
ATOM      8  H1  UNL     1      53.565  58.008  10.985  1.00  0.00     0.173 HD
HETATM    9  C10 UNL     1      54.897  56.834   9.781  1.00  0.00     0.324 C 
HETATM   10  O2  UNL     1      55.860  56.833  10.589  1.00  0.00    -0.247 OA
HETATM   11  N2  UNL     1      54.947  56.175   8.517  1.00  0.00    -0.323 N 
ATOM     12  H2  UNL     1      55.561  55.370   8.393  1.00  0.00     0.165 HD
HETATM   13  C11 UNL     1      54.605  57.944   6.929  1.00  0.00     0.174 C 
HETATM   14  O3  UNL     1      54.125  58.983   7.348  1.00  0.00    -0.294 OA
HETATM   15  C12 UNL     1      55.691  58.074   5.919  1.00  0.00     0.081 C 
HETATM   16  C13 UNL     1      56.957  58.527   6.599  1.00  0.00     0.032 C 
HETATM   17  C14 UNL     1      55.305  59.151   4.922  1.00  0.00     0.032 C 
HETATM   18  C15 UNL     1      55.893  56.826   5.155  1.00  0.00     0.171 C 
HETATM   19  O4  UNL     1      56.872  56.812   4.366  1.00  0.00    -0.291 OA
ENDROOT
BRANCH   1  20
HETATM   20  C2  UNL     1      55.007  54.564   4.310  1.00  0.00    -0.021 C 
HETATM   21  C1  UNL     1      56.255  53.723   4.335  1.00  0.00     0.019 C 
HETATM   22  C3  UNL     1      53.847  53.636   4.593  1.00  0.00     0.019 C 
HETATM   23  C4  UNL     1      54.758  55.162   2.939  1.00  0.00     0.019 C 
ENDBRANCH   1  20
TORSDOF 1
ENDMDL
