MODEL 1
REMARK VINA RESULT: -6.886963416      0.000      0.000
REMARK  1 active torsions:
REMARK  status: ('A' for Active; 'I' for Inactive)
REMARK    1  A    between atoms: C12_18  and  O4_19 
ROOT
HETATM    1  O1  UNL     1      57.834  57.738   9.825  1.00  0.00    -0.293 OA
HETATM    2  C1  UNL     1      57.210  56.770   9.420  1.00  0.00     0.175 C 
HETATM    3  C2  UNL     1      57.806  55.950   8.362  1.00  0.00     0.083 C 
HETATM    4  C3  UNL     1      56.798  55.352   7.413  1.00  0.00     0.007 C 
HETATM    5  C4  UNL     1      57.397  55.293   6.000  1.00  0.00     0.000 C 
HETATM    6  C5  UNL     1      56.396  54.674   5.064  1.00  0.00     0.000 C 
HETATM    7  C6  UNL     1      55.264  55.599   4.711  1.00  0.00     0.000 C 
HETATM    8  C7  UNL     1      53.936  55.073   5.200  1.00  0.00     0.000 C 
HETATM    9  C8  UNL     1      52.901  56.186   5.184  1.00  0.00     0.000 C 
HETATM   10  C9  UNL     1      52.061  56.205   6.427  1.00  0.00     0.001 C 
HETATM   11  C10 UNL     1      52.023  57.575   7.084  1.00  0.00     0.017 C 
HETATM   12  C11 UNL     1      53.364  57.959   7.638  1.00  0.00     0.163 C 
HETATM   13  S1  UNL     1      53.513  57.429   9.339  1.00  0.00     0.228 S 
HETATM   14  O2  UNL     1      52.580  58.332  10.134  1.00  0.00    -0.206 OA
HETATM   15  O3  UNL     1      53.017  56.040   9.521  1.00  0.00    -0.206 OA
HETATM   16  N1  UNL     1      55.091  57.695   9.899  1.00  0.00    -0.285 N 
ATOM     17  H1  UNL     1      55.446  58.627  10.112  1.00  0.00     0.175 HD
HETATM   18  C12 UNL     1      55.887  56.516  10.052  1.00  0.00     0.298 C 
ENDROOT
BRANCH  18  19
HETATM   19  O4  UNL     1      55.292  55.353   9.649  1.00  0.00    -0.369 OA
ATOM     20  H4  UNL     1      55.139  54.733  10.353  1.00  0.00     0.212 HD
ENDBRANCH  18  19
TORSDOF 1
ENDMDL
MODEL 2
REMARK VINA RESULT: -6.284866536      1.358      4.303
REMARK  1 active torsions:
REMARK  status: ('A' for Active; 'I' for Inactive)
REMARK    1  A    between atoms: C12_18  and  O4_19 
ROOT
HETATM    1  O1  UNL     1      52.064  57.525  10.309  1.00  0.00    -0.293 OA
HETATM    2  C1  UNL     1      52.599  57.840   9.259  1.00  0.00     0.175 C 
HETATM    3  C2  UNL     1      51.872  57.605   8.008  1.00  0.00     0.083 C 
HETATM    4  C3  UNL     1      52.761  57.256   6.841  1.00  0.00     0.007 C 
HETATM    5  C4  UNL     1      52.040  56.252   5.930  1.00  0.00     0.000 C 
HETATM    6  C5  UNL     1      52.922  55.927   4.756  1.00  0.00     0.000 C 
HETATM    7  C6  UNL     1      54.067  55.017   5.110  1.00  0.00     0.000 C 
HETATM    8  C7  UNL     1      55.402  55.690   4.908  1.00  0.00     0.000 C 
HETATM    9  C8  UNL     1      56.489  54.912   5.632  1.00  0.00     0.000 C 
HETATM   10  C9  UNL     1      57.433  55.808   6.379  1.00  0.00     0.001 C 
HETATM   11  C10 UNL     1      57.599  55.396   7.833  1.00  0.00     0.017 C 
HETATM   12  C11 UNL     1      56.333  55.600   8.613  1.00  0.00     0.163 C 
HETATM   13  S1  UNL     1      56.305  57.231   9.343  1.00  0.00     0.228 S 
HETATM   14  O2  UNL     1      57.349  57.204  10.450  1.00  0.00    -0.206 OA
HETATM   15  O3  UNL     1      56.742  58.269   8.373  1.00  0.00    -0.206 OA
HETATM   16  N1  UNL     1      54.798  57.525  10.061  1.00  0.00    -0.285 N 
ATOM     17  H1  UNL     1      54.511  57.081  10.933  1.00  0.00     0.175 HD
HETATM   18  C12 UNL     1      53.957  58.442   9.354  1.00  0.00     0.298 C 
ENDROOT
BRANCH  18  19
HETATM   19  O4  UNL     1      54.453  58.889   8.161  1.00  0.00    -0.369 OA
ATOM     20  H4  UNL     1      55.401  58.853   8.099  1.00  0.00     0.212 HD
ENDBRANCH  18  19
TORSDOF 1
ENDMDL
MODEL 3
REMARK VINA RESULT: -6.144866433      2.636      4.454
REMARK  1 active torsions:
REMARK  status: ('A' for Active; 'I' for Inactive)
REMARK    1  A    between atoms: C12_18  and  O4_19 
ROOT
HETATM    1  O1  UNL     1      53.216  53.989   4.745  1.00  0.00    -0.293 OA
HETATM    2  C1  UNL     1      53.983  54.921   4.925  1.00  0.00     0.175 C 
HETATM    3  C2  UNL     1      55.417  54.634   5.026  1.00  0.00     0.083 C 
HETATM    4  C3  UNL     1      56.158  55.550   5.966  1.00  0.00     0.007 C 
HETATM    5  C4  UNL     1      57.277  54.768   6.668  1.00  0.00     0.000 C 
HETATM    6  C5  UNL     1      58.027  55.692   7.587  1.00  0.00     0.000 C 
HETATM    7  C6  UNL     1      57.266  56.027   8.840  1.00  0.00     0.000 C 
HETATM    8  C7  UNL     1      56.944  57.499   8.925  1.00  0.00     0.000 C 
HETATM    9  C8  UNL     1      55.862  57.733   9.967  1.00  0.00     0.000 C 
HETATM   10  C9  UNL     1      54.810  58.693   9.494  1.00  0.00     0.001 C 
HETATM   11  C10 UNL     1      53.403  58.138   9.649  1.00  0.00     0.017 C 
HETATM   12  C11 UNL     1      53.164  56.976   8.731  1.00  0.00     0.163 C 
HETATM   13  S1  UNL     1      52.496  57.538   7.171  1.00  0.00     0.228 S 
HETATM   14  O2  UNL     1      51.074  57.992   7.472  1.00  0.00    -0.206 OA
HETATM   15  O3  UNL     1      53.225  58.732   6.666  1.00  0.00    -0.206 OA
HETATM   16  N1  UNL     1      52.405  56.250   6.073  1.00  0.00    -0.285 N 
ATOM     17  H1  UNL     1      51.708  55.509   6.156  1.00  0.00     0.175 HD
HETATM   18  C12 UNL     1      53.377  56.276   5.024  1.00  0.00     0.298 C 
ENDROOT
BRANCH  18  19
HETATM   19  O4  UNL     1      54.290  57.291   5.100  1.00  0.00    -0.369 OA
ATOM     20  H4  UNL     1      54.475  57.708   4.266  1.00  0.00     0.212 HD
ENDBRANCH  18  19
TORSDOF 1
ENDMDL
MODEL 4
REMARK VINA RESULT: -6.057681755      3.412      4.333
REMARK  1 active torsions:
REMARK  status: ('A' for Active; 'I' for Inactive)
REMARK    1  A    between atoms: C12_18  and  O4_19 
ROOT
HETATM    1  O1  UNL     1      58.693  59.534   6.484  1.00  0.00    -0.293 OA
HETATM    2  C1  UNL     1      57.628  59.532   7.080  1.00  0.00     0.175 C 
HETATM    3  C2  UNL     1      57.603  59.039   8.460  1.00  0.00     0.083 C 
HETATM    4  C3  UNL     1      56.321  58.341   8.836  1.00  0.00     0.007 C 
HETATM    5  C4  UNL     1      56.629  57.194   9.809  1.00  0.00     0.000 C 
HETATM    6  C5  UNL     1      55.344  56.517  10.198  1.00  0.00     0.000 C 
HETATM    7  C6  UNL     1      54.780  55.645   9.109  1.00  0.00     0.000 C 
HETATM    8  C7  UNL     1      53.439  56.145   8.628  1.00  0.00     0.000 C 
HETATM    9  C8  UNL     1      53.095  55.500   7.296  1.00  0.00     0.000 C 
HETATM   10  C9  UNL     1      52.538  56.485   6.310  1.00  0.00     0.001 C 
HETATM   11  C10 UNL     1      53.263  56.446   4.974  1.00  0.00     0.017 C 
HETATM   12  C11 UNL     1      54.677  56.934   5.100  1.00  0.00     0.163 C 
HETATM   13  S1  UNL     1      54.760  58.695   4.804  1.00  0.00     0.228 S 
HETATM   14  O2  UNL     1      54.501  58.874   3.315  1.00  0.00    -0.206 OA
HETATM   15  O3  UNL     1      53.671  59.417   5.514  1.00  0.00    -0.206 OA
HETATM   16  N1  UNL     1      56.320  59.271   5.132  1.00  0.00    -0.285 N 
ATOM     17  H1  UNL     1      57.112  59.086   4.516  1.00  0.00     0.175 HD
HETATM   18  C12 UNL     1      56.444  60.037   6.334  1.00  0.00     0.298 C 
ENDROOT
BRANCH  18  19
HETATM   19  O4  UNL     1      55.308  60.127   7.089  1.00  0.00    -0.369 OA
ATOM     20  H4  UNL     1      55.446  59.972   8.016  1.00  0.00     0.212 HD
ENDBRANCH  18  19
TORSDOF 1
ENDMDL
MODEL 5
REMARK VINA RESULT: -5.991185215      1.947      3.375
REMARK  1 active torsions:
REMARK  status: ('A' for Active; 'I' for Inactive)
REMARK    1  A    between atoms: C12_18  and  O4_19 
ROOT
HETATM    1  O1  UNL     1      53.831  58.506   9.919  1.00  0.00    -0.293 OA
HETATM    2  C1  UNL     1      54.229  57.376   9.688  1.00  0.00     0.175 C 
HETATM    3  C2  UNL     1      55.619  57.046  10.018  1.00  0.00     0.083 C 
HETATM    4  C3  UNL     1      56.250  56.053   9.075  1.00  0.00     0.007 C 
HETATM    5  C4  UNL     1      57.738  56.388   8.900  1.00  0.00     0.000 C 
HETATM    6  C5  UNL     1      58.367  55.380   7.978  1.00  0.00     0.000 C 
HETATM    7  C6  UNL     1      57.995  55.585   6.535  1.00  0.00     0.000 C 
HETATM    8  C7  UNL     1      57.216  54.415   5.985  1.00  0.00     0.000 C 
HETATM    9  C8  UNL     1      56.529  54.813   4.689  1.00  0.00     0.000 C 
HETATM   10  C9  UNL     1      55.112  54.325   4.618  1.00  0.00     0.001 C 
HETATM   11  C10 UNL     1      54.129  55.436   4.282  1.00  0.00     0.017 C 
HETATM   12  C11 UNL     1      54.032  56.442   5.391  1.00  0.00     0.163 C 
HETATM   13  S1  UNL     1      52.735  55.988   6.534  1.00  0.00     0.228 S 
HETATM   14  O2  UNL     1      51.429  56.223   5.788  1.00  0.00    -0.206 OA
HETATM   15  O3  UNL     1      52.781  54.539   6.863  1.00  0.00    -0.206 OA
HETATM   16  N1  UNL     1      52.753  57.019   7.880  1.00  0.00    -0.285 N 
ATOM     17  H1  UNL     1      52.435  57.987   7.833  1.00  0.00     0.175 HD
HETATM   18  C12 UNL     1      53.249  56.432   9.087  1.00  0.00     0.298 C 
ENDROOT
BRANCH  18  19
HETATM   19  O4  UNL     1      53.711  55.151   8.966  1.00  0.00    -0.369 OA
ATOM     20  H4  UNL     1      54.173  54.981   8.153  1.00  0.00     0.212 HD
ENDBRANCH  18  19
TORSDOF 1
ENDMDL
