MODEL 1
REMARK VINA RESULT: -6.868896793      0.000      0.000
REMARK  0 active torsions:
REMARK  status: ('A' for Active; 'I' for Inactive)
ROOT
HETATM    1  O1  UNL     1      54.972  55.351   6.148  1.00  0.00    -0.205 OA
HETATM    2  S1  UNL     1      53.919  55.657   7.212  1.00  0.00     0.234 S 
HETATM    3  O2  UNL     1      52.704  54.838   6.777  1.00  0.00    -0.205 OA
HETATM    4  N1  UNL     1      54.455  55.143   8.665  1.00  0.00    -0.314 N 
ATOM      5  H1  UNL     1      54.985  54.272   8.706  1.00  0.00     0.172 HD
HETATM    6  C1  UNL     1      54.226  55.834   9.854  1.00  0.00     0.093 C 
HETATM    7  C2  UNL     1      52.861  56.365  10.083  1.00  0.00     0.031 C 
HETATM    8  C3  UNL     1      52.950  57.861   9.937  1.00  0.00    -0.008 C 
HETATM    9  C4  UNL     1      52.090  58.395   8.850  1.00  0.00     0.006 C 
HETATM   10  C5  UNL     1      52.111  57.676   7.562  1.00  0.00     0.026 C 
HETATM   11  C6  UNL     1      53.466  57.352   7.009  1.00  0.00     0.175 C 
HETATM   12  C7  UNL     1      54.519  58.334   7.244  1.00  0.00     0.192 C 
HETATM   13  C8  UNL     1      54.748  58.934   8.537  1.00  0.00     0.057 C 
HETATM   14  C9  UNL     1      54.383  58.207   9.777  1.00  0.00    -0.005 C 
HETATM   15  C10 UNL     1      55.210  56.969   9.983  1.00  0.00     0.031 C 
HETATM   16  N2  UNL     1      54.398  59.445   6.273  1.00  0.00    -0.055 N 
ATOM     17  H21 UNL     1      53.571  60.024   6.420  1.00  0.00     0.279 HD
ATOM     18  H22 UNL     1      54.169  59.135   5.328  1.00  0.00     0.279 HD
HETATM   19  C11 UNL     1      55.629  60.178   6.349  1.00  0.00     0.244 C 
HETATM   20  C12 UNL     1      56.747  59.241   5.947  1.00  0.00     0.104 C 
HETATM   21  S2  UNL     1      56.089  57.645   6.577  1.00  0.00    -0.127 SA
ENDROOT
TORSDOF 0
ENDMDL
MODEL 2
REMARK VINA RESULT: -6.852518971      2.152      2.781
REMARK  0 active torsions:
REMARK  status: ('A' for Active; 'I' for Inactive)
ROOT
HETATM    1  O1  UNL     1      56.229  55.322   9.339  1.00  0.00    -0.205 OA
HETATM    2  S1  UNL     1      54.815  55.871   9.154  1.00  0.00     0.234 S 
HETATM    3  O2  UNL     1      53.925  54.849   9.860  1.00  0.00    -0.205 OA
HETATM    4  N1  UNL     1      54.699  57.323   9.889  1.00  0.00    -0.314 N 
ATOM      5  H1  UNL     1      55.188  57.458  10.774  1.00  0.00     0.172 HD
HETATM    6  C1  UNL     1      53.966  58.389   9.368  1.00  0.00     0.093 C 
HETATM    7  C2  UNL     1      52.618  58.091   8.830  1.00  0.00     0.031 C 
HETATM    8  C3  UNL     1      52.714  58.214   7.332  1.00  0.00    -0.008 C 
HETATM    9  C4  UNL     1      52.381  56.955   6.618  1.00  0.00     0.006 C 
HETATM   10  C5  UNL     1      52.969  55.709   7.145  1.00  0.00     0.026 C 
HETATM   11  C6  UNL     1      54.440  55.743   7.433  1.00  0.00     0.175 C 
HETATM   12  C7  UNL     1      55.262  56.541   6.531  1.00  0.00     0.192 C 
HETATM   13  C8  UNL     1      54.902  57.881   6.131  1.00  0.00     0.057 C 
HETATM   14  C9  UNL     1      54.068  58.729   7.016  1.00  0.00    -0.005 C 
HETATM   15  C10 UNL     1      54.767  59.085   8.298  1.00  0.00     0.031 C 
HETATM   16  N2  UNL     1      55.532  55.782   5.289  1.00  0.00    -0.055 N 
ATOM     17  H21 UNL     1      54.704  55.646   4.709  1.00  0.00     0.279 HD
ATOM     18  H22 UNL     1      55.735  54.796   5.452  1.00  0.00     0.279 HD
HETATM   19  C11 UNL     1      56.591  56.479   4.616  1.00  0.00     0.244 C 
HETATM   20  C12 UNL     1      57.801  56.458   5.523  1.00  0.00     0.104 C 
HETATM   21  S2  UNL     1      56.988  56.511   7.170  1.00  0.00    -0.127 SA
ENDROOT
TORSDOF 0
ENDMDL
MODEL 3
REMARK VINA RESULT: -6.366944459      2.171      4.150
REMARK  0 active torsions:
REMARK  status: ('A' for Active; 'I' for Inactive)
ROOT
HETATM    1  O1  UNL     1      56.160  55.774   9.335  1.00  0.00    -0.205 OA
HETATM    2  S1  UNL     1      56.023  56.470   7.980  1.00  0.00     0.234 S 
HETATM    3  O2  UNL     1      57.399  57.090   7.742  1.00  0.00    -0.205 OA
HETATM    4  N1  UNL     1      55.698  55.356   6.832  1.00  0.00    -0.314 N 
ATOM      5  H1  UNL     1      56.157  54.447   6.896  1.00  0.00     0.172 HD
HETATM    6  C1  UNL     1      54.826  55.585   5.769  1.00  0.00     0.093 C 
HETATM    7  C2  UNL     1      54.936  56.884   5.064  1.00  0.00     0.031 C 
HETATM    8  C3  UNL     1      53.718  57.685   5.444  1.00  0.00    -0.008 C 
HETATM    9  C4  UNL     1      54.047  58.960   6.131  1.00  0.00     0.006 C 
HETATM   10  C5  UNL     1      55.071  58.907   7.191  1.00  0.00     0.026 C 
HETATM   11  C6  UNL     1      54.909  57.821   8.212  1.00  0.00     0.175 C 
HETATM   12  C7  UNL     1      53.543  57.475   8.585  1.00  0.00     0.192 C 
HETATM   13  C8  UNL     1      52.500  57.265   7.608  1.00  0.00     0.057 C 
HETATM   14  C9  UNL     1      52.835  56.799   6.241  1.00  0.00    -0.005 C 
HETATM   15  C10 UNL     1      53.402  55.407   6.230  1.00  0.00     0.031 C 
HETATM   16  N2  UNL     1      53.021  58.458   9.561  1.00  0.00    -0.055 N 
ATOM     17  H21 UNL     1      52.874  59.385   9.163  1.00  0.00     0.279 HD
ATOM     18  H22 UNL     1      53.706  58.731  10.266  1.00  0.00     0.279 HD
HETATM   19  C11 UNL     1      51.831  57.879  10.116  1.00  0.00     0.244 C 
HETATM   20  C12 UNL     1      52.228  56.597  10.814  1.00  0.00     0.104 C 
HETATM   21  S2  UNL     1      53.620  56.050   9.747  1.00  0.00    -0.127 SA
ENDROOT
TORSDOF 0
ENDMDL
MODEL 4
REMARK VINA RESULT: -6.357707374      2.117      2.716
REMARK  0 active torsions:
REMARK  status: ('A' for Active; 'I' for Inactive)
ROOT
HETATM    1  O1  UNL     1      57.549  57.786   9.397  1.00  0.00    -0.205 OA
HETATM    2  S1  UNL     1      56.399  56.827   9.090  1.00  0.00     0.234 S 
HETATM    3  O2  UNL     1      57.055  55.447   9.098  1.00  0.00    -0.205 OA
HETATM    4  N1  UNL     1      55.281  56.929  10.274  1.00  0.00    -0.314 N 
ATOM      5  H1  UNL     1      55.603  57.049  11.235  1.00  0.00     0.172 HD
HETATM    6  C1  UNL     1      53.908  56.858  10.040  1.00  0.00     0.093 C 
HETATM    7  C2  UNL     1      53.428  55.810   9.109  1.00  0.00     0.031 C 
HETATM    8  C3  UNL     1      52.994  56.516   7.851  1.00  0.00    -0.008 C 
HETATM    9  C4  UNL     1      53.750  56.086   6.647  1.00  0.00     0.006 C 
HETATM   10  C5  UNL     1      55.215  55.969   6.781  1.00  0.00     0.026 C 
HETATM   11  C6  UNL     1      55.915  57.131   7.419  1.00  0.00     0.175 C 
HETATM   12  C7  UNL     1      55.374  58.455   7.133  1.00  0.00     0.192 C 
HETATM   13  C8  UNL     1      53.962  58.750   7.205  1.00  0.00     0.057 C 
HETATM   14  C9  UNL     1      53.079  57.974   8.110  1.00  0.00    -0.005 C 
HETATM   15  C10 UNL     1      53.403  58.195   9.560  1.00  0.00     0.031 C 
HETATM   16  N2  UNL     1      55.839  58.915   5.805  1.00  0.00    -0.055 N 
ATOM     17  H21 UNL     1      55.441  58.384   5.030  1.00  0.00     0.279 HD
ATOM     18  H22 UNL     1      56.817  58.696   5.620  1.00  0.00     0.279 HD
HETATM   19  C11 UNL     1      55.547  60.319   5.743  1.00  0.00     0.244 C 
HETATM   20  C12 UNL     1      56.331  60.999   6.844  1.00  0.00     0.104 C 
HETATM   21  S2  UNL     1      56.329  59.678   8.122  1.00  0.00    -0.127 SA
ENDROOT
TORSDOF 0
ENDMDL
MODEL 5
REMARK VINA RESULT: -6.354192719      2.324      3.543
REMARK  0 active torsions:
REMARK  status: ('A' for Active; 'I' for Inactive)
ROOT
HETATM    1  O1  UNL     1      55.650  58.176   4.999  1.00  0.00    -0.205 OA
HETATM    2  S1  UNL     1      54.705  58.540   6.145  1.00  0.00     0.234 S 
HETATM    3  O2  UNL     1      54.639  60.066   6.099  1.00  0.00    -0.205 OA
HETATM    4  N1  UNL     1      53.232  57.902   5.854  1.00  0.00    -0.314 N 
ATOM      5  H1  UNL     1      52.890  57.892   4.893  1.00  0.00     0.172 HD
HETATM    6  C1  UNL     1      52.418  57.369   6.852  1.00  0.00     0.093 C 
HETATM    7  C2  UNL     1      52.292  58.137   8.112  1.00  0.00     0.031 C 
HETATM    8  C3  UNL     1      53.050  57.370   9.163  1.00  0.00    -0.008 C 
HETATM    9  C4  UNL     1      54.167  58.144   9.762  1.00  0.00     0.006 C 
HETATM   10  C5  UNL     1      55.039  58.890   8.835  1.00  0.00     0.026 C 
HETATM   11  C6  UNL     1      55.543  58.130   7.645  1.00  0.00     0.175 C 
HETATM   12  C7  UNL     1      55.842  56.718   7.852  1.00  0.00     0.192 C 
HETATM   13  C8  UNL     1      54.942  55.826   8.545  1.00  0.00     0.057 C 
HETATM   14  C9  UNL     1      53.482  56.090   8.552  1.00  0.00    -0.005 C 
HETATM   15  C10 UNL     1      52.869  55.970   7.185  1.00  0.00     0.031 C 
HETATM   16  N2  UNL     1      57.167  56.571   8.496  1.00  0.00    -0.055 N 
ATOM     17  H21 UNL     1      57.189  56.907   9.459  1.00  0.00     0.279 HD
ATOM     18  H22 UNL     1      57.871  57.209   8.124  1.00  0.00     0.279 HD
HETATM   19  C11 UNL     1      57.525  55.188   8.365  1.00  0.00     0.244 C 
HETATM   20  C12 UNL     1      57.615  54.875   6.888  1.00  0.00     0.104 C 
HETATM   21  S2  UNL     1      56.320  55.999   6.227  1.00  0.00    -0.127 SA
ENDROOT
TORSDOF 0
ENDMDL
