MODEL 1
REMARK VINA RESULT: -7.510837342      0.000      0.000
REMARK  1 active torsions:
REMARK  status: ('A' for Active; 'I' for Inactive)
REMARK    1  A    between atoms: C13_17  and  O3_18 
ROOT
HETATM    1  O1  UNL     1      57.320  57.931   6.042  1.00  0.00    -0.273 OA
HETATM    2  C1  UNL     1      56.550  57.019   5.580  1.00  0.00     0.224 C 
HETATM    3  C2  UNL     1      56.853  55.659   6.100  1.00  0.00     0.103 C 
HETATM    4  C3  UNL     1      57.548  55.716   7.451  1.00  0.00     0.009 C 
HETATM    5  C4  UNL     1      56.652  55.383   8.600  1.00  0.00     0.000 C 
HETATM    6  C5  UNL     1      56.174  56.635   9.313  1.00  0.00     0.000 C 
HETATM    7  C6  UNL     1      55.184  56.323  10.393  1.00  0.00     0.000 C 
HETATM    8  C7  UNL     1      53.911  55.824   9.752  1.00  0.00     0.000 C 
HETATM    9  C8  UNL     1      52.778  56.772  10.052  1.00  0.00     0.000 C 
HETATM   10  C9  UNL     1      52.790  58.028   9.230  1.00  0.00     0.000 C 
HETATM   11  C10 UNL     1      51.969  57.839   7.985  1.00  0.00     0.009 C 
HETATM   12  C11 UNL     1      52.838  57.476   6.777  1.00  0.00     0.103 C 
HETATM   13  C12 UNL     1      52.302  56.252   6.125  1.00  0.00     0.223 C 
HETATM   14  O2  UNL     1      51.010  56.210   6.168  1.00  0.00    -0.273 OA
HETATM   15  N1  UNL     1      53.035  55.220   5.513  1.00  0.00    -0.303 N 
ATOM     16  H1  UNL     1      52.850  54.287   5.881  1.00  0.00     0.171 HD
HETATM   17  C13 UNL     1      53.984  55.270   4.470  1.00  0.00     0.212 C 
HETATM   18  C14 UNL     1      54.704  56.412   3.944  1.00  0.00     0.299 C 
HETATM   19  O4  UNL     1      54.577  56.605   2.665  1.00  0.00    -0.263 OA
HETATM   20  N2  UNL     1      55.516  57.325   4.660  1.00  0.00    -0.290 N 
ATOM     21  H2  UNL     1      55.336  58.316   4.496  1.00  0.00     0.172 HD
ENDROOT
BRANCH  17  22
HETATM   22  O3  UNL     1      54.278  54.148   3.875  1.00  0.00    -0.342 OA
ATOM     23  H3  UNL     1      54.985  54.163   3.241  1.00  0.00     0.219 HD
ENDBRANCH  17  22
TORSDOF 1
ENDMDL
MODEL 2
REMARK VINA RESULT: -7.248832429      1.562      1.767
REMARK  1 active torsions:
REMARK  status: ('A' for Active; 'I' for Inactive)
REMARK    1  A    between atoms: C13_17  and  O3_18 
ROOT
HETATM    1  O1  UNL     1      56.773  60.142   7.112  1.00  0.00    -0.273 OA
HETATM    2  C1  UNL     1      56.267  59.274   6.320  1.00  0.00     0.224 C 
HETATM    3  C2  UNL     1      56.998  57.979   6.303  1.00  0.00     0.103 C 
HETATM    4  C3  UNL     1      57.760  57.748   7.599  1.00  0.00     0.009 C 
HETATM    5  C4  UNL     1      57.105  56.764   8.513  1.00  0.00     0.000 C 
HETATM    6  C5  UNL     1      56.345  57.461   9.626  1.00  0.00     0.000 C 
HETATM    7  C6  UNL     1      55.587  56.492  10.482  1.00  0.00     0.000 C 
HETATM    8  C7  UNL     1      54.465  55.900   9.662  1.00  0.00     0.000 C 
HETATM    9  C8  UNL     1      53.135  56.281  10.260  1.00  0.00     0.000 C 
HETATM   10  C9  UNL     1      52.707  57.690   9.967  1.00  0.00     0.000 C 
HETATM   11  C10 UNL     1      51.873  57.728   8.717  1.00  0.00     0.009 C 
HETATM   12  C11 UNL     1      52.702  58.112   7.488  1.00  0.00     0.103 C 
HETATM   13  C12 UNL     1      52.493  57.110   6.410  1.00  0.00     0.223 C 
HETATM   14  O2  UNL     1      51.279  56.664   6.395  1.00  0.00    -0.273 OA
HETATM   15  N1  UNL     1      53.440  56.647   5.480  1.00  0.00    -0.303 N 
ATOM     16  H1  UNL     1      53.569  55.635   5.468  1.00  0.00     0.171 HD
HETATM   17  C13 UNL     1      54.239  57.359   4.560  1.00  0.00     0.212 C 
HETATM   18  C14 UNL     1      54.544  58.775   4.521  1.00  0.00     0.299 C 
HETATM   19  O4  UNL     1      54.257  59.372   3.402  1.00  0.00    -0.263 OA
HETATM   20  N2  UNL     1      55.113  59.564   5.550  1.00  0.00    -0.290 N 
ATOM     21  H2  UNL     1      54.637  60.442   5.762  1.00  0.00     0.172 HD
ENDROOT
BRANCH  17  22
HETATM   22  O3  UNL     1      54.796  56.677   3.598  1.00  0.00    -0.342 OA
ATOM     23  H3  UNL     1      55.714  56.843   3.421  1.00  0.00     0.219 HD
ENDBRANCH  17  22
TORSDOF 1
ENDMDL
MODEL 3
REMARK VINA RESULT: -6.875855476      1.252      4.245
REMARK  1 active torsions:
REMARK  status: ('A' for Active; 'I' for Inactive)
REMARK    1  A    between atoms: C13_17  and  O3_18 
ROOT
HETATM    1  O1  UNL     1      52.208  54.349   6.397  1.00  0.00    -0.273 OA
HETATM    2  C1  UNL     1      53.007  55.051   5.685  1.00  0.00     0.224 C 
HETATM    3  C2  UNL     1      52.519  56.430   5.419  1.00  0.00     0.103 C 
HETATM    4  C3  UNL     1      51.548  56.898   6.490  1.00  0.00     0.009 C 
HETATM    5  C4  UNL     1      52.146  57.862   7.463  1.00  0.00     0.000 C 
HETATM    6  C5  UNL     1      52.526  57.177   8.763  1.00  0.00     0.000 C 
HETATM    7  C6  UNL     1      53.233  58.105   9.702  1.00  0.00     0.000 C 
HETATM    8  C7  UNL     1      54.585  58.442   9.122  1.00  0.00     0.000 C 
HETATM    9  C8  UNL     1      55.676  57.932  10.028  1.00  0.00     0.000 C 
HETATM   10  C9  UNL     1      55.919  56.453   9.932  1.00  0.00     0.000 C 
HETATM   11  C10 UNL     1      56.982  56.169   8.909  1.00  0.00     0.009 C 
HETATM   12  C11 UNL     1      56.382  55.790   7.551  1.00  0.00     0.103 C 
HETATM   13  C12 UNL     1      56.979  56.637   6.486  1.00  0.00     0.223 C 
HETATM   14  O2  UNL     1      58.224  56.897   6.717  1.00  0.00    -0.273 OA
HETATM   15  N1  UNL     1      56.342  57.138   5.337  1.00  0.00    -0.303 N 
ATOM     16  H1  UNL     1      56.386  58.152   5.230  1.00  0.00     0.171 HD
HETATM   17  C13 UNL     1      55.651  56.463   4.309  1.00  0.00     0.212 C 
HETATM   18  C14 UNL     1      55.132  55.110   4.294  1.00  0.00     0.299 C 
HETATM   19  O4  UNL     1      55.549  54.368   3.311  1.00  0.00    -0.263 OA
HETATM   20  N2  UNL     1      54.235  54.519   5.217  1.00  0.00    -0.290 N 
ATOM     21  H2  UNL     1      54.503  53.607   5.587  1.00  0.00     0.172 HD
ENDROOT
BRANCH  17  22
HETATM   22  O3  UNL     1      55.432  57.119   3.204  1.00  0.00    -0.342 OA
ATOM     23  H3  UNL     1      56.127  57.683   2.886  1.00  0.00     0.219 HD
ENDBRANCH  17  22
TORSDOF 1
ENDMDL
MODEL 4
REMARK VINA RESULT: -6.588443341      1.900      4.521
REMARK  1 active torsions:
REMARK  status: ('A' for Active; 'I' for Inactive)
REMARK    1  A    between atoms: C13_17  and  O3_18 
ROOT
HETATM    1  O1  UNL     1      54.847  54.544   4.896  1.00  0.00    -0.273 OA
HETATM    2  C1  UNL     1      55.735  55.384   5.274  1.00  0.00     0.224 C 
HETATM    3  C2  UNL     1      55.494  56.769   4.788  1.00  0.00     0.103 C 
HETATM    4  C3  UNL     1      54.022  57.014   4.497  1.00  0.00     0.009 C 
HETATM    5  C4  UNL     1      53.331  57.824   5.545  1.00  0.00     0.000 C 
HETATM    6  C5  UNL     1      52.522  56.945   6.482  1.00  0.00     0.000 C 
HETATM    7  C6  UNL     1      51.918  57.730   7.607  1.00  0.00     0.000 C 
HETATM    8  C7  UNL     1      53.028  58.211   8.511  1.00  0.00     0.000 C 
HETATM    9  C8  UNL     1      52.878  57.598   9.880  1.00  0.00     0.000 C 
HETATM   10  C9  UNL     1      53.322  56.167   9.969  1.00  0.00     0.000 C 
HETATM   11  C10 UNL     1      54.768  56.098  10.372  1.00  0.00     0.009 C 
HETATM   12  C11 UNL     1      55.692  55.928   9.162  1.00  0.00     0.103 C 
HETATM   13  C12 UNL     1      56.757  56.964   9.196  1.00  0.00     0.223 C 
HETATM   14  O2  UNL     1      57.134  57.229  10.405  1.00  0.00    -0.273 OA
HETATM   15  N1  UNL     1      57.340  57.626   8.101  1.00  0.00    -0.303 N 
ATOM     16  H1  UNL     1      57.287  58.644   8.138  1.00  0.00     0.171 HD
HETATM   17  C13 UNL     1      57.986  57.106   6.960  1.00  0.00     0.212 C 
HETATM   18  C14 UNL     1      57.964  55.756   6.434  1.00  0.00     0.299 C 
HETATM   19  O4  UNL     1      59.131  55.205   6.273  1.00  0.00    -0.263 OA
HETATM   20  N2  UNL     1      56.829  54.985   6.081  1.00  0.00    -0.290 N 
ATOM     21  H2  UNL     1      56.795  54.035   6.451  1.00  0.00     0.172 HD
ENDROOT
BRANCH  17  22
HETATM   22  O3  UNL     1      58.714  57.928   6.257  1.00  0.00    -0.342 OA
ATOM     23  H3  UNL     1      59.012  57.629   5.406  1.00  0.00     0.219 HD
ENDBRANCH  17  22
TORSDOF 1
ENDMDL
MODEL 5
REMARK VINA RESULT: -6.365211599      1.139      1.177
REMARK  1 active torsions:
REMARK  status: ('A' for Active; 'I' for Inactive)
REMARK    1  A    between atoms: C13_17  and  O3_18 
ROOT
HETATM    1  O1  UNL     1      57.827  59.045   6.689  1.00  0.00    -0.273 OA
HETATM    2  C1  UNL     1      57.305  58.097   6.008  1.00  0.00     0.224 C 
HETATM    3  C2  UNL     1      57.796  56.745   6.388  1.00  0.00     0.103 C 
HETATM    4  C3  UNL     1      58.303  56.714   7.821  1.00  0.00     0.009 C 
HETATM    5  C4  UNL     1      57.358  56.062   8.777  1.00  0.00     0.000 C 
HETATM    6  C5  UNL     1      56.570  57.090   9.568  1.00  0.00     0.000 C 
HETATM    7  C6  UNL     1      55.536  56.453  10.446  1.00  0.00     0.000 C 
HETATM    8  C7  UNL     1      54.466  55.847   9.570  1.00  0.00     0.000 C 
HETATM    9  C8  UNL     1      53.147  56.531   9.822  1.00  0.00     0.000 C 
HETATM   10  C9  UNL     1      53.017  57.881   9.178  1.00  0.00     0.000 C 
HETATM   11  C10 UNL     1      52.400  57.747   7.814  1.00  0.00     0.009 C 
HETATM   12  C11 UNL     1      53.458  57.725   6.707  1.00  0.00     0.103 C 
HETATM   13  C12 UNL     1      53.245  56.541   5.833  1.00  0.00     0.223 C 
HETATM   14  O2  UNL     1      51.989  56.272   5.684  1.00  0.00    -0.273 OA
HETATM   15  N1  UNL     1      54.227  55.755   5.206  1.00  0.00    -0.303 N 
ATOM     16  H1  UNL     1      54.181  54.759   5.422  1.00  0.00     0.171 HD
HETATM   17  C13 UNL     1      55.266  56.124   4.326  1.00  0.00     0.212 C 
HETATM   18  C14 UNL     1      55.813  57.439   4.059  1.00  0.00     0.299 C 
HETATM   19  O4  UNL     1      55.805  57.799   2.810  1.00  0.00    -0.263 OA
HETATM   20  N2  UNL     1      56.347  58.358   4.996  1.00  0.00    -0.290 N 
ATOM     21  H2  UNL     1      56.004  59.317   4.936  1.00  0.00     0.172 HD
ENDROOT
BRANCH  17  22
HETATM   22  O3  UNL     1      55.836  55.173   3.640  1.00  0.00    -0.342 OA
ATOM     23  H3  UNL     1      55.972  55.325   2.713  1.00  0.00     0.219 HD
ENDBRANCH  17  22
TORSDOF 1
ENDMDL
