MODEL 1
REMARK VINA RESULT: -7.127129905      0.000      0.000
REMARK  2 active torsions:
REMARK  status: ('A' for Active; 'I' for Inactive)
REMARK    1  A    between atoms: C5_6  and  N2_7 
REMARK    2  A    between atoms: N3_15  and  O1_16 
ROOT
HETATM    1  C1  UNL     1      57.016  53.453   4.541  1.00  0.00     0.052 C 
HETATM    2  C2  UNL     1      56.080  54.530   4.898  1.00  0.00    -0.015 C 
HETATM    3  C3  UNL     1      55.004  54.794   4.058  1.00  0.00     0.056 C 
HETATM    4  N1  UNL     1      54.775  53.840   3.051  1.00  0.00    -0.102 NA
HETATM    5  C4  UNL     1      54.126  55.888   4.085  1.00  0.00     0.057 C 
HETATM    6  C5  UNL     1      54.035  56.832   5.089  1.00  0.00     0.041 C 
HETATM    7  C6  UNL     1      54.453  56.655   6.389  1.00  0.00     0.032 A 
HETATM    8  C7  UNL     1      53.655  57.345   7.277  1.00  0.00    -0.017 A 
HETATM    9  C8  UNL     1      53.996  57.249   8.614  1.00  0.00    -0.022 A 
HETATM   10  C9  UNL     1      55.073  56.498   9.024  1.00  0.00     0.044 A 
HETATM   11  C10 UNL     1      55.402  56.423  10.466  1.00  0.00     0.071 C 
HETATM   12  N3  UNL     1      55.854  55.820   8.162  1.00  0.00    -0.227 N 
HETATM   13  C11 UNL     1      55.539  55.906   6.874  1.00  0.00     0.097 A 
HETATM   14  C12 UNL     1      56.406  55.188   6.074  1.00  0.00     0.082 C 
HETATM   15  C13 UNL     1      57.770  55.167   6.519  1.00  0.00     0.102 C 
HETATM   16  N4  UNL     1      58.918  55.154   6.836  1.00  0.00    -0.191 NA
HETATM   17  C14 UNL     1      53.029  58.072   9.399  1.00  0.00     0.045 C 
HETATM   18  C15 UNL     1      51.826  58.177   8.486  1.00  0.00     0.033 C 
HETATM   19  C16 UNL     1      52.504  58.147   7.136  1.00  0.00    -0.013 C 
ENDROOT
BRANCH  12  20
HETATM   20  O1  UNL     1      56.895  55.049   8.564  1.00  0.00    -0.282 OA
ATOM     21  H1  UNL     1      57.014  54.153   8.274  1.00  0.00     0.245 HD
ENDBRANCH  12  20
BRANCH   6  22
HETATM   22  N2  UNL     1      53.556  57.997   4.865  1.00  0.00    -0.398 N 
ATOM     23  H22 UNL     1      52.783  58.241   5.485  1.00  0.00     0.156 HD
ATOM     24  H21 UNL     1      53.947  58.601   4.142  1.00  0.00     0.156 HD
ENDBRANCH   6  22
TORSDOF 2
ENDMDL
MODEL 2
REMARK VINA RESULT: -6.782048766      1.862      4.107
REMARK  2 active torsions:
REMARK  status: ('A' for Active; 'I' for Inactive)
REMARK    1  A    between atoms: C5_6  and  N2_7 
REMARK    2  A    between atoms: N3_15  and  O1_16 
ROOT
HETATM    1  C1  UNL     1      59.523  56.053   7.403  1.00  0.00     0.052 C 
HETATM    2  C2  UNL     1      58.177  56.284   7.949  1.00  0.00    -0.015 C 
HETATM    3  C3  UNL     1      58.043  57.006   9.130  1.00  0.00     0.056 C 
HETATM    4  N1  UNL     1      59.206  57.657   9.575  1.00  0.00    -0.102 NA
HETATM    5  C4  UNL     1      56.901  57.162   9.931  1.00  0.00     0.057 C 
HETATM    6  C5  UNL     1      55.615  56.784   9.595  1.00  0.00     0.041 C 
HETATM    7  C6  UNL     1      55.150  56.595   8.313  1.00  0.00     0.032 A 
HETATM    8  C7  UNL     1      53.821  56.945   8.199  1.00  0.00    -0.017 A 
HETATM    9  C8  UNL     1      53.246  56.778   6.951  1.00  0.00    -0.022 A 
HETATM   10  C9  UNL     1      53.973  56.294   5.889  1.00  0.00     0.044 A 
HETATM   11  C10 UNL     1      53.317  56.132   4.571  1.00  0.00     0.071 C 
HETATM   12  N3  UNL     1      55.272  55.954   5.994  1.00  0.00    -0.227 N 
HETATM   13  C11 UNL     1      55.836  56.106   7.188  1.00  0.00     0.097 A 
HETATM   14  C12 UNL     1      57.161  55.718   7.194  1.00  0.00     0.082 C 
HETATM   15  C13 UNL     1      57.473  54.603   6.347  1.00  0.00     0.102 C 
HETATM   16  N4  UNL     1      57.766  53.658   5.682  1.00  0.00    -0.191 NA
HETATM   17  C14 UNL     1      51.815  57.194   7.042  1.00  0.00     0.045 C 
HETATM   18  C15 UNL     1      51.784  58.104   8.251  1.00  0.00     0.033 C 
HETATM   19  C16 UNL     1      52.871  57.478   9.093  1.00  0.00    -0.013 C 
ENDROOT
BRANCH  12  20
HETATM   20  O1  UNL     1      56.002  55.510   4.941  1.00  0.00    -0.282 OA
ATOM     21  H1  UNL     1      56.499  56.091   4.378  1.00  0.00     0.245 HD
ENDBRANCH  12  20
BRANCH   6  22
HETATM   22  N2  UNL     1      54.734  56.553  10.493  1.00  0.00    -0.398 N 
ATOM     23  H22 UNL     1      54.766  57.214  11.270  1.00  0.00     0.156 HD
ATOM     24  H21 UNL     1      54.070  55.785  10.398  1.00  0.00     0.156 HD
ENDBRANCH   6  22
TORSDOF 2
ENDMDL
MODEL 3
REMARK VINA RESULT: -6.482369080      2.361      4.220
REMARK  2 active torsions:
REMARK  status: ('A' for Active; 'I' for Inactive)
REMARK    1  A    between atoms: C5_6  and  N2_7 
REMARK    2  A    between atoms: N3_15  and  O1_16 
ROOT
HETATM    1  C1  UNL     1      58.693  57.578   9.553  1.00  0.00     0.052 C 
HETATM    2  C2  UNL     1      57.814  56.966   8.543  1.00  0.00    -0.015 C 
HETATM    3  C3  UNL     1      58.207  55.778   7.938  1.00  0.00     0.056 C 
HETATM    4  N1  UNL     1      59.314  55.139   8.524  1.00  0.00    -0.102 NA
HETATM    5  C4  UNL     1      57.645  55.142   6.821  1.00  0.00     0.057 C 
HETATM    6  C5  UNL     1      56.451  55.474   6.212  1.00  0.00     0.041 C 
HETATM    7  C6  UNL     1      55.419  56.167   6.807  1.00  0.00     0.032 A 
HETATM    8  C7  UNL     1      54.191  55.752   6.336  1.00  0.00    -0.017 A 
HETATM    9  C8  UNL     1      53.083  56.395   6.858  1.00  0.00    -0.022 A 
HETATM   10  C9  UNL     1      53.212  57.391   7.798  1.00  0.00     0.044 A 
HETATM   11  C10 UNL     1      51.998  58.052   8.329  1.00  0.00     0.071 C 
HETATM   12  N3  UNL     1      54.408  57.798   8.264  1.00  0.00    -0.227 N 
HETATM   13  C11 UNL     1      55.482  57.190   7.768  1.00  0.00     0.097 A 
HETATM   14  C12 UNL     1      56.655  57.688   8.298  1.00  0.00     0.082 C 
HETATM   15  C13 UNL     1      56.648  59.094   8.584  1.00  0.00     0.102 C 
HETATM   16  N4  UNL     1      56.692  60.264   8.803  1.00  0.00    -0.191 NA
HETATM   17  C14 UNL     1      51.867  55.816   6.214  1.00  0.00     0.045 C 
HETATM   18  C15 UNL     1      52.331  54.462   5.726  1.00  0.00     0.033 C 
HETATM   19  C16 UNL     1      53.780  54.763   5.420  1.00  0.00    -0.013 C 
ENDROOT
BRANCH  12  20
HETATM   20  O1  UNL     1      54.539  58.754   9.216  1.00  0.00    -0.282 OA
ATOM     21  H1  UNL     1      55.002  59.570   9.066  1.00  0.00     0.245 HD
ENDBRANCH  12  20
BRANCH   6  22
HETATM   22  N2  UNL     1      56.217  55.168   4.993  1.00  0.00    -0.398 N 
ATOM     23  H22 UNL     1      57.033  54.792   4.508  1.00  0.00     0.156 HD
ATOM     24  H21 UNL     1      55.289  55.284   4.585  1.00  0.00     0.156 HD
ENDBRANCH   6  22
TORSDOF 2
ENDMDL
MODEL 4
REMARK VINA RESULT: -6.388458080      1.596      4.815
REMARK  2 active torsions:
REMARK  status: ('A' for Active; 'I' for Inactive)
REMARK    1  A    between atoms: C5_6  and  N2_7 
REMARK    2  A    between atoms: N3_15  and  O1_16 
ROOT
HETATM    1  C1  UNL     1      53.159  58.301   9.252  1.00  0.00     0.052 C 
HETATM    2  C2  UNL     1      53.286  57.301   8.180  1.00  0.00    -0.015 C 
HETATM    3  C3  UNL     1      52.226  57.120   7.298  1.00  0.00     0.056 C 
HETATM    4  N1  UNL     1      51.208  58.086   7.370  1.00  0.00    -0.102 NA
HETATM    5  C4  UNL     1      52.044  56.098   6.353  1.00  0.00     0.057 C 
HETATM    6  C5  UNL     1      52.991  55.167   5.972  1.00  0.00     0.041 C 
HETATM    7  C6  UNL     1      54.353  55.315   6.106  1.00  0.00     0.032 A 
HETATM    8  C7  UNL     1      55.034  54.692   5.081  1.00  0.00    -0.017 A 
HETATM    9  C8  UNL     1      56.415  54.765   5.126  1.00  0.00    -0.022 A 
HETATM   10  C9  UNL     1      57.062  55.430   6.141  1.00  0.00     0.044 A 
HETATM   11  C10 UNL     1      58.542  55.484   6.150  1.00  0.00     0.071 C 
HETATM   12  N3  UNL     1      56.402  56.043   7.143  1.00  0.00    -0.227 N 
HETATM   13  C11 UNL     1      55.075  55.977   7.113  1.00  0.00     0.097 A 
HETATM   14  C12 UNL     1      54.495  56.623   8.187  1.00  0.00     0.082 C 
HETATM   15  C13 UNL     1      55.229  56.538   9.417  1.00  0.00     0.102 C 
HETATM   16  N4  UNL     1      55.791  56.462  10.465  1.00  0.00    -0.191 NA
HETATM   17  C14 UNL     1      56.956  54.023   3.949  1.00  0.00     0.045 C 
HETATM   18  C15 UNL     1      55.801  54.009   2.973  1.00  0.00     0.033 C 
HETATM   19  C16 UNL     1      54.633  53.982   3.931  1.00  0.00    -0.013 C 
ENDROOT
BRANCH  12  20
HETATM   20  O1  UNL     1      57.034  56.731   8.126  1.00  0.00    -0.282 OA
ATOM     21  H1  UNL     1      57.573  57.493   7.955  1.00  0.00     0.245 HD
ENDBRANCH  12  20
BRANCH   6  22
HETATM   22  N2  UNL     1      52.651  54.043   5.465  1.00  0.00    -0.398 N 
ATOM     23  H22 UNL     1      53.305  53.704   4.759  1.00  0.00     0.156 HD
ATOM     24  H21 UNL     1      51.810  53.554   5.775  1.00  0.00     0.156 HD
ENDBRANCH   6  22
TORSDOF 2
ENDMDL
MODEL 5
REMARK VINA RESULT: -6.305397213      2.241      4.098
REMARK  2 active torsions:
REMARK  status: ('A' for Active; 'I' for Inactive)
REMARK    1  A    between atoms: C5_6  and  N2_7 
REMARK    2  A    between atoms: N3_15  and  O1_16 
ROOT
HETATM    1  C1  UNL     1      59.402  57.385   7.634  1.00  0.00     0.052 C 
HETATM    2  C2  UNL     1      57.990  57.594   7.987  1.00  0.00    -0.015 C 
HETATM    3  C3  UNL     1      57.622  58.773   8.625  1.00  0.00     0.056 C 
HETATM    4  N1  UNL     1      58.610  59.772   8.666  1.00  0.00    -0.102 NA
HETATM    5  C4  UNL     1      56.397  59.089   9.234  1.00  0.00     0.057 C 
HETATM    6  C5  UNL     1      55.232  58.352   9.145  1.00  0.00     0.041 C 
HETATM    7  C6  UNL     1      54.933  57.452   8.146  1.00  0.00     0.032 A 
HETATM    8  C7  UNL     1      53.582  57.429   7.872  1.00  0.00    -0.017 A 
HETATM    9  C8  UNL     1      53.168  56.545   6.892  1.00  0.00    -0.022 A 
HETATM   10  C9  UNL     1      54.066  55.741   6.230  1.00  0.00     0.044 A 
HETATM   11  C10 UNL     1      53.579  54.809   5.188  1.00  0.00     0.071 C 
HETATM   12  N3  UNL     1      55.387  55.761   6.492  1.00  0.00    -0.227 N 
HETATM   13  C11 UNL     1      55.798  56.603   7.434  1.00  0.00     0.097 A 
HETATM   14  C12 UNL     1      57.162  56.538   7.635  1.00  0.00     0.082 C 
HETATM   15  C13 UNL     1      57.739  55.233   7.486  1.00  0.00     0.102 C 
HETATM   16  N4  UNL     1      58.250  54.160   7.403  1.00  0.00    -0.191 NA
HETATM   17  C14 UNL     1      51.686  56.662   6.759  1.00  0.00     0.045 C 
HETATM   18  C15 UNL     1      51.384  58.033   7.324  1.00  0.00     0.033 C 
HETATM   19  C16 UNL     1      52.473  58.146   8.365  1.00  0.00    -0.013 C 
ENDROOT
BRANCH  12  20
HETATM   20  O1  UNL     1      56.281  54.995   5.818  1.00  0.00    -0.282 OA
ATOM     21  H1  UNL     1      56.053  54.159   5.430  1.00  0.00     0.245 HD
ENDBRANCH  12  20
BRANCH   6  22
HETATM   22  N2  UNL     1      54.319  58.442  10.035  1.00  0.00    -0.398 N 
ATOM     23  H22 UNL     1      53.598  59.127   9.807  1.00  0.00     0.156 HD
ATOM     24  H21 UNL     1      54.333  57.856  10.871  1.00  0.00     0.156 HD
ENDBRANCH   6  22
TORSDOF 2
ENDMDL
