MODEL 1
REMARK VINA RESULT: -5.796967294      0.000      0.000
REMARK  2 active torsions:
REMARK  status: ('A' for Active; 'I' for Inactive)
REMARK    1  A    between atoms: C2_2  and  N1_5 
REMARK       I    between atoms: C5_7  and  N2_8 
REMARK       I    between atoms: C5_7  and  N4_18 
REMARK       I    between atoms: N2_8  and  C6_10 
REMARK       I    between atoms: C6_10  and  N3_12 
REMARK    2  A    between atoms: N4_18  and  C11_20 
ROOT
HETATM    1  N1  UNL     1      53.262  56.057   7.077  1.00  0.00    -0.218 N 
ATOM      2  H1  UNL     1      53.109  55.395   7.838  1.00  0.00     0.178 HD
HETATM    3  C5  UNL     1      53.931  57.073   7.426  1.00  0.00     0.679 C 
HETATM    4  N2  UNL     1      54.237  58.080   6.526  1.00  0.00    -0.142 N 
ATOM      5  H2  UNL     1      53.911  57.990   5.564  1.00  0.00     0.189 HD
HETATM    6  C6  UNL     1      54.985  59.232   6.884  1.00  0.00     0.336 C 
HETATM    7  O1  UNL     1      55.425  59.425   8.048  1.00  0.00    -0.246 OA
HETATM    8  N3  UNL     1      55.284  60.254   5.922  1.00  0.00    -0.330 N 
HETATM    9  C7  UNL     1      54.821  60.080   4.584  1.00  0.00     0.153 C 
HETATM   10  C8  UNL     1      55.250  61.130   3.621  1.00  0.00     0.187 C 
HETATM   11  O2  UNL     1      55.578  62.355   4.192  1.00  0.00    -0.388 OA
HETATM   12  C9  UNL     1      56.567  62.187   5.169  1.00  0.00     0.187 C 
HETATM   13  C10 UNL     1      56.025  61.398   6.331  1.00  0.00     0.153 C 
HETATM   14  N4  UNL     1      54.355  57.153   8.764  1.00  0.00    -0.218 N 
ATOM     15  H4  UNL     1      54.024  57.943   9.317  1.00  0.00     0.178 HD
ENDROOT
BRANCH   1  16
HETATM   16  C2  UNL     1      52.688  55.648   5.865  1.00  0.00     0.036 C 
HETATM   17  C1  UNL     1      53.342  56.199   4.622  1.00  0.00     0.038 C 
HETATM   18  C3  UNL     1      51.219  56.006   5.839  1.00  0.00     0.038 C 
HETATM   19  C4  UNL     1      52.773  54.105   5.843  1.00  0.00     0.038 C 
ENDBRANCH   1  16
BRANCH  14  20
HETATM   20  C11 UNL     1      55.220  56.207   9.411  1.00  0.00     0.036 C 
HETATM   21  C12 UNL     1      54.321  55.184  10.111  1.00  0.00     0.038 C 
HETATM   22  C13 UNL     1      55.987  56.886  10.555  1.00  0.00     0.038 C 
HETATM   23  C14 UNL     1      56.198  55.513   8.540  1.00  0.00     0.038 C 
ENDBRANCH  14  20
TORSDOF 2
ENDMDL
MODEL 2
REMARK VINA RESULT: -5.710650824      2.408      3.989
REMARK  2 active torsions:
REMARK  status: ('A' for Active; 'I' for Inactive)
REMARK    1  A    between atoms: C2_2  and  N1_5 
REMARK       I    between atoms: C5_7  and  N2_8 
REMARK       I    between atoms: C5_7  and  N4_18 
REMARK       I    between atoms: N2_8  and  C6_10 
REMARK       I    between atoms: C6_10  and  N3_12 
REMARK    2  A    between atoms: N4_18  and  C11_20 
ROOT
HETATM    1  N1  UNL     1      53.543  56.523   8.095  1.00  0.00    -0.218 N 
ATOM      2  H1  UNL     1      52.991  55.668   8.019  1.00  0.00     0.178 HD
HETATM    3  C5  UNL     1      54.487  56.584   7.253  1.00  0.00     0.679 C 
HETATM    4  N2  UNL     1      55.343  57.671   7.206  1.00  0.00    -0.142 N 
ATOM      5  H2  UNL     1      55.201  58.433   7.870  1.00  0.00     0.189 HD
HETATM    6  C6  UNL     1      56.410  57.772   6.276  1.00  0.00     0.336 C 
HETATM    7  O1  UNL     1      56.657  56.879   5.423  1.00  0.00    -0.246 OA
HETATM    8  N3  UNL     1      57.276  58.916   6.257  1.00  0.00    -0.330 N 
HETATM    9  C7  UNL     1      57.032  59.964   7.193  1.00  0.00     0.153 C 
HETATM   10  C8  UNL     1      57.907  61.159   7.051  1.00  0.00     0.187 C 
HETATM   11  O2  UNL     1      59.127  60.926   6.425  1.00  0.00    -0.388 OA
HETATM   12  C9  UNL     1      58.923  60.346   5.166  1.00  0.00     0.187 C 
HETATM   13  C10 UNL     1      58.341  58.965   5.315  1.00  0.00     0.153 C 
HETATM   14  N4  UNL     1      54.643  55.508   6.362  1.00  0.00    -0.218 N 
ATOM     15  H4  UNL     1      55.524  54.995   6.393  1.00  0.00     0.178 HD
ENDROOT
BRANCH   1  16
HETATM   16  C2  UNL     1      53.096  57.381   9.110  1.00  0.00     0.036 C 
HETATM   17  C1  UNL     1      54.105  58.397   9.586  1.00  0.00     0.038 C 
HETATM   18  C3  UNL     1      52.620  56.578  10.298  1.00  0.00     0.038 C 
HETATM   19  C4  UNL     1      51.861  58.117   8.543  1.00  0.00     0.038 C 
ENDBRANCH   1  16
BRANCH  14  20
HETATM   20  C11 UNL     1      53.657  55.076   5.412  1.00  0.00     0.036 C 
HETATM   21  C12 UNL     1      54.350  54.096   4.461  1.00  0.00     0.038 C 
HETATM   22  C13 UNL     1      53.239  56.248   4.513  1.00  0.00     0.038 C 
HETATM   23  C14 UNL     1      52.432  54.459   5.975  1.00  0.00     0.038 C 
ENDBRANCH  14  20
TORSDOF 2
ENDMDL
MODEL 3
REMARK VINA RESULT: -5.604073819      3.013      4.413
REMARK  2 active torsions:
REMARK  status: ('A' for Active; 'I' for Inactive)
REMARK    1  A    between atoms: C2_2  and  N1_5 
REMARK       I    between atoms: C5_7  and  N2_8 
REMARK       I    between atoms: C5_7  and  N4_18 
REMARK       I    between atoms: N2_8  and  C6_10 
REMARK       I    between atoms: C6_10  and  N3_12 
REMARK    2  A    between atoms: N4_18  and  C11_20 
ROOT
HETATM    1  N1  UNL     1      53.495  56.473   8.061  1.00  0.00    -0.218 N 
ATOM      2  H1  UNL     1      52.800  55.757   7.850  1.00  0.00     0.178 HD
HETATM    3  C5  UNL     1      54.554  56.359   7.376  1.00  0.00     0.679 C 
HETATM    4  N2  UNL     1      55.610  57.242   7.526  1.00  0.00    -0.142 N 
ATOM      5  H2  UNL     1      55.522  57.997   8.207  1.00  0.00     0.189 HD
HETATM    6  C6  UNL     1      56.811  57.143   6.775  1.00  0.00     0.336 C 
HETATM    7  O1  UNL     1      57.004  56.243   5.916  1.00  0.00    -0.246 OA
HETATM    8  N3  UNL     1      57.883  58.079   6.958  1.00  0.00    -0.330 N 
HETATM    9  C7  UNL     1      57.711  59.127   7.910  1.00  0.00     0.153 C 
HETATM   10  C8  UNL     1      58.822  60.114   7.976  1.00  0.00     0.187 C 
HETATM   11  O2  UNL     1      60.053  59.647   7.527  1.00  0.00    -0.388 OA
HETATM   12  C9  UNL     1      59.939  59.161   6.218  1.00  0.00     0.187 C 
HETATM   13  C10 UNL     1      59.072  57.930   6.192  1.00  0.00     0.153 C 
HETATM   14  N4  UNL     1      54.629  55.301   6.453  1.00  0.00    -0.218 N 
ATOM     15  H4  UNL     1      55.371  54.613   6.584  1.00  0.00     0.178 HD
ENDROOT
BRANCH   1  16
HETATM   16  C2  UNL     1      53.076  57.377   9.048  1.00  0.00     0.036 C 
HETATM   17  C1  UNL     1      54.093  58.420   9.441  1.00  0.00     0.038 C 
HETATM   18  C3  UNL     1      52.646  56.628  10.289  1.00  0.00     0.038 C 
HETATM   19  C4  UNL     1      51.818  58.078   8.489  1.00  0.00     0.038 C 
ENDBRANCH   1  16
BRANCH  14  20
HETATM   20  C11 UNL     1      53.741  55.115   5.341  1.00  0.00     0.036 C 
HETATM   21  C12 UNL     1      52.505  54.383   5.872  1.00  0.00     0.038 C 
HETATM   22  C13 UNL     1      54.356  54.137   4.330  1.00  0.00     0.038 C 
HETATM   23  C14 UNL     1      53.333  56.342   4.617  1.00  0.00     0.038 C 
ENDBRANCH  14  20
TORSDOF 2
ENDMDL
MODEL 4
REMARK VINA RESULT: -5.554926982      3.163      5.316
REMARK  2 active torsions:
REMARK  status: ('A' for Active; 'I' for Inactive)
REMARK    1  A    between atoms: C2_2  and  N1_5 
REMARK       I    between atoms: C5_7  and  N2_8 
REMARK       I    between atoms: C5_7  and  N4_18 
REMARK       I    between atoms: N2_8  and  C6_10 
REMARK       I    between atoms: C6_10  and  N3_12 
REMARK    2  A    between atoms: N4_18  and  C11_20 
ROOT
HETATM    1  N1  UNL     1      53.546  56.615   8.081  1.00  0.00    -0.218 N 
ATOM      2  H1  UNL     1      52.739  56.270   7.561  1.00  0.00     0.178 HD
HETATM    3  C5  UNL     1      54.652  56.326   7.537  1.00  0.00     0.679 C 
HETATM    4  N2  UNL     1      55.857  56.713   8.101  1.00  0.00    -0.142 N 
ATOM      5  H2  UNL     1      55.840  57.240   8.974  1.00  0.00     0.189 HD
HETATM    6  C6  UNL     1      57.114  56.406   7.518  1.00  0.00     0.336 C 
HETATM    7  O1  UNL     1      57.227  55.759   6.443  1.00  0.00    -0.246 OA
HETATM    8  N3  UNL     1      58.342  56.825   8.131  1.00  0.00    -0.330 N 
HETATM    9  C7  UNL     1      58.271  57.573   9.343  1.00  0.00     0.153 C 
HETATM   10  C8  UNL     1      59.576  58.056   9.869  1.00  0.00     0.187 C 
HETATM   11  O2  UNL     1      60.685  57.328   9.453  1.00  0.00    -0.388 OA
HETATM   12  C9  UNL     1      60.737  57.280   8.053  1.00  0.00     0.187 C 
HETATM   13  C10 UNL     1      59.578  56.482   7.516  1.00  0.00     0.153 C 
HETATM   14  N4  UNL     1      54.623  55.595   6.337  1.00  0.00    -0.218 N 
ATOM     15  H4  UNL     1      55.081  54.684   6.329  1.00  0.00     0.178 HD
ENDROOT
BRANCH   1  16
HETATM   16  C2  UNL     1      53.195  57.310   9.248  1.00  0.00     0.036 C 
HETATM   17  C1  UNL     1      54.171  58.377   9.681  1.00  0.00     0.038 C 
HETATM   18  C3  UNL     1      53.000  56.341  10.391  1.00  0.00     0.038 C 
HETATM   19  C4  UNL     1      51.821  57.959   8.970  1.00  0.00     0.038 C 
ENDBRANCH   1  16
BRANCH  14  20
HETATM   20  C11 UNL     1      53.997  56.033   5.121  1.00  0.00     0.036 C 
HETATM   21  C12 UNL     1      54.476  55.097   4.008  1.00  0.00     0.038 C 
HETATM   22  C13 UNL     1      54.536  57.413   4.717  1.00  0.00     0.038 C 
HETATM   23  C14 UNL     1      52.516  56.095   5.133  1.00  0.00     0.038 C 
ENDBRANCH  14  20
TORSDOF 2
ENDMDL
MODEL 5
REMARK VINA RESULT: -5.544913392      1.812      3.963
REMARK  2 active torsions:
REMARK  status: ('A' for Active; 'I' for Inactive)
REMARK    1  A    between atoms: C2_2  and  N1_5 
REMARK       I    between atoms: C5_7  and  N2_8 
REMARK       I    between atoms: C5_7  and  N4_18 
REMARK       I    between atoms: N2_8  and  C6_10 
REMARK       I    between atoms: C6_10  and  N3_12 
REMARK    2  A    between atoms: N4_18  and  C11_20 
ROOT
HETATM    1  N1  UNL     1      54.348  55.883   8.362  1.00  0.00    -0.218 N 
ATOM      2  H1  UNL     1      53.928  54.996   8.083  1.00  0.00     0.178 HD
HETATM    3  C5  UNL     1      54.829  56.536   7.390  1.00  0.00     0.679 C 
HETATM    4  N2  UNL     1      55.439  57.764   7.577  1.00  0.00    -0.142 N 
ATOM      5  H2  UNL     1      55.497  58.141   8.523  1.00  0.00     0.189 HD
HETATM    6  C6  UNL     1      55.989  58.522   6.510  1.00  0.00     0.336 C 
HETATM    7  O1  UNL     1      55.962  58.132   5.312  1.00  0.00    -0.246 OA
HETATM    8  N3  UNL     1      56.613  59.793   6.743  1.00  0.00    -0.330 N 
HETATM    9  C7  UNL     1      56.659  60.289   8.079  1.00  0.00     0.153 C 
HETATM   10  C8  UNL     1      57.233  61.653   8.232  1.00  0.00     0.187 C 
HETATM   11  O2  UNL     1      58.090  62.050   7.211  1.00  0.00    -0.388 OA
HETATM   12  C9  UNL     1      57.446  61.952   5.971  1.00  0.00     0.187 C 
HETATM   13  C10 UNL     1      57.162  60.509   5.643  1.00  0.00     0.153 C 
HETATM   14  N4  UNL     1      54.727  55.972   6.105  1.00  0.00    -0.218 N 
ATOM     15  H4  UNL     1      55.595  55.776   5.607  1.00  0.00     0.178 HD
ENDROOT
BRANCH   1  16
HETATM   16  C2  UNL     1      54.269  56.121   9.741  1.00  0.00     0.036 C 
HETATM   17  C1  UNL     1      55.517  56.693  10.369  1.00  0.00     0.038 C 
HETATM   18  C3  UNL     1      53.901  54.849  10.469  1.00  0.00     0.038 C 
HETATM   19  C4  UNL     1      53.099  57.109   9.946  1.00  0.00     0.038 C 
ENDBRANCH   1  16
BRANCH  14  20
HETATM   20  C11 UNL     1      53.494  55.653   5.443  1.00  0.00     0.036 C 
HETATM   21  C12 UNL     1      53.666  56.033   3.969  1.00  0.00     0.038 C 
HETATM   22  C13 UNL     1      52.370  56.571   5.944  1.00  0.00     0.038 C 
HETATM   23  C14 UNL     1      53.036  54.248   5.556  1.00  0.00     0.038 C 
ENDBRANCH  14  20
TORSDOF 2
ENDMDL
