MODEL 1
REMARK VINA RESULT: -6.605309067      0.000      0.000
REMARK  0 active torsions:
REMARK  status: ('A' for Active; 'I' for Inactive)
ROOT
HETATM    1  C1  UNL     1      54.307  55.094  10.062  1.00  0.00     0.049 C 
HETATM    2  C2  UNL     1      54.233  56.003   8.875  1.00  0.00    -0.054 A 
HETATM    3  C3  UNL     1      53.506  55.697   7.777  1.00  0.00     0.016 A 
HETATM    4  C4  UNL     1      53.431  56.526   6.682  1.00  0.00    -0.034 A 
HETATM    5  C5  UNL     1      52.616  56.121   5.523  1.00  0.00     0.050 C 
HETATM    6  C6  UNL     1      54.136  57.706   6.736  1.00  0.00     0.053 A 
HETATM    7  N1  UNL     1      54.076  58.527   5.679  1.00  0.00    -0.349 N 
ATOM      8  H1  UNL     1      53.515  58.255   4.871  1.00  0.00     0.166 HD
HETATM    9  C7  UNL     1      54.736  59.701   5.651  1.00  0.00     0.133 A 
HETATM   10  C8  UNL     1      54.671  60.533   4.571  1.00  0.00     0.280 A 
HETATM   11  O1  UNL     1      53.964  60.172   3.579  1.00  0.00    -0.265 OA
HETATM   12  N2  UNL     1      55.339  61.688   4.583  1.00  0.00    -0.269 N 
HETATM   13  C9  UNL     1      55.267  62.580   3.418  1.00  0.00     0.164 C 
HETATM   14  C10 UNL     1      56.080  62.042   5.653  1.00  0.00     0.329 A 
HETATM   15  O2  UNL     1      56.702  63.130   5.647  1.00  0.00    -0.246 OA
HETATM   16  N3  UNL     1      56.168  61.258   6.723  1.00  0.00    -0.303 N 
ATOM     17  H3  UNL     1      56.733  61.537   7.525  1.00  0.00     0.171 HD
HETATM   18  C11 UNL     1      55.500  60.091   6.730  1.00  0.00     0.120 A 
HETATM   19  C12 UNL     1      55.550  59.226   7.818  1.00  0.00     0.214 A 
HETATM   20  O3  UNL     1      56.242  59.582   8.786  1.00  0.00    -0.285 OA
HETATM   21  C13 UNL     1      54.877  58.019   7.854  1.00  0.00     0.050 A 
HETATM   22  C14 UNL     1      54.959  57.197   8.956  1.00  0.00    -0.040 A 
HETATM   23  C15 UNL     1      55.763  57.554  10.150  1.00  0.00     0.050 C 
ENDROOT
TORSDOF 0
ENDMDL
MODEL 2
REMARK VINA RESULT: -6.451961525      3.784      5.128
REMARK  0 active torsions:
REMARK  status: ('A' for Active; 'I' for Inactive)
ROOT
HETATM    1  C1  UNL     1      51.386  58.034   9.239  1.00  0.00     0.049 C 
HETATM    2  C2  UNL     1      52.597  57.815   8.386  1.00  0.00    -0.054 A 
HETATM    3  C3  UNL     1      52.782  58.467   7.216  1.00  0.00     0.016 A 
HETATM    4  C4  UNL     1      53.891  58.272   6.426  1.00  0.00    -0.034 A 
HETATM    5  C5  UNL     1      54.021  59.021   5.164  1.00  0.00     0.050 C 
HETATM    6  C6  UNL     1      54.831  57.371   6.871  1.00  0.00     0.053 A 
HETATM    7  N1  UNL     1      55.918  57.167   6.115  1.00  0.00    -0.349 N 
ATOM      8  H1  UNL     1      56.016  57.680   5.239  1.00  0.00     0.166 HD
HETATM    9  C7  UNL     1      56.886  56.302   6.478  1.00  0.00     0.133 A 
HETATM   10  C8  UNL     1      57.991  56.098   5.703  1.00  0.00     0.280 A 
HETATM   11  O1  UNL     1      58.090  56.752   4.618  1.00  0.00    -0.265 OA
HETATM   12  N2  UNL     1      58.926  55.234   6.099  1.00  0.00    -0.269 N 
HETATM   13  C9  UNL     1      60.115  55.017   5.261  1.00  0.00     0.164 C 
HETATM   14  C10 UNL     1      58.791  54.556   7.257  1.00  0.00     0.329 A 
HETATM   15  O2  UNL     1      59.679  53.747   7.613  1.00  0.00    -0.246 OA
HETATM   16  N3  UNL     1      57.729  54.727   8.038  1.00  0.00    -0.303 N 
ATOM     17  H3  UNL     1      57.638  54.208   8.911  1.00  0.00     0.171 HD
HETATM   18  C11 UNL     1      56.776  55.596   7.656  1.00  0.00     0.120 A 
HETATM   19  C12 UNL     1      55.640  55.821   8.428  1.00  0.00     0.214 A 
HETATM   20  O3  UNL     1      55.547  55.181   9.487  1.00  0.00    -0.285 OA
HETATM   21  C13 UNL     1      54.643  56.705   8.063  1.00  0.00     0.050 A 
HETATM   22  C14 UNL     1      53.537  56.893   8.861  1.00  0.00    -0.040 A 
HETATM   23  C15 UNL     1      53.355  56.167  10.141  1.00  0.00     0.050 C 
ENDROOT
TORSDOF 0
ENDMDL
MODEL 3
REMARK VINA RESULT: -6.433838344      4.225      5.625
REMARK  0 active torsions:
REMARK  status: ('A' for Active; 'I' for Inactive)
ROOT
HETATM    1  C1  UNL     1      51.955  58.041   9.823  1.00  0.00     0.049 C 
HETATM    2  C2  UNL     1      53.052  57.407   9.028  1.00  0.00    -0.054 A 
HETATM    3  C3  UNL     1      54.283  57.188   9.543  1.00  0.00     0.016 A 
HETATM    4  C4  UNL     1      55.298  56.605   8.820  1.00  0.00    -0.034 A 
HETATM    5  C5  UNL     1      56.612  56.401   9.453  1.00  0.00     0.050 C 
HETATM    6  C6  UNL     1      55.018  56.242   7.523  1.00  0.00     0.053 A 
HETATM    7  N1  UNL     1      55.993  55.674   6.801  1.00  0.00    -0.349 N 
ATOM      8  H1  UNL     1      56.907  55.528   7.231  1.00  0.00     0.166 HD
HETATM    9  C7  UNL     1      55.802  55.288   5.524  1.00  0.00     0.133 A 
HETATM   10  C8  UNL     1      56.800  54.710   4.794  1.00  0.00     0.280 A 
HETATM   11  O1  UNL     1      57.928  54.538   5.353  1.00  0.00    -0.265 OA
HETATM   12  N2  UNL     1      56.570  54.342   3.533  1.00  0.00    -0.269 N 
HETATM   13  C9  UNL     1      57.647  53.719   2.751  1.00  0.00     0.164 C 
HETATM   14  C10 UNL     1      55.360  54.537   2.969  1.00  0.00     0.329 A 
HETATM   15  O2  UNL     1      55.162  54.186   1.783  1.00  0.00    -0.246 OA
HETATM   16  N3  UNL     1      54.364  55.098   3.648  1.00  0.00    -0.303 N 
ATOM     17  H3  UNL     1      53.454  55.242   3.210  1.00  0.00     0.171 HD
HETATM   18  C11 UNL     1      54.576  55.474   4.921  1.00  0.00     0.120 A 
HETATM   19  C12 UNL     1      53.576  56.066   5.686  1.00  0.00     0.214 A 
HETATM   20  O3  UNL     1      52.475  56.232   5.137  1.00  0.00    -0.285 OA
HETATM   21  C13 UNL     1      53.764  56.465   6.996  1.00  0.00     0.050 A 
HETATM   22  C14 UNL     1      52.741  57.047   7.711  1.00  0.00    -0.040 A 
HETATM   23  C15 UNL     1      51.399  57.277   7.125  1.00  0.00     0.050 C 
ENDROOT
TORSDOF 0
ENDMDL
MODEL 4
REMARK VINA RESULT: -6.303168367      1.676      1.705
REMARK  0 active torsions:
REMARK  status: ('A' for Active; 'I' for Inactive)
ROOT
HETATM    1  C1  UNL     1      54.150  55.359  10.461  1.00  0.00     0.049 C 
HETATM    2  C2  UNL     1      54.032  56.325   9.323  1.00  0.00    -0.054 A 
HETATM    3  C3  UNL     1      52.838  56.792   8.895  1.00  0.00     0.016 A 
HETATM    4  C4  UNL     1      52.720  57.680   7.851  1.00  0.00    -0.034 A 
HETATM    5  C5  UNL     1      51.382  58.143   7.443  1.00  0.00     0.050 C 
HETATM    6  C6  UNL     1      53.881  58.089   7.238  1.00  0.00     0.053 A 
HETATM    7  N1  UNL     1      53.787  58.953   6.218  1.00  0.00    -0.349 N 
ATOM      8  H1  UNL     1      52.865  59.279   5.928  1.00  0.00     0.166 HD
HETATM    9  C7  UNL     1      54.876  59.404   5.564  1.00  0.00     0.133 A 
HETATM   10  C8  UNL     1      54.773  60.284   4.526  1.00  0.00     0.280 A 
HETATM   11  O1  UNL     1      53.613  60.676   4.186  1.00  0.00    -0.265 OA
HETATM   12  N2  UNL     1      55.875  60.707   3.905  1.00  0.00    -0.269 N 
HETATM   13  C9  UNL     1      55.760  61.654   2.787  1.00  0.00     0.164 C 
HETATM   14  C10 UNL     1      57.092  60.272   4.291  1.00  0.00     0.329 A 
HETATM   15  O2  UNL     1      58.117  60.679   3.696  1.00  0.00    -0.246 OA
HETATM   16  N3  UNL     1      57.232  59.415   5.297  1.00  0.00    -0.303 N 
ATOM     17  H3  UNL     1      58.158  59.093   5.580  1.00  0.00     0.171 HD
HETATM   18  C11 UNL     1      56.132  58.978   5.937  1.00  0.00     0.120 A 
HETATM   19  C12 UNL     1      56.210  58.081   6.997  1.00  0.00     0.214 A 
HETATM   20  O3  UNL     1      57.345  57.701   7.327  1.00  0.00    -0.285 OA
HETATM   21  C13 UNL     1      55.099  57.614   7.673  1.00  0.00     0.050 A 
HETATM   22  C14 UNL     1      55.229  56.725   8.717  1.00  0.00    -0.040 A 
HETATM   23  C15 UNL     1      56.550  56.227   9.170  1.00  0.00     0.050 C 
ENDROOT
TORSDOF 0
ENDMDL
MODEL 5
REMARK VINA RESULT: -6.273817794      2.587      3.414
REMARK  0 active torsions:
REMARK  status: ('A' for Active; 'I' for Inactive)
ROOT
HETATM    1  C1  UNL     1      52.519  56.418  10.803  1.00  0.00     0.049 C 
HETATM    2  C2  UNL     1      53.464  56.532   9.648  1.00  0.00    -0.054 A 
HETATM    3  C3  UNL     1      54.658  55.898   9.629  1.00  0.00     0.016 A 
HETATM    4  C4  UNL     1      55.533  55.996   8.572  1.00  0.00    -0.034 A 
HETATM    5  C5  UNL     1      56.816  55.274   8.625  1.00  0.00     0.050 C 
HETATM    6  C6  UNL     1      55.149  56.778   7.507  1.00  0.00     0.053 A 
HETATM    7  N1  UNL     1      55.988  56.887   6.468  1.00  0.00    -0.349 N 
ATOM      8  H1  UNL     1      56.878  56.391   6.496  1.00  0.00     0.166 HD
HETATM    9  C7  UNL     1      55.688  57.632   5.386  1.00  0.00     0.133 A 
HETATM   10  C8  UNL     1      56.547  57.739   4.331  1.00  0.00     0.280 A 
HETATM   11  O1  UNL     1      57.649  57.111   4.390  1.00  0.00    -0.265 OA
HETATM   12  N2  UNL     1      56.213  58.487   3.278  1.00  0.00    -0.269 N 
HETATM   13  C9  UNL     1      57.141  58.600   2.144  1.00  0.00     0.164 C 
HETATM   14  C10 UNL     1      55.033  59.142   3.246  1.00  0.00     0.329 A 
HETATM   15  O2  UNL     1      54.736  59.841   2.250  1.00  0.00    -0.246 OA
HETATM   16  N3  UNL     1      54.172  59.063   4.255  1.00  0.00    -0.303 N 
ATOM     17  H3  UNL     1      53.284  59.563   4.219  1.00  0.00     0.171 HD
HETATM   18  C11 UNL     1      54.491  58.312   5.324  1.00  0.00     0.120 A 
HETATM   19  C12 UNL     1      53.633  58.187   6.413  1.00  0.00     0.214 A 
HETATM   20  O3  UNL     1      52.557  58.803   6.351  1.00  0.00    -0.285 OA
HETATM   21  C13 UNL     1      53.932  57.425   7.526  1.00  0.00     0.050 A 
HETATM   22  C14 UNL     1      53.049  57.334   8.578  1.00  0.00    -0.040 A 
HETATM   23  C15 UNL     1      51.744  58.038   8.578  1.00  0.00     0.050 C 
ENDROOT
TORSDOF 0
ENDMDL
