MODEL 1
REMARK VINA RESULT: -6.571423551      0.000      0.000
REMARK  0 active torsions:
REMARK  status: ('A' for Active; 'I' for Inactive)
ROOT
HETATM    1  C1  UNL     1      52.191  57.026  10.527  1.00  0.00     0.000 C 
HETATM    2  C2  UNL     1      51.736  58.021   9.490  1.00  0.00     0.000 C 
HETATM    3  C3  UNL     1      51.895  57.516   8.081  1.00  0.00     0.002 C 
HETATM    4  C4  UNL     1      52.746  58.396   7.228  1.00  0.00     0.038 C 
HETATM    5  C5  UNL     1      54.200  58.168   7.294  1.00  0.00     0.253 C 
HETATM    6  C6  UNL     1      54.617  56.956   8.093  1.00  0.00     0.219 C 
HETATM    7  C7  UNL     1      54.440  57.206   9.557  1.00  0.00     0.035 C 
HETATM    8  C8  UNL     1      53.414  56.267  10.145  1.00  0.00     0.002 C 
HETATM    9  N1  UNL     1      56.063  56.800   7.861  1.00  0.00    -0.069 N 
ATOM     10  H11 UNL     1      56.571  57.679   7.954  1.00  0.00     0.277 HD
ATOM     11  H12 UNL     1      56.284  56.613   6.883  1.00  0.00     0.277 HD
HETATM   12  C9  UNL     1      56.568  55.770   8.752  1.00  0.00     0.234 C 
HETATM   13  C10 UNL     1      57.461  54.784   8.009  1.00  0.00     0.055 C 
HETATM   14  C11 UNL     1      58.711  55.425   7.496  1.00  0.00     0.234 C 
HETATM   15  N2  UNL     1      58.812  55.127   6.072  1.00  0.00    -0.073 N 
ATOM     16  H21 UNL     1      58.020  54.567   5.756  1.00  0.00     0.277 HD
ATOM     17  H22 UNL     1      59.564  54.464   5.886  1.00  0.00     0.277 HD
HETATM   18  C12 UNL     1      58.959  56.318   5.277  1.00  0.00     0.258 C 
HETATM   19  C13 UNL     1      57.778  56.469   4.342  1.00  0.00     0.195 C 
HETATM   20  O1  UNL     1      57.474  57.821   4.205  1.00  0.00    -0.389 OA
HETATM   21  C14 UNL     1      56.217  58.038   3.659  1.00  0.00     0.175 C 
HETATM   22  C15 UNL     1      55.566  59.158   4.408  1.00  0.00     0.066 C 
HETATM   23  C16 UNL     1      54.189  58.756   4.951  1.00  0.00     0.281 C 
HETATM   24  N3  UNL     1      54.865  58.085   6.017  1.00  0.00     0.096 N 
HETATM   25  C17 UNL     1      55.952  59.038   5.884  1.00  0.00     0.281 C 
ENDROOT
TORSDOF 0
ENDMDL
MODEL 2
REMARK VINA RESULT: -6.550497753      1.747      3.690
REMARK  0 active torsions:
REMARK  status: ('A' for Active; 'I' for Inactive)
ROOT
HETATM    1  C1  UNL     1      51.586  58.058   9.023  1.00  0.00     0.000 C 
HETATM    2  C2  UNL     1      52.659  57.854  10.062  1.00  0.00     0.000 C 
HETATM    3  C3  UNL     1      53.998  58.394   9.639  1.00  0.00     0.002 C 
HETATM    4  C4  UNL     1      55.081  57.367   9.642  1.00  0.00     0.038 C 
HETATM    5  C5  UNL     1      55.214  56.549   8.424  1.00  0.00     0.253 C 
HETATM    6  C6  UNL     1      54.341  56.983   7.270  1.00  0.00     0.219 C 
HETATM    7  C7  UNL     1      52.912  56.626   7.530  1.00  0.00     0.035 C 
HETATM    8  C8  UNL     1      52.054  57.865   7.622  1.00  0.00     0.002 C 
HETATM    9  N1  UNL     1      54.774  56.179   6.114  1.00  0.00    -0.069 N 
ATOM     10  H11 UNL     1      54.876  55.190   6.342  1.00  0.00     0.277 HD
ATOM     11  H12 UNL     1      55.742  56.363   5.851  1.00  0.00     0.277 HD
HETATM   12  C9  UNL     1      53.849  56.403   5.018  1.00  0.00     0.234 C 
HETATM   13  C10 UNL     1      54.589  56.668   3.713  1.00  0.00     0.055 C 
HETATM   14  C11 UNL     1      55.370  55.478   3.253  1.00  0.00     0.234 C 
HETATM   15  N2  UNL     1      56.741  55.911   3.014  1.00  0.00    -0.073 N 
ATOM     16  H21 UNL     1      56.855  56.904   3.217  1.00  0.00     0.277 HD
ATOM     17  H22 UNL     1      56.956  55.924   2.016  1.00  0.00     0.277 HD
HETATM   18  C12 UNL     1      57.696  55.117   3.741  1.00  0.00     0.258 C 
HETATM   19  C13 UNL     1      58.446  55.983   4.731  1.00  0.00     0.195 C 
HETATM   20  O1  UNL     1      58.707  55.242   5.881  1.00  0.00    -0.389 OA
HETATM   21  C14 UNL     1      59.073  56.031   6.960  1.00  0.00     0.175 C 
HETATM   22  C15 UNL     1      58.382  55.509   8.181  1.00  0.00     0.066 C 
HETATM   23  C16 UNL     1      57.582  56.605   8.896  1.00  0.00     0.281 C 
HETATM   24  N3  UNL     1      56.558  56.424   7.916  1.00  0.00     0.096 N 
HETATM   25  C17 UNL     1      56.981  55.042   7.777  1.00  0.00     0.281 C 
ENDROOT
TORSDOF 0
ENDMDL
MODEL 3
REMARK VINA RESULT: -6.366880579      1.356      3.849
REMARK  0 active torsions:
REMARK  status: ('A' for Active; 'I' for Inactive)
ROOT
HETATM    1  C1  UNL     1      52.203  57.273  10.143  1.00  0.00     0.000 C 
HETATM    2  C2  UNL     1      53.126  56.108  10.389  1.00  0.00     0.000 C 
HETATM    3  C3  UNL     1      54.575  56.447  10.165  1.00  0.00     0.002 C 
HETATM    4  C4  UNL     1      55.238  55.580   9.149  1.00  0.00     0.038 C 
HETATM    5  C5  UNL     1      55.098  55.991   7.741  1.00  0.00     0.253 C 
HETATM    6  C6  UNL     1      54.442  57.337   7.536  1.00  0.00     0.219 C 
HETATM    7  C7  UNL     1      52.975  57.253   7.811  1.00  0.00     0.035 C 
HETATM    8  C8  UNL     1      52.594  58.123   8.984  1.00  0.00     0.002 C 
HETATM    9  N1  UNL     1      54.588  57.640   6.101  1.00  0.00    -0.069 N 
ATOM     10  H11 UNL     1      54.341  56.849   5.508  1.00  0.00     0.277 HD
ATOM     11  H12 UNL     1      55.564  57.729   5.818  1.00  0.00     0.277 HD
HETATM   12  C9  UNL     1      53.810  58.827   5.796  1.00  0.00     0.234 C 
HETATM   13  C10 UNL     1      54.613  59.816   4.959  1.00  0.00     0.055 C 
HETATM   14  C11 UNL     1      54.943  59.275   3.605  1.00  0.00     0.234 C 
HETATM   15  N2  UNL     1      56.383  59.401   3.413  1.00  0.00    -0.073 N 
ATOM     16  H21 UNL     1      56.828  59.815   4.232  1.00  0.00     0.277 HD
ATOM     17  H22 UNL     1      56.602  60.124   2.727  1.00  0.00     0.277 HD
HETATM   18  C12 UNL     1      56.997  58.147   3.063  1.00  0.00     0.258 C 
HETATM   19  C13 UNL     1      57.986  57.736   4.132  1.00  0.00     0.195 C 
HETATM   20  O1  UNL     1      57.961  56.350   4.269  1.00  0.00    -0.389 OA
HETATM   21  C14 UNL     1      58.562  55.913   5.440  1.00  0.00     0.175 C 
HETATM   22  C15 UNL     1      57.718  54.823   6.023  1.00  0.00     0.066 C 
HETATM   23  C16 UNL     1      57.334  55.117   7.480  1.00  0.00     0.281 C 
HETATM   24  N3  UNL     1      56.324  55.996   6.980  1.00  0.00     0.096 N 
HETATM   25  C17 UNL     1      56.247  55.175   5.785  1.00  0.00     0.281 C 
ENDROOT
TORSDOF 0
ENDMDL
MODEL 4
REMARK VINA RESULT: -6.278349782      2.707      6.218
REMARK  0 active torsions:
REMARK  status: ('A' for Active; 'I' for Inactive)
ROOT
HETATM    1  C1  UNL     1      55.896  53.672   2.663  1.00  0.00     0.000 C 
HETATM    2  C2  UNL     1      57.177  53.679   3.456  1.00  0.00     0.000 C 
HETATM    3  C3  UNL     1      56.968  53.367   4.914  1.00  0.00     0.002 C 
HETATM    4  C4  UNL     1      57.467  54.434   5.828  1.00  0.00     0.038 C 
HETATM    5  C5  UNL     1      56.541  55.546   6.108  1.00  0.00     0.253 C 
HETATM    6  C6  UNL     1      55.145  55.361   5.561  1.00  0.00     0.219 C 
HETATM    7  C7  UNL     1      55.136  55.533   4.075  1.00  0.00     0.035 C 
HETATM    8  C8  UNL     1      54.730  54.252   3.386  1.00  0.00     0.002 C 
HETATM    9  N1  UNL     1      54.345  56.465   6.119  1.00  0.00    -0.069 N 
ATOM     10  H11 UNL     1      54.816  57.367   6.041  1.00  0.00     0.277 HD
ATOM     11  H12 UNL     1      54.283  56.426   7.136  1.00  0.00     0.277 HD
HETATM   12  C9  UNL     1      53.041  56.463   5.482  1.00  0.00     0.234 C 
HETATM   13  C10 UNL     1      51.922  56.598   6.508  1.00  0.00     0.055 C 
HETATM   14  C11 UNL     1      51.951  57.921   7.207  1.00  0.00     0.234 C 
HETATM   15  N2  UNL     1      51.949  57.666   8.642  1.00  0.00    -0.073 N 
ATOM     16  H21 UNL     1      51.935  56.665   8.839  1.00  0.00     0.277 HD
ATOM     17  H22 UNL     1      51.056  57.926   9.061  1.00  0.00     0.277 HD
HETATM   18  C12 UNL     1      53.046  58.314   9.311  1.00  0.00     0.258 C 
HETATM   19  C13 UNL     1      53.954  57.280   9.942  1.00  0.00     0.195 C 
HETATM   20  O1  UNL     1      55.274  57.718   9.857  1.00  0.00    -0.389 OA
HETATM   21  C14 UNL     1      56.194  56.706  10.087  1.00  0.00     0.175 C 
HETATM   22  C15 UNL     1      57.304  56.844   9.093  1.00  0.00     0.066 C 
HETATM   23  C16 UNL     1      57.533  55.545   8.310  1.00  0.00     0.281 C 
HETATM   24  N3  UNL     1      56.409  55.896   7.501  1.00  0.00     0.096 N 
HETATM   25  C17 UNL     1      56.701  57.295   7.759  1.00  0.00     0.281 C 
ENDROOT
TORSDOF 0
ENDMDL
MODEL 5
REMARK VINA RESULT: -6.185883119      1.371      1.426
REMARK  0 active torsions:
REMARK  status: ('A' for Active; 'I' for Inactive)
ROOT
HETATM    1  C1  UNL     1      52.049  57.680   9.957  1.00  0.00     0.000 C 
HETATM    2  C2  UNL     1      51.576  58.235   8.639  1.00  0.00     0.000 C 
HETATM    3  C3  UNL     1      52.180  57.532   7.453  1.00  0.00     0.002 C 
HETATM    4  C4  UNL     1      52.917  58.444   6.532  1.00  0.00     0.038 C 
HETATM    5  C5  UNL     1      54.324  58.722   6.870  1.00  0.00     0.253 C 
HETATM    6  C6  UNL     1      54.875  57.904   8.014  1.00  0.00     0.219 C 
HETATM    7  C7  UNL     1      54.315  58.379   9.317  1.00  0.00     0.035 C 
HETATM    8  C8  UNL     1      53.488  57.300   9.975  1.00  0.00     0.002 C 
HETATM    9  N1  UNL     1      56.322  58.184   8.048  1.00  0.00    -0.069 N 
ATOM     10  H11 UNL     1      56.528  59.180   7.978  1.00  0.00     0.277 HD
ATOM     11  H12 UNL     1      56.797  57.881   7.198  1.00  0.00     0.277 HD
HETATM   12  C9  UNL     1      56.883  57.582   9.244  1.00  0.00     0.234 C 
HETATM   13  C10 UNL     1      58.158  56.809   8.929  1.00  0.00     0.055 C 
HETATM   14  C11 UNL     1      59.260  57.703   8.455  1.00  0.00     0.234 C 
HETATM   15  N2  UNL     1      59.755  57.168   7.192  1.00  0.00    -0.073 N 
ATOM     16  H21 UNL     1      59.243  56.327   6.922  1.00  0.00     0.277 HD
ATOM     17  H22 UNL     1      60.684  56.763   7.302  1.00  0.00     0.277 HD
HETATM   18  C12 UNL     1      59.735  58.150   6.140  1.00  0.00     0.258 C 
HETATM   19  C13 UNL     1      58.798  57.712   5.036  1.00  0.00     0.195 C 
HETATM   20  O1  UNL     1      58.166  58.831   4.501  1.00  0.00    -0.389 OA
HETATM   21  C14 UNL     1      57.053  58.510   3.738  1.00  0.00     0.175 C 
HETATM   22  C15 UNL     1      55.965  59.486   4.059  1.00  0.00     0.066 C 
HETATM   23  C16 UNL     1      54.670  58.778   4.480  1.00  0.00     0.281 C 
HETATM   24  N3  UNL     1      55.253  58.598   5.773  1.00  0.00     0.096 N 
HETATM   25  C17 UNL     1      56.030  59.804   5.555  1.00  0.00     0.281 C 
ENDROOT
TORSDOF 0
ENDMDL
