MODEL 1
REMARK VINA RESULT: -7.957790206      0.000      0.000
REMARK  6 active torsions:
REMARK  status: ('A' for Active; 'I' for Inactive)
REMARK    1  A    between atoms: C2_2  and  O1_5 
REMARK    2  A    between atoms: O1_5  and  C5_6 
REMARK       I    between atoms: C5_6  and  N1_8 
REMARK    3  A    between atoms: N1_8  and  C6_10 
REMARK    4  A    between atoms: C6_10  and  C7_11 
REMARK    5  A    between atoms: C6_10  and  C9_19 
REMARK    6  A    between atoms: N2_12  and  N3_14 
REMARK       I    between atoms: C9_19  and  N6_21 
ROOT
HETATM    1  C6  UNL     1       6.616   2.581  92.932  1.00  0.00     0.219 C 
ENDROOT
BRANCH   1   2
HETATM    2  N1  UNL     1       5.789   2.479  94.112  1.00  0.00    -0.319 N 
HETATM    3  C5  UNL     1       4.387   2.263  94.045  1.00  0.00     0.362 C 
HETATM    4  O2  UNL     1       3.867   2.160  92.898  1.00  0.00    -0.238 OA
ATOM      5  H1  UNL     1       6.229   2.565  95.028  1.00  0.00     0.166 HD
BRANCH   3   6
HETATM    6  O1  UNL     1       3.630   2.170  95.184  1.00  0.00    -0.294 OA
BRANCH   6   7
HETATM    7  C2  UNL     1       2.891   0.987  95.413  1.00  0.00     0.061 C 
HETATM    8  C1  UNL     1       1.635   0.991  94.543  1.00  0.00     0.046 C 
HETATM    9  C3  UNL     1       2.437   1.017  96.858  1.00  0.00     0.046 C 
HETATM   10  C4  UNL     1       3.667  -0.253  95.091  1.00  0.00     0.046 C 
ENDBRANCH   6   7
ENDBRANCH   3   6
ENDBRANCH   1   2
BRANCH   1  11
HETATM   11  C7  UNL     1       7.042   3.964  92.655  1.00  0.00     0.115 C 
HETATM   12  N2  UNL     1       7.320   4.305  91.460  1.00  0.00    -0.311 N 
ATOM     13  H2  UNL     1       7.617   5.256  91.245  1.00  0.00     0.185 HD
BRANCH  12  14
HETATM   14  N3  UNL     1       7.209   3.350  90.455  1.00  0.00    -0.277 N 
HETATM   15  C8  UNL     1       8.155   2.982  89.681  1.00  0.00     0.215 C 
HETATM   16  N4  UNL     1       9.429   3.568  89.820  1.00  0.00    -0.065 NA
HETATM   17  N5  UNL     1       7.902   1.999  88.700  1.00  0.00    -0.065 NA
ATOM     18  H3  UNL     1       6.299   2.908  90.327  1.00  0.00     0.189 HD
ENDBRANCH  12  14
ENDBRANCH   1  11
BRANCH   1  19
HETATM   19  C9  UNL     1       7.797   1.672  93.013  1.00  0.00     0.251 C 
HETATM   20  O3  UNL     1       7.990   0.734  92.200  1.00  0.00    -0.270 OA
HETATM   21  N6  UNL     1       8.750   1.860  94.045  1.00  0.00    -0.301 N 
HETATM   22  C10 UNL     1       8.980   0.912  94.884  1.00  0.00     0.203 C 
ATOM     23  H6  UNL     1       9.252   2.744  94.122  1.00  0.00     0.171 HD
HETATM   24  N7  UNL     1       8.275  -0.311  94.767  1.00  0.00    -0.066 NA
HETATM   25  N8  UNL     1       9.929   1.052  95.939  1.00  0.00    -0.066 NA
ENDBRANCH   1  19
TORSDOF 6
ENDMDL
MODEL 2
REMARK VINA RESULT: -7.926227986      3.403      4.896
REMARK  6 active torsions:
REMARK  status: ('A' for Active; 'I' for Inactive)
REMARK    1  A    between atoms: C2_2  and  O1_5 
REMARK    2  A    between atoms: O1_5  and  C5_6 
REMARK       I    between atoms: C5_6  and  N1_8 
REMARK    3  A    between atoms: N1_8  and  C6_10 
REMARK    4  A    between atoms: C6_10  and  C7_11 
REMARK    5  A    between atoms: C6_10  and  C9_19 
REMARK    6  A    between atoms: N2_12  and  N3_14 
REMARK       I    between atoms: C9_19  and  N6_21 
ROOT
HETATM    1  C6  UNL     1       8.246   2.548  91.541  1.00  0.00     0.219 C 
ENDROOT
BRANCH   1   2
HETATM    2  N1  UNL     1       8.671   3.657  92.363  1.00  0.00    -0.319 N 
HETATM    3  C5  UNL     1       7.752   4.501  93.042  1.00  0.00     0.362 C 
HETATM    4  O2  UNL     1       6.521   4.251  92.906  1.00  0.00    -0.238 OA
ATOM      5  H1  UNL     1       9.670   3.842  92.459  1.00  0.00     0.166 HD
BRANCH   3   6
HETATM    6  O1  UNL     1       8.188   5.546  93.815  1.00  0.00    -0.294 OA
BRANCH   6   7
HETATM    7  C2  UNL     1       8.708   6.693  93.173  1.00  0.00     0.061 C 
HETATM    8  C1  UNL     1      10.235   6.634  93.177  1.00  0.00     0.046 C 
HETATM    9  C3  UNL     1       8.302   7.892  94.005  1.00  0.00     0.046 C 
HETATM   10  C4  UNL     1       8.258   6.816  91.749  1.00  0.00     0.046 C 
ENDBRANCH   6   7
ENDBRANCH   3   6
ENDBRANCH   1   2
BRANCH   1  11
HETATM   11  C7  UNL     1       8.733   2.649  90.154  1.00  0.00     0.115 C 
HETATM   12  N2  UNL     1       7.955   2.340  89.195  1.00  0.00    -0.311 N 
ATOM     13  H2  UNL     1       8.270   2.402  88.227  1.00  0.00     0.185 HD
BRANCH  12  14
HETATM   14  N3  UNL     1       6.666   1.915  89.497  1.00  0.00    -0.277 N 
HETATM   15  C8  UNL     1       5.911   1.240  88.720  1.00  0.00     0.215 C 
HETATM   16  N4  UNL     1       6.383   0.877  87.443  1.00  0.00    -0.065 NA
HETATM   17  N5  UNL     1       4.619   0.875  89.157  1.00  0.00    -0.065 NA
ATOM     18  H3  UNL     1       6.293   2.163  90.414  1.00  0.00     0.189 HD
ENDBRANCH  12  14
ENDBRANCH   1  11
BRANCH   1  19
HETATM   19  C9  UNL     1       8.640   1.241  92.144  1.00  0.00     0.251 C 
HETATM   20  O3  UNL     1       8.357   0.136  91.617  1.00  0.00    -0.270 OA
HETATM   21  N6  UNL     1       9.364   1.226  93.362  1.00  0.00    -0.301 N 
HETATM   22  C10 UNL     1       8.872   0.633  94.393  1.00  0.00     0.203 C 
ATOM     23  H6  UNL     1      10.274   1.685  93.421  1.00  0.00     0.171 HD
HETATM   24  N7  UNL     1       7.608   0.002  94.297  1.00  0.00    -0.066 NA
HETATM   25  N8  UNL     1       9.562   0.590  95.640  1.00  0.00    -0.066 NA
ENDBRANCH   1  19
TORSDOF 6
ENDMDL
MODEL 3
REMARK VINA RESULT: -7.766568022      3.221      5.381
REMARK  6 active torsions:
REMARK  status: ('A' for Active; 'I' for Inactive)
REMARK    1  A    between atoms: C2_2  and  O1_5 
REMARK    2  A    between atoms: O1_5  and  C5_6 
REMARK       I    between atoms: C5_6  and  N1_8 
REMARK    3  A    between atoms: N1_8  and  C6_10 
REMARK    4  A    between atoms: C6_10  and  C7_11 
REMARK    5  A    between atoms: C6_10  and  C9_19 
REMARK    6  A    between atoms: N2_12  and  N3_14 
REMARK       I    between atoms: C9_19  and  N6_21 
ROOT
HETATM    1  C6  UNL     1       8.306   4.305  91.595  1.00  0.00     0.219 C 
ENDROOT
BRANCH   1   2
HETATM    2  N1  UNL     1       8.719   5.596  92.095  1.00  0.00    -0.319 N 
HETATM    3  C5  UNL     1       7.791   6.574  92.541  1.00  0.00     0.362 C 
HETATM    4  O2  UNL     1       6.563   6.280  92.488  1.00  0.00    -0.238 OA
ATOM      5  H1  UNL     1       9.716   5.813  92.129  1.00  0.00     0.166 HD
BRANCH   3   6
HETATM    6  O1  UNL     1       8.215   7.790  93.011  1.00  0.00    -0.294 OA
BRANCH   6   7
HETATM    7  C2  UNL     1       8.424   7.945  94.401  1.00  0.00     0.061 C 
HETATM    8  C1  UNL     1       8.112   9.384  94.808  1.00  0.00     0.046 C 
HETATM    9  C3  UNL     1       9.900   7.714  94.658  1.00  0.00     0.046 C 
HETATM   10  C4  UNL     1       7.560   7.038  95.222  1.00  0.00     0.046 C 
ENDBRANCH   6   7
ENDBRANCH   3   6
ENDBRANCH   1   2
BRANCH   1  11
HETATM   11  C7  UNL     1       9.208   3.785  90.552  1.00  0.00     0.115 C 
HETATM   12  N2  UNL     1       8.749   2.990  89.670  1.00  0.00    -0.311 N 
ATOM     13  H2  UNL     1       9.354   2.618  88.938  1.00  0.00     0.185 HD
BRANCH  12  14
HETATM   14  N3  UNL     1       7.404   2.641  89.726  1.00  0.00    -0.277 N 
HETATM   15  C8  UNL     1       6.851   1.724  89.032  1.00  0.00     0.215 C 
HETATM   16  N4  UNL     1       7.630   0.983  88.121  1.00  0.00    -0.065 NA
HETATM   17  N5  UNL     1       5.471   1.474  89.191  1.00  0.00    -0.065 NA
ATOM     18  H3  UNL     1       6.812   3.159  90.375  1.00  0.00     0.189 HD
ENDBRANCH  12  14
ENDBRANCH   1  11
BRANCH   1  19
HETATM   19  C9  UNL     1       8.155   3.315  92.702  1.00  0.00     0.251 C 
HETATM   20  O3  UNL     1       8.570   2.132  92.617  1.00  0.00    -0.270 OA
HETATM   21  N6  UNL     1       7.521   3.708  93.906  1.00  0.00    -0.301 N 
HETATM   22  C10 UNL     1       6.459   3.096  94.300  1.00  0.00     0.203 C 
ATOM     23  H6  UNL     1       7.904   4.475  94.459  1.00  0.00     0.171 HD
HETATM   24  N7  UNL     1       5.936   2.035  93.522  1.00  0.00    -0.066 NA
HETATM   25  N8  UNL     1       5.785   3.454  95.504  1.00  0.00    -0.066 NA
ENDBRANCH   1  19
TORSDOF 6
ENDMDL
MODEL 4
REMARK VINA RESULT: -7.580623080      3.586      5.405
REMARK  6 active torsions:
REMARK  status: ('A' for Active; 'I' for Inactive)
REMARK    1  A    between atoms: C2_2  and  O1_5 
REMARK    2  A    between atoms: O1_5  and  C5_6 
REMARK       I    between atoms: C5_6  and  N1_8 
REMARK    3  A    between atoms: N1_8  and  C6_10 
REMARK    4  A    between atoms: C6_10  and  C7_11 
REMARK    5  A    between atoms: C6_10  and  C9_19 
REMARK    6  A    between atoms: N2_12  and  N3_14 
REMARK       I    between atoms: C9_19  and  N6_21 
ROOT
HETATM    1  C6  UNL     1       7.677   2.550  90.343  1.00  0.00     0.219 C 
ENDROOT
BRANCH   1   2
HETATM    2  N1  UNL     1       8.090   1.457  91.192  1.00  0.00    -0.319 N 
HETATM    3  C5  UNL     1       8.908   1.648  92.338  1.00  0.00     0.362 C 
HETATM    4  O2  UNL     1       9.276   2.828  92.602  1.00  0.00    -0.238 OA
ATOM      5  H1  UNL     1       7.782   0.512  90.961  1.00  0.00     0.166 HD
BRANCH   3   6
HETATM    6  O1  UNL     1       9.282   0.589  93.125  1.00  0.00    -0.294 OA
BRANCH   6   7
HETATM    7  C2  UNL     1       8.805   0.530  94.455  1.00  0.00     0.061 C 
HETATM    8  C1  UNL     1       8.779  -0.923  94.925  1.00  0.00     0.046 C 
HETATM    9  C3  UNL     1       7.372   1.024  94.437  1.00  0.00     0.046 C 
HETATM   10  C4  UNL     1       9.657   1.307  95.411  1.00  0.00     0.046 C 
ENDBRANCH   6   7
ENDBRANCH   3   6
ENDBRANCH   1   2
BRANCH   1  11
HETATM   11  C7  UNL     1       8.797   3.432  89.969  1.00  0.00     0.115 C 
HETATM   12  N2  UNL     1       8.824   4.626  90.410  1.00  0.00    -0.311 N 
ATOM     13  H2  UNL     1       9.589   5.255  90.166  1.00  0.00     0.185 HD
BRANCH  12  14
HETATM   14  N3  UNL     1       7.788   5.054  91.234  1.00  0.00    -0.277 N 
HETATM   15  C8  UNL     1       7.910   5.869  92.208  1.00  0.00     0.215 C 
HETATM   16  N4  UNL     1       9.180   6.400  92.509  1.00  0.00    -0.065 NA
HETATM   17  N5  UNL     1       6.770   6.218  92.964  1.00  0.00    -0.065 NA
ATOM     18  H3  UNL     1       6.856   4.686  91.043  1.00  0.00     0.189 HD
ENDBRANCH  12  14
ENDBRANCH   1  11
BRANCH   1  19
HETATM   19  C9  UNL     1       6.968   2.056  89.126  1.00  0.00     0.251 C 
HETATM   20  O3  UNL     1       6.753   2.781  88.123  1.00  0.00    -0.270 OA
HETATM   21  N6  UNL     1       6.511   0.715  89.082  1.00  0.00    -0.301 N 
HETATM   22  C10 UNL     1       5.257   0.471  88.925  1.00  0.00     0.203 C 
ATOM     23  H6  UNL     1       7.174  -0.054  89.176  1.00  0.00     0.171 HD
HETATM   24  N7  UNL     1       4.347   1.548  88.797  1.00  0.00    -0.066 NA
HETATM   25  N8  UNL     1       4.748  -0.860  88.874  1.00  0.00    -0.066 NA
ENDBRANCH   1  19
TORSDOF 6
ENDMDL
MODEL 5
REMARK VINA RESULT: -7.544987267      3.398      5.054
REMARK  6 active torsions:
REMARK  status: ('A' for Active; 'I' for Inactive)
REMARK    1  A    between atoms: C2_2  and  O1_5 
REMARK    2  A    between atoms: O1_5  and  C5_6 
REMARK       I    between atoms: C5_6  and  N1_8 
REMARK    3  A    between atoms: N1_8  and  C6_10 
REMARK    4  A    between atoms: C6_10  and  C7_11 
REMARK    5  A    between atoms: C6_10  and  C9_19 
REMARK    6  A    between atoms: N2_12  and  N3_14 
REMARK       I    between atoms: C9_19  and  N6_21 
ROOT
HETATM    1  C6  UNL     1       8.504   2.176  92.364  1.00  0.00     0.219 C 
ENDROOT
BRANCH   1   2
HETATM    2  N1  UNL     1       9.017   3.525  92.328  1.00  0.00    -0.319 N 
HETATM    3  C5  UNL     1       8.258   4.618  91.830  1.00  0.00     0.362 C 
HETATM    4  O2  UNL     1       7.092   4.374  91.408  1.00  0.00    -0.238 OA
ATOM      5  H1  UNL     1       9.961   3.701  92.674  1.00  0.00     0.166 HD
BRANCH   3   6
HETATM    6  O1  UNL     1       8.775   5.888  91.810  1.00  0.00    -0.294 OA
BRANCH   6   7
HETATM    7  C2  UNL     1       9.011   6.543  93.041  1.00  0.00     0.061 C 
HETATM    8  C1  UNL     1       8.709   8.034  92.893  1.00  0.00     0.046 C 
HETATM    9  C3  UNL     1      10.490   6.411  93.340  1.00  0.00     0.046 C 
HETATM   10  C4  UNL     1       8.161   6.012  94.154  1.00  0.00     0.046 C 
ENDBRANCH   6   7
ENDBRANCH   3   6
ENDBRANCH   1   2
BRANCH   1  11
HETATM   11  C7  UNL     1       9.403   1.208  91.710  1.00  0.00     0.115 C 
HETATM   12  N2  UNL     1       9.390   1.102  90.442  1.00  0.00    -0.311 N 
ATOM     13  H2  UNL     1      10.003   0.440  89.968  1.00  0.00     0.185 HD
BRANCH  12  14
HETATM   14  N3  UNL     1       8.520   1.910  89.717  1.00  0.00    -0.277 N 
HETATM   15  C8  UNL     1       7.424   1.525  89.189  1.00  0.00     0.215 C 
HETATM   16  N4  UNL     1       7.026   0.180  89.327  1.00  0.00    -0.065 NA
HETATM   17  N5  UNL     1       6.635   2.455  88.477  1.00  0.00    -0.065 NA
ATOM     18  H3  UNL     1       8.779   2.889  89.597  1.00  0.00     0.189 HD
ENDBRANCH  12  14
ENDBRANCH   1  11
BRANCH   1  19
HETATM   19  C9  UNL     1       8.194   1.747  93.760  1.00  0.00     0.251 C 
HETATM   20  O3  UNL     1       7.672   2.515  94.606  1.00  0.00    -0.270 OA
HETATM   21  N6  UNL     1       8.495   0.423  94.164  1.00  0.00    -0.301 N 
HETATM   22  C10 UNL     1       9.305   0.221  95.143  1.00  0.00     0.203 C 
ATOM     23  H6  UNL     1       8.070  -0.368  93.680  1.00  0.00     0.171 HD
HETATM   24  N7  UNL     1       9.890   1.328  95.805  1.00  0.00    -0.066 NA
HETATM   25  N8  UNL     1       9.639  -1.092  95.587  1.00  0.00    -0.066 NA
ENDBRANCH   1  19
TORSDOF 6
ENDMDL
