MODEL 1
REMARK VINA RESULT: -7.776714912      0.000      0.000
REMARK  6 active torsions:
REMARK  status: ('A' for Active; 'I' for Inactive)
REMARK    1  A    between atoms: C4_5  and  N2_6 
REMARK       I    between atoms: N2_6  and  C5_8 
REMARK       I    between atoms: C5_8  and  N3_10 
REMARK    2  A    between atoms: N3_10  and  N4_12 
REMARK       I    between atoms: N4_12  and  C6_14 
REMARK    3  A    between atoms: C6_14  and  C7_16 
REMARK    4  A    between atoms: C8_17  and  C9_18 
REMARK    5  A    between atoms: C9_18  and  N5_20 
REMARK    6  A    between atoms: N5_20  and  N6_22 
ROOT
HETATM    1  N2  UNL     1       7.765   4.515  91.064  1.00  0.00    -0.337 N 
ATOM      2  H2  UNL     1       6.841   4.899  90.866  1.00  0.00     0.164 HD
HETATM    3  C5  UNL     1       8.738   5.309  91.782  1.00  0.00     0.335 C 
HETATM    4  O1  UNL     1       9.867   4.847  92.025  1.00  0.00    -0.246 OA
HETATM    5  N3  UNL     1       8.404   6.615  92.208  1.00  0.00    -0.249 N 
ATOM      6  H3  UNL     1       7.481   7.005  92.018  1.00  0.00     0.192 HD
ENDROOT
BRANCH   5   7
HETATM    7  N4  UNL     1       9.365   7.358  92.893  1.00  0.00    -0.263 N 
HETATM    8  C6  UNL     1       9.193   7.965  94.149  1.00  0.00     0.259 C 
HETATM    9  O2  UNL     1       8.116   7.890  94.798  1.00  0.00    -0.267 OA
ATOM     10  H4  UNL     1      10.274   7.470  92.443  1.00  0.00     0.190 HD
BRANCH   8  11
HETATM   11  C7  UNL     1      10.289   8.715  94.736  1.00  0.00     0.079 C 
HETATM   12  C8  UNL     1      11.507   8.238  94.688  1.00  0.00     0.048 C 
BRANCH  12  13
HETATM   13  C9  UNL     1      12.599   8.986  95.276  1.00  0.00     0.114 C 
HETATM   14  S1  UNL     1      12.401   9.619  96.764  1.00  0.00    -0.059 SA
BRANCH  13  15
HETATM   15  N5  UNL     1      13.827   9.179  94.606  1.00  0.00    -0.297 N 
ATOM     16  H5  UNL     1      13.964   8.790  93.674  1.00  0.00     0.187 HD
BRANCH  15  17
HETATM   17  N6  UNL     1      14.847   9.897  95.212  1.00  0.00    -0.344 N 
ATOM     18  H62 UNL     1      15.716   9.416  95.446  1.00  0.00     0.176 HD
ATOM     19  H61 UNL     1      14.726  10.888  95.420  1.00  0.00     0.176 HD
ENDBRANCH  15  17
ENDBRANCH  13  15
ENDBRANCH  12  13
ENDBRANCH   8  11
ENDBRANCH   5   7
BRANCH   1  20
HETATM   20  C4  UNL     1       8.096   3.195  90.634  1.00  0.00     0.089 C 
HETATM   21  C3  UNL     1       7.881   2.117  91.664  1.00  0.00     0.055 C 
HETATM   22  C2  UNL     1       8.728   0.923  91.251  1.00  0.00     0.274 C 
HETATM   23  N1  UNL     1       8.602   0.737  89.826  1.00  0.00     0.084 N 
HETATM   24  C1  UNL     1       8.646  -0.678  89.538  1.00  0.00     0.309 C 
HETATM   25  C11 UNL     1       7.383   1.281  89.274  1.00  0.00     0.274 C 
HETATM   26  C10 UNL     1       7.308   2.774  89.388  1.00  0.00     0.055 C 
ENDBRANCH   1  20
TORSDOF 6
ENDMDL
MODEL 2
REMARK VINA RESULT: -7.761896386      1.120      1.120
REMARK  6 active torsions:
REMARK  status: ('A' for Active; 'I' for Inactive)
REMARK    1  A    between atoms: C4_5  and  N2_6 
REMARK       I    between atoms: N2_6  and  C5_8 
REMARK       I    between atoms: C5_8  and  N3_10 
REMARK    2  A    between atoms: N3_10  and  N4_12 
REMARK       I    between atoms: N4_12  and  C6_14 
REMARK    3  A    between atoms: C6_14  and  C7_16 
REMARK    4  A    between atoms: C8_17  and  C9_18 
REMARK    5  A    between atoms: C9_18  and  N5_20 
REMARK    6  A    between atoms: N5_20  and  N6_22 
ROOT
HETATM    1  N2  UNL     1       7.702   4.570  91.112  1.00  0.00    -0.337 N 
ATOM      2  H2  UNL     1       6.782   4.940  90.873  1.00  0.00     0.164 HD
HETATM    3  C5  UNL     1       8.633   5.380  91.867  1.00  0.00     0.335 C 
HETATM    4  O1  UNL     1       9.757   4.936  92.159  1.00  0.00    -0.246 OA
HETATM    5  N3  UNL     1       8.262   6.683  92.273  1.00  0.00    -0.249 N 
ATOM      6  H3  UNL     1       7.342   7.059  92.043  1.00  0.00     0.192 HD
ENDROOT
BRANCH   5   7
HETATM    7  N4  UNL     1       9.183   7.442  92.996  1.00  0.00    -0.263 N 
HETATM    8  C6  UNL     1       8.928   8.109  94.206  1.00  0.00     0.259 C 
HETATM    9  O2  UNL     1       7.803   8.081  94.774  1.00  0.00    -0.267 OA
ATOM     10  H4  UNL     1      10.125   7.519  92.611  1.00  0.00     0.190 HD
BRANCH   8  11
HETATM   11  C7  UNL     1       9.991   8.868  94.840  1.00  0.00     0.079 C 
HETATM   12  C8  UNL     1      11.097   8.269  95.199  1.00  0.00     0.048 C 
BRANCH  12  13
HETATM   13  C9  UNL     1      12.155   9.028  95.833  1.00  0.00     0.114 C 
HETATM   14  S1  UNL     1      13.414   9.527  94.925  1.00  0.00    -0.059 SA
BRANCH  13  15
HETATM   15  N5  UNL     1      12.129   9.356  97.207  1.00  0.00    -0.297 N 
ATOM     16  H5  UNL     1      11.249   9.320  97.721  1.00  0.00     0.187 HD
BRANCH  15  17
HETATM   17  N6  UNL     1      13.296   9.724  97.859  1.00  0.00    -0.344 N 
ATOM     18  H62 UNL     1      13.341   9.638  98.875  1.00  0.00     0.176 HD
ATOM     19  H61 UNL     1      14.093  10.075  97.328  1.00  0.00     0.176 HD
ENDBRANCH  15  17
ENDBRANCH  13  15
ENDBRANCH  12  13
ENDBRANCH   8  11
ENDBRANCH   5   7
BRANCH   1  20
HETATM   20  C4  UNL     1       8.071   3.254  90.700  1.00  0.00     0.089 C 
HETATM   21  C3  UNL     1       7.771   2.167  91.701  1.00  0.00     0.055 C 
HETATM   22  C2  UNL     1       8.652   0.978  91.351  1.00  0.00     0.274 C 
HETATM   23  N1  UNL     1       8.646   0.803  89.919  1.00  0.00     0.084 N 
HETATM   24  C1  UNL     1       8.717  -0.610  89.626  1.00  0.00     0.309 C 
HETATM   25  C11 UNL     1       7.478   1.350  89.272  1.00  0.00     0.274 C 
HETATM   26  C10 UNL     1       7.391   2.841  89.390  1.00  0.00     0.055 C 
ENDBRANCH   1  20
TORSDOF 6
ENDMDL
MODEL 3
REMARK VINA RESULT: -7.470040964      3.478      8.634
REMARK  6 active torsions:
REMARK  status: ('A' for Active; 'I' for Inactive)
REMARK    1  A    between atoms: C4_5  and  N2_6 
REMARK       I    between atoms: N2_6  and  C5_8 
REMARK       I    between atoms: C5_8  and  N3_10 
REMARK    2  A    between atoms: N3_10  and  N4_12 
REMARK       I    between atoms: N4_12  and  C6_14 
REMARK    3  A    between atoms: C6_14  and  C7_16 
REMARK    4  A    between atoms: C8_17  and  C9_18 
REMARK    5  A    between atoms: C9_18  and  N5_20 
REMARK    6  A    between atoms: N5_20  and  N6_22 
ROOT
HETATM    1  N2  UNL     1       8.744   7.457  93.491  1.00  0.00    -0.337 N 
ATOM      2  H2  UNL     1       7.942   8.085  93.460  1.00  0.00     0.164 HD
HETATM    3  C5  UNL     1       8.711   6.205  92.767  1.00  0.00     0.335 C 
HETATM    4  O1  UNL     1       9.686   5.433  92.803  1.00  0.00    -0.246 OA
HETATM    5  N3  UNL     1       7.565   5.859  92.015  1.00  0.00    -0.249 N 
ATOM      6  H3  UNL     1       6.760   6.483  91.973  1.00  0.00     0.192 HD
ENDROOT
BRANCH   5   7
HETATM    7  N4  UNL     1       7.560   4.643  91.330  1.00  0.00    -0.263 N 
HETATM    8  C6  UNL     1       7.400   3.373  91.911  1.00  0.00     0.259 C 
HETATM    9  O2  UNL     1       7.236   3.208  93.150  1.00  0.00    -0.267 OA
ATOM     10  H4  UNL     1       7.685   4.679  90.318  1.00  0.00     0.190 HD
BRANCH   8  11
HETATM   11  C7  UNL     1       7.424   2.193  91.066  1.00  0.00     0.079 C 
HETATM   12  C8  UNL     1       7.386   2.321  89.764  1.00  0.00     0.048 C 
BRANCH  12  13
HETATM   13  C9  UNL     1       7.408   1.142  88.923  1.00  0.00     0.114 C 
HETATM   14  S1  UNL     1       5.993   0.538  88.386  1.00  0.00    -0.059 SA
BRANCH  13  15
HETATM   15  N5  UNL     1       8.611   0.505  88.548  1.00  0.00    -0.297 N 
ATOM     16  H5  UNL     1       9.110   0.812  87.714  1.00  0.00     0.187 HD
BRANCH  15  17
HETATM   17  N6  UNL     1       9.116  -0.537  89.311  1.00  0.00    -0.344 N 
ATOM     18  H62 UNL     1      10.101  -0.786  89.214  1.00  0.00     0.176 HD
ATOM     19  H61 UNL     1       8.510  -1.044  89.955  1.00  0.00     0.176 HD
ENDBRANCH  15  17
ENDBRANCH  13  15
ENDBRANCH  12  13
ENDBRANCH   8  11
ENDBRANCH   5   7
BRANCH   1  20
HETATM   20  C4  UNL     1       9.899   7.812  94.251  1.00  0.00     0.089 C 
HETATM   21  C3  UNL     1      11.153   8.022  93.442  1.00  0.00     0.055 C 
HETATM   22  C2  UNL     1      12.332   7.883  94.393  1.00  0.00     0.274 C 
HETATM   23  N1  UNL     1      12.020   8.573  95.620  1.00  0.00     0.084 N 
HETATM   24  C1  UNL     1      13.232   9.158  96.143  1.00  0.00     0.309 C 
HETATM   25  C11 UNL     1      11.034   9.617  95.466  1.00  0.00     0.274 C 
HETATM   26  C10 UNL     1       9.688   9.092  95.068  1.00  0.00     0.055 C 
ENDBRANCH   1  20
TORSDOF 6
ENDMDL
MODEL 4
REMARK VINA RESULT: -7.447534538      4.767      9.918
REMARK  6 active torsions:
REMARK  status: ('A' for Active; 'I' for Inactive)
REMARK    1  A    between atoms: C4_5  and  N2_6 
REMARK       I    between atoms: N2_6  and  C5_8 
REMARK       I    between atoms: C5_8  and  N3_10 
REMARK    2  A    between atoms: N3_10  and  N4_12 
REMARK       I    between atoms: N4_12  and  C6_14 
REMARK    3  A    between atoms: C6_14  and  C7_16 
REMARK    4  A    between atoms: C8_17  and  C9_18 
REMARK    5  A    between atoms: C9_18  and  N5_20 
REMARK    6  A    between atoms: N5_20  and  N6_22 
ROOT
HETATM    1  N2  UNL     1       9.150   5.034  91.611  1.00  0.00    -0.337 N 
ATOM      2  H2  UNL     1      10.074   4.756  91.280  1.00  0.00     0.164 HD
HETATM    3  C5  UNL     1       7.990   4.241  91.268  1.00  0.00     0.335 C 
HETATM    4  O1  UNL     1       6.861   4.576  91.667  1.00  0.00    -0.246 OA
HETATM    5  N3  UNL     1       8.142   3.080  90.475  1.00  0.00    -0.249 N 
ATOM      6  H3  UNL     1       9.062   2.791  90.144  1.00  0.00     0.192 HD
ENDROOT
BRANCH   5   7
HETATM    7  N4  UNL     1       7.004   2.338  90.157  1.00  0.00    -0.263 N 
HETATM    8  C6  UNL     1       6.883   1.440  89.082  1.00  0.00     0.259 C 
HETATM    9  O2  UNL     1       7.826   1.210  88.279  1.00  0.00    -0.267 OA
ATOM     10  H4  UNL     1       6.188   2.458  90.757  1.00  0.00     0.190 HD
BRANCH   8  11
HETATM   11  C7  UNL     1       5.627   0.742  88.874  1.00  0.00     0.079 C 
HETATM   12  C8  UNL     1       5.048   0.774  87.701  1.00  0.00     0.048 C 
BRANCH  12  13
HETATM   13  C9  UNL     1       3.794   0.078  87.497  1.00  0.00     0.114 C 
HETATM   14  S1  UNL     1       2.966  -0.442  88.800  1.00  0.00    -0.059 SA
BRANCH  13  15
HETATM   15  N5  UNL     1       3.264  -0.158  86.209  1.00  0.00    -0.297 N 
ATOM     16  H5  UNL     1       3.668  -0.884  85.619  1.00  0.00     0.187 HD
BRANCH  15  17
HETATM   17  N6  UNL     1       2.195   0.594  85.746  1.00  0.00    -0.344 N 
ATOM     18  H62 UNL     1       2.381   1.492  85.299  1.00  0.00     0.176 HD
ATOM     19  H61 UNL     1       1.240   0.250  85.852  1.00  0.00     0.176 HD
ENDBRANCH  15  17
ENDBRANCH  13  15
ENDBRANCH  12  13
ENDBRANCH   8  11
ENDBRANCH   5   7
BRANCH   1  20
HETATM   20  C4  UNL     1       9.003   6.206  92.413  1.00  0.00     0.089 C 
HETATM   21  C3  UNL     1       8.178   6.024  93.661  1.00  0.00     0.055 C 
HETATM   22  C2  UNL     1       7.708   7.403  94.096  1.00  0.00     0.274 C 
HETATM   23  N1  UNL     1       8.805   8.329  93.963  1.00  0.00     0.084 N 
HETATM   24  C1  UNL     1       8.721   9.303  95.026  1.00  0.00     0.309 C 
HETATM   25  C11 UNL     1      10.105   7.702  94.015  1.00  0.00     0.274 C 
HETATM   26  C10 UNL     1      10.352   6.779  92.860  1.00  0.00     0.055 C 
ENDBRANCH   1  20
TORSDOF 6
ENDMDL
MODEL 5
REMARK VINA RESULT: -7.420145706      0.852      1.382
REMARK  6 active torsions:
REMARK  status: ('A' for Active; 'I' for Inactive)
REMARK    1  A    between atoms: C4_5  and  N2_6 
REMARK       I    between atoms: N2_6  and  C5_8 
REMARK       I    between atoms: C5_8  and  N3_10 
REMARK    2  A    between atoms: N3_10  and  N4_12 
REMARK       I    between atoms: N4_12  and  C6_14 
REMARK    3  A    between atoms: C6_14  and  C7_16 
REMARK    4  A    between atoms: C8_17  and  C9_18 
REMARK    5  A    between atoms: C9_18  and  N5_20 
REMARK    6  A    between atoms: N5_20  and  N6_22 
ROOT
HETATM    1  N2  UNL     1       7.676   5.134  91.612  1.00  0.00    -0.337 N 
ATOM      2  H2  UNL     1       6.809   5.624  91.392  1.00  0.00     0.164 HD
HETATM    3  C5  UNL     1       8.743   5.827  92.302  1.00  0.00     0.335 C 
HETATM    4  O1  UNL     1       9.803   5.235  92.571  1.00  0.00    -0.246 OA
HETATM    5  N3  UNL     1       8.577   7.182  92.671  1.00  0.00    -0.249 N 
ATOM      6  H3  UNL     1       7.711   7.678  92.459  1.00  0.00     0.192 HD
ENDROOT
BRANCH   5   7
HETATM    7  N4  UNL     1       9.625   7.824  93.331  1.00  0.00    -0.263 N 
HETATM    8  C6  UNL     1       9.518   8.551  94.528  1.00  0.00     0.259 C 
HETATM    9  O2  UNL     1       8.427   8.693  95.143  1.00  0.00    -0.267 OA
ATOM     10  H4  UNL     1      10.550   7.761  92.906  1.00  0.00     0.190 HD
BRANCH   8  11
HETATM   11  C7  UNL     1      10.703   9.172  95.094  1.00  0.00     0.079 C 
HETATM   12  C8  UNL     1      11.886   8.675  94.840  1.00  0.00     0.048 C 
BRANCH  12  13
HETATM   13  C9  UNL     1      13.066   9.294  95.408  1.00  0.00     0.114 C 
HETATM   14  S1  UNL     1      13.071   9.659  96.996  1.00  0.00    -0.059 SA
BRANCH  13  15
HETATM   15  N5  UNL     1      14.211   9.586  94.634  1.00  0.00    -0.297 N 
ATOM     16  H5  UNL     1      14.174   9.498  93.619  1.00  0.00     0.187 HD
BRANCH  15  17
HETATM   17  N6  UNL     1      15.385   9.991  95.250  1.00  0.00    -0.344 N 
ATOM     18  H62 UNL     1      15.383  10.854  95.795  1.00  0.00     0.176 HD
ATOM     19  H61 UNL     1      16.234   9.433  95.156  1.00  0.00     0.176 HD
ENDBRANCH  15  17
ENDBRANCH  13  15
ENDBRANCH  12  13
ENDBRANCH   8  11
ENDBRANCH   5   7
BRANCH   1  20
HETATM   20  C4  UNL     1       7.837   3.765  91.239  1.00  0.00     0.089 C 
HETATM   21  C3  UNL     1       8.691   3.534  90.019  1.00  0.00     0.055 C 
HETATM   22  C2  UNL     1       8.347   2.153  89.483  1.00  0.00     0.274 C 
HETATM   23  N1  UNL     1       8.235   1.240  90.593  1.00  0.00     0.084 N 
HETATM   24  C1  UNL     1       8.719  -0.055  90.178  1.00  0.00     0.309 C 
HETATM   25  C11 UNL     1       8.973   1.655  91.763  1.00  0.00     0.274 C 
HETATM   26  C10 UNL     1       8.446   2.923  92.365  1.00  0.00     0.055 C 
ENDBRANCH   1  20
TORSDOF 6
ENDMDL
