MODEL 1
REMARK VINA RESULT: -7.667907747      0.000      0.000
REMARK  7 active torsions:
REMARK  status: ('A' for Active; 'I' for Inactive)
REMARK    1  A    between atoms: N2_7  and  C6_8 
REMARK    2  A    between atoms: C6_8  and  C7_9 
REMARK    3  A    between atoms: C7_9  and  N3_10 
REMARK       I    between atoms: N3_10  and  C8_12 
REMARK       I    between atoms: C8_12  and  N4_14 
REMARK    4  A    between atoms: N4_14  and  N5_16 
REMARK    5  A    between atoms: N5_16  and  C9_18 
REMARK    6  A    between atoms: C9_18  and  N6_20 
REMARK    7  A    between atoms: N6_20  and  N7_22 
ROOT
HETATM    1  N3  UNL     1       7.037   3.295  92.428  1.00  0.00    -0.337 N 
ATOM      2  H3  UNL     1       6.574   3.069  91.547  1.00  0.00     0.164 HD
HETATM    3  C8  UNL     1       6.290   3.276  93.633  1.00  0.00     0.335 C 
HETATM    4  O1  UNL     1       6.882   3.574  94.702  1.00  0.00    -0.246 OA
HETATM    5  N4  UNL     1       4.928   2.935  93.652  1.00  0.00    -0.249 N 
ATOM      6  H4  UNL     1       4.451   2.694  92.784  1.00  0.00     0.192 HD
ENDROOT
BRANCH   1   7
HETATM    7  C7  UNL     1       8.429   3.628  92.424  1.00  0.00     0.169 C 
BRANCH   7   8
HETATM    8  C6  UNL     1       8.747   4.973  91.772  1.00  0.00     0.092 C 
BRANCH   8   9
HETATM    9  N2  UNL     1       9.108   5.866  92.760  1.00  0.00    -0.325 N 
HETATM   10  C5  UNL     1       8.339   6.609  93.530  1.00  0.00    -0.068 C 
HETATM   11  C4  UNL     1       7.196   7.204  94.123  1.00  0.00     0.109 C 
HETATM   12  C3  UNL     1       7.796   8.354  94.994  1.00  0.00     0.057 C 
HETATM   13  C2  UNL     1       9.013   8.995  94.452  1.00  0.00     0.063 C 
HETATM   14  N1  UNL     1      10.277   8.348  94.421  1.00  0.00    -0.377 N 
HETATM   15  C1  UNL     1      11.061   8.347  95.568  1.00  0.00     0.154 C 
HETATM   16  C11 UNL     1      10.698   7.756  93.229  1.00  0.00     0.083 C 
HETATM   17  C10 UNL     1      10.469   6.349  92.835  1.00  0.00     0.181 C 
ENDBRANCH   8   9
ENDBRANCH   7   8
ENDBRANCH   1   7
BRANCH   5  18
HETATM   18  N5  UNL     1       4.230   2.927  94.854  1.00  0.00    -0.271 N 
ATOM     19  H5  UNL     1       4.700   3.283  95.686  1.00  0.00     0.189 HD
BRANCH  18  20
HETATM   20  C9  UNL     1       2.920   2.458  94.986  1.00  0.00     0.205 C 
HETATM   21  S1  UNL     1       2.676   0.836  94.761  1.00  0.00    -0.038 SA
BRANCH  20  22
HETATM   22  N6  UNL     1       1.840   3.318  95.293  1.00  0.00    -0.282 N 
ATOM     23  H6  UNL     1       1.893   3.919  96.115  1.00  0.00     0.189 HD
BRANCH  22  24
HETATM   24  N7  UNL     1       0.690   3.356  94.476  1.00  0.00    -0.343 N 
ATOM     25  H72 UNL     1       0.054   4.148  94.565  1.00  0.00     0.176 HD
ATOM     26  H71 UNL     1       0.496   2.608  93.811  1.00  0.00     0.176 HD
ENDBRANCH  22  24
ENDBRANCH  20  22
ENDBRANCH  18  20
ENDBRANCH   5  18
TORSDOF 7
ENDMDL
MODEL 2
REMARK VINA RESULT: -7.323737145      0.918      1.007
REMARK  7 active torsions:
REMARK  status: ('A' for Active; 'I' for Inactive)
REMARK    1  A    between atoms: N2_7  and  C6_8 
REMARK    2  A    between atoms: C6_8  and  C7_9 
REMARK    3  A    between atoms: C7_9  and  N3_10 
REMARK       I    between atoms: N3_10  and  C8_12 
REMARK       I    between atoms: C8_12  and  N4_14 
REMARK    4  A    between atoms: N4_14  and  N5_16 
REMARK    5  A    between atoms: N5_16  and  C9_18 
REMARK    6  A    between atoms: C9_18  and  N6_20 
REMARK    7  A    between atoms: N6_20  and  N7_22 
ROOT
HETATM    1  N3  UNL     1       7.022   3.296  92.517  1.00  0.00    -0.337 N 
ATOM      2  H3  UNL     1       6.620   3.053  91.611  1.00  0.00     0.164 HD
HETATM    3  C8  UNL     1       6.201   3.272  93.673  1.00  0.00     0.335 C 
HETATM    4  O1  UNL     1       6.717   3.591  94.774  1.00  0.00    -0.246 OA
HETATM    5  N4  UNL     1       4.847   2.904  93.610  1.00  0.00    -0.249 N 
ATOM      6  H4  UNL     1       4.431   2.646  92.715  1.00  0.00     0.192 HD
ENDROOT
BRANCH   1   7
HETATM    7  C7  UNL     1       8.405   3.657  92.598  1.00  0.00     0.169 C 
BRANCH   7   8
HETATM    8  C6  UNL     1       8.748   4.973  91.901  1.00  0.00     0.092 C 
BRANCH   8   9
HETATM    9  N2  UNL     1       9.123   5.893  92.859  1.00  0.00    -0.325 N 
HETATM   10  C5  UNL     1       8.365   6.669  93.607  1.00  0.00    -0.068 C 
HETATM   11  C4  UNL     1       7.232   7.297  94.183  1.00  0.00     0.109 C 
HETATM   12  C3  UNL     1       7.848   8.467  95.016  1.00  0.00     0.057 C 
HETATM   13  C2  UNL     1       9.071   9.076  94.450  1.00  0.00     0.063 C 
HETATM   14  N1  UNL     1      10.327   8.413  94.436  1.00  0.00    -0.377 N 
HETATM   15  C1  UNL     1      11.115   8.439  95.580  1.00  0.00     0.154 C 
HETATM   16  C11 UNL     1      10.737   7.777  93.262  1.00  0.00     0.083 C 
HETATM   17  C10 UNL     1      10.490   6.361  92.915  1.00  0.00     0.181 C 
ENDBRANCH   8   9
ENDBRANCH   7   8
ENDBRANCH   1   7
BRANCH   5  18
HETATM   18  N5  UNL     1       4.075   2.892  94.765  1.00  0.00    -0.271 N 
ATOM     19  H5  UNL     1       4.482   3.270  95.620  1.00  0.00     0.189 HD
BRANCH  18  20
HETATM   20  C9  UNL     1       2.770   2.392  94.820  1.00  0.00     0.205 C 
HETATM   21  S1  UNL     1       1.872   2.480  93.432  1.00  0.00    -0.038 SA
BRANCH  20  22
HETATM   22  N6  UNL     1       2.227   1.837  96.003  1.00  0.00    -0.282 N 
ATOM     23  H6  UNL     1       2.118   2.423  96.830  1.00  0.00     0.189 HD
BRANCH  22  24
HETATM   24  N7  UNL     1       1.833   0.484  96.052  1.00  0.00    -0.343 N 
ATOM     25  H72 UNL     1       2.501  -0.207  96.393  1.00  0.00     0.176 HD
ATOM     26  H71 UNL     1       0.900   0.199  95.753  1.00  0.00     0.176 HD
ENDBRANCH  22  24
ENDBRANCH  20  22
ENDBRANCH  18  20
ENDBRANCH   5  18
TORSDOF 7
ENDMDL
MODEL 3
REMARK VINA RESULT: -7.308656614      4.383      7.920
REMARK  7 active torsions:
REMARK  status: ('A' for Active; 'I' for Inactive)
REMARK    1  A    between atoms: N2_7  and  C6_8 
REMARK    2  A    between atoms: C6_8  and  C7_9 
REMARK    3  A    between atoms: C7_9  and  N3_10 
REMARK       I    between atoms: N3_10  and  C8_12 
REMARK       I    between atoms: C8_12  and  N4_14 
REMARK    4  A    between atoms: N4_14  and  N5_16 
REMARK    5  A    between atoms: N5_16  and  C9_18 
REMARK    6  A    between atoms: C9_18  and  N6_20 
REMARK    7  A    between atoms: N6_20  and  N7_22 
ROOT
HETATM    1  N3  UNL     1       8.393   7.407  93.664  1.00  0.00    -0.337 N 
ATOM      2  H3  UNL     1       7.617   7.511  94.318  1.00  0.00     0.164 HD
HETATM    3  C8  UNL     1       9.611   8.090  93.911  1.00  0.00     0.335 C 
HETATM    4  O1  UNL     1      10.545   7.956  93.080  1.00  0.00    -0.246 OA
HETATM    5  N4  UNL     1       9.787   8.898  95.047  1.00  0.00    -0.249 N 
ATOM      6  H4  UNL     1       9.027   9.004  95.719  1.00  0.00     0.192 HD
ENDROOT
BRANCH   1   7
HETATM    7  C7  UNL     1       8.232   6.573  92.512  1.00  0.00     0.169 C 
BRANCH   7   8
HETATM    8  C6  UNL     1       7.086   5.568  92.624  1.00  0.00     0.092 C 
BRANCH   8   9
HETATM    9  N2  UNL     1       7.618   4.321  92.882  1.00  0.00    -0.325 N 
HETATM   10  C5  UNL     1       8.450   3.606  92.152  1.00  0.00    -0.068 C 
HETATM   11  C4  UNL     1       9.309   3.190  91.104  1.00  0.00     0.109 C 
HETATM   12  C3  UNL     1       9.585   1.688  91.432  1.00  0.00     0.057 C 
HETATM   13  C2  UNL     1       8.468   0.961  92.074  1.00  0.00     0.063 C 
HETATM   14  N1  UNL     1       8.069   1.191  93.417  1.00  0.00    -0.377 N 
HETATM   15  C1  UNL     1       8.767   0.567  94.443  1.00  0.00     0.154 C 
HETATM   16  C11 UNL     1       6.971   2.020  93.659  1.00  0.00     0.083 C 
HETATM   17  C10 UNL     1       7.026   3.478  93.897  1.00  0.00     0.181 C 
ENDBRANCH   8   9
ENDBRANCH   7   8
ENDBRANCH   1   7
BRANCH   5  18
HETATM   18  N5  UNL     1      10.995   9.551  95.254  1.00  0.00    -0.271 N 
ATOM     19  H5  UNL     1      11.072  10.526  94.964  1.00  0.00     0.189 HD
BRANCH  18  20
HETATM   20  C9  UNL     1      12.112   8.947  95.839  1.00  0.00     0.205 C 
HETATM   21  S1  UNL     1      12.680   9.617  97.242  1.00  0.00    -0.038 SA
BRANCH  20  22
HETATM   22  N6  UNL     1      12.743   7.817  95.267  1.00  0.00    -0.282 N 
ATOM     23  H6  UNL     1      12.713   6.922  95.755  1.00  0.00     0.189 HD
BRANCH  22  24
HETATM   24  N7  UNL     1      13.413   7.913  94.029  1.00  0.00    -0.343 N 
ATOM     25  H72 UNL     1      13.284   7.167  93.345  1.00  0.00     0.176 HD
ATOM     26  H71 UNL     1      14.015   8.709  93.820  1.00  0.00     0.176 HD
ENDBRANCH  22  24
ENDBRANCH  20  22
ENDBRANCH  18  20
ENDBRANCH   5  18
TORSDOF 7
ENDMDL
MODEL 4
REMARK VINA RESULT: -7.277882137      4.921      5.877
REMARK  7 active torsions:
REMARK  status: ('A' for Active; 'I' for Inactive)
REMARK    1  A    between atoms: N2_7  and  C6_8 
REMARK    2  A    between atoms: C6_8  and  C7_9 
REMARK    3  A    between atoms: C7_9  and  N3_10 
REMARK       I    between atoms: N3_10  and  C8_12 
REMARK       I    between atoms: C8_12  and  N4_14 
REMARK    4  A    between atoms: N4_14  and  N5_16 
REMARK    5  A    between atoms: N5_16  and  C9_18 
REMARK    6  A    between atoms: C9_18  and  N6_20 
REMARK    7  A    between atoms: N6_20  and  N7_22 
ROOT
HETATM    1  N3  UNL     1       6.616   1.646  89.099  1.00  0.00    -0.337 N 
ATOM      2  H3  UNL     1       6.498   2.653  89.213  1.00  0.00     0.164 HD
HETATM    3  C8  UNL     1       5.483   0.838  88.828  1.00  0.00     0.335 C 
HETATM    4  O1  UNL     1       5.654  -0.402  88.707  1.00  0.00    -0.246 OA
HETATM    5  N4  UNL     1       4.198   1.389  88.696  1.00  0.00    -0.249 N 
ATOM      6  H4  UNL     1       4.062   2.395  88.794  1.00  0.00     0.192 HD
ENDROOT
BRANCH   1   7
HETATM    7  C7  UNL     1       7.923   1.075  89.215  1.00  0.00     0.169 C 
BRANCH   7   8
HETATM    8  C6  UNL     1       8.371   0.829  90.656  1.00  0.00     0.092 C 
BRANCH   8   9
HETATM    9  N2  UNL     1       8.524   2.049  91.283  1.00  0.00    -0.325 N 
HETATM   10  C5  UNL     1       7.770   2.608  92.208  1.00  0.00    -0.068 C 
HETATM   11  C4  UNL     1       6.735   2.831  93.151  1.00  0.00     0.109 C 
HETATM   12  C3  UNL     1       6.916   4.333  93.541  1.00  0.00     0.057 C 
HETATM   13  C2  UNL     1       7.410   5.217  92.462  1.00  0.00     0.063 C 
HETATM   14  N1  UNL     1       8.745   5.172  91.980  1.00  0.00    -0.377 N 
HETATM   15  C1  UNL     1       9.737   5.847  92.680  1.00  0.00     0.154 C 
HETATM   16  C11 UNL     1       9.010   4.468  90.803  1.00  0.00     0.083 C 
HETATM   17  C10 UNL     1       9.406   3.046  90.718  1.00  0.00     0.181 C 
ENDBRANCH   8   9
ENDBRANCH   7   8
ENDBRANCH   1   7
BRANCH   5  18
HETATM   18  N5  UNL     1       3.112   0.564  88.430  1.00  0.00    -0.271 N 
ATOM     19  H5  UNL     1       2.899  -0.180  89.094  1.00  0.00     0.189 HD
BRANCH  18  20
HETATM   20  C9  UNL     1       2.294   0.698  87.304  1.00  0.00     0.205 C 
HETATM   21  S1  UNL     1       0.844   1.467  87.515  1.00  0.00    -0.038 SA
BRANCH  20  22
HETATM   22  N6  UNL     1       2.673   0.198  86.035  1.00  0.00    -0.282 N 
ATOM     23  H6  UNL     1       3.508  -0.380  85.951  1.00  0.00     0.189 HD
BRANCH  22  24
HETATM   24  N7  UNL     1       1.910   0.491  84.886  1.00  0.00    -0.343 N 
ATOM     25  H72 UNL     1       1.024   0.984  85.000  1.00  0.00     0.176 HD
ATOM     26  H71 UNL     1       2.235   0.218  83.958  1.00  0.00     0.176 HD
ENDBRANCH  22  24
ENDBRANCH  20  22
ENDBRANCH  18  20
ENDBRANCH   5  18
TORSDOF 7
ENDMDL
MODEL 5
REMARK VINA RESULT: -7.248051573      3.421      4.863
REMARK  7 active torsions:
REMARK  status: ('A' for Active; 'I' for Inactive)
REMARK    1  A    between atoms: N2_7  and  C6_8 
REMARK    2  A    between atoms: C6_8  and  C7_9 
REMARK    3  A    between atoms: C7_9  and  N3_10 
REMARK       I    between atoms: N3_10  and  C8_12 
REMARK       I    between atoms: C8_12  and  N4_14 
REMARK    4  A    between atoms: N4_14  and  N5_16 
REMARK    5  A    between atoms: N5_16  and  C9_18 
REMARK    6  A    between atoms: C9_18  and  N6_20 
REMARK    7  A    between atoms: N6_20  and  N7_22 
ROOT
HETATM    1  N3  UNL     1       6.905   4.938  91.941  1.00  0.00    -0.337 N 
ATOM      2  H3  UNL     1       6.131   5.308  91.389  1.00  0.00     0.164 HD
HETATM    3  C8  UNL     1       7.713   3.904  91.401  1.00  0.00     0.335 C 
HETATM    4  O1  UNL     1       8.651   3.455  92.108  1.00  0.00    -0.246 OA
HETATM    5  N4  UNL     1       7.486   3.384  90.116  1.00  0.00    -0.249 N 
ATOM      6  H4  UNL     1       6.725   3.751  89.545  1.00  0.00     0.192 HD
ENDROOT
BRANCH   1   7
HETATM    7  C7  UNL     1       7.157   5.470  93.245  1.00  0.00     0.169 C 
BRANCH   7   8
HETATM    8  C6  UNL     1       7.467   6.967  93.258  1.00  0.00     0.092 C 
BRANCH   8   9
HETATM    9  N2  UNL     1       8.770   7.142  93.680  1.00  0.00    -0.325 N 
HETATM   10  C5  UNL     1       9.259   8.036  94.515  1.00  0.00    -0.068 C 
HETATM   11  C4  UNL     1       9.361   9.120  95.424  1.00  0.00     0.109 C 
HETATM   12  C3  UNL     1      10.902   9.333  95.566  1.00  0.00     0.057 C 
HETATM   13  C2  UNL     1      11.699   9.047  94.354  1.00  0.00     0.063 C 
HETATM   14  N1  UNL     1      11.917   7.731  93.866  1.00  0.00    -0.377 N 
HETATM   15  C1  UNL     1      12.923   6.960  94.435  1.00  0.00     0.154 C 
HETATM   16  C11 UNL     1      11.126   7.266  92.813  1.00  0.00     0.083 C 
HETATM   17  C10 UNL     1       9.855   6.524  92.951  1.00  0.00     0.181 C 
ENDBRANCH   8   9
ENDBRANCH   7   8
ENDBRANCH   1   7
BRANCH   5  18
HETATM   18  N5  UNL     1       8.299   2.372  89.623  1.00  0.00    -0.271 N 
ATOM     19  H5  UNL     1       9.304   2.442  89.780  1.00  0.00     0.189 HD
BRANCH  18  20
HETATM   20  C9  UNL     1       7.817   1.262  88.922  1.00  0.00     0.205 C 
HETATM   21  S1  UNL     1       6.194   1.227  88.596  1.00  0.00    -0.038 SA
BRANCH  20  22
HETATM   22  N6  UNL     1       8.664   0.207  88.509  1.00  0.00    -0.282 N 
ATOM     23  H6  UNL     1       8.820   0.047  87.514  1.00  0.00     0.189 HD
BRANCH  22  24
HETATM   24  N7  UNL     1       9.295  -0.627  89.455  1.00  0.00    -0.343 N 
ATOM     25  H72 UNL     1       9.920  -0.202  90.141  1.00  0.00     0.176 HD
ATOM     26  H71 UNL     1       9.133  -1.634  89.457  1.00  0.00     0.176 HD
ENDBRANCH  22  24
ENDBRANCH  20  22
ENDBRANCH  18  20
ENDBRANCH   5  18
TORSDOF 7
ENDMDL
