MODEL 1
REMARK VINA RESULT: -5.438704955      0.000      0.000
REMARK  2 active torsions:
REMARK  status: ('A' for Active; 'I' for Inactive)
REMARK    1  A    between atoms: C11_13  and  O1_15 
REMARK    2  A    between atoms: C15_20  and  O3_21 
ROOT
HETATM    1  C1  UNL     1      41.554   0.773  32.496  1.00  0.00     0.043 C 
HETATM    2  C2  UNL     1      40.125   0.673  31.999  1.00  0.00    -0.085 C 
HETATM    3  C3  UNL     1      40.148   0.313  30.721  1.00  0.00     0.005 C 
HETATM    4  C4  UNL     1      39.179   0.031  29.625  1.00  0.00     0.155 C 
HETATM    5  N1  UNL     1      38.756   1.185  28.938  1.00  0.00    -0.406 N 
ATOM      6  H1  UNL     1      37.952   1.158  28.311  1.00  0.00     0.154 HD
HETATM    7  C5  UNL     1      39.485   2.390  29.146  1.00  0.00     0.073 C 
HETATM    8  C6  UNL     1      40.298   2.633  27.866  1.00  0.00     0.032 C 
HETATM    9  C7  UNL     1      38.577   3.590  29.456  1.00  0.00     0.025 C 
HETATM   10  C8  UNL     1      37.239   3.200  29.932  1.00  0.00     0.009 C 
HETATM   11  C9  UNL     1      36.871   3.309  31.332  1.00  0.00     0.016 C 
HETATM   12  C10 UNL     1      36.573   4.813  31.552  1.00  0.00     0.013 C 
HETATM   13  C11 UNL     1      37.635   2.847  32.484  1.00  0.00     0.063 C 
HETATM   14  C12 UNL     1      38.917   3.682  32.679  1.00  0.00     0.046 C 
HETATM   15  C13 UNL     1      37.822   1.421  32.808  1.00  0.00     0.048 C 
HETATM   16  C14 UNL     1      37.070   0.412  31.988  1.00  0.00     0.179 C 
HETATM   17  O2  UNL     1      37.960  -0.561  31.559  1.00  0.00    -0.359 OA
HETATM   18  C15 UNL     1      38.028  -0.794  30.223  1.00  0.00     0.282 C 
HETATM   19  C16 UNL     1      39.251   1.007  33.102  1.00  0.00     0.043 C 
ENDROOT
BRANCH  13  20
HETATM   20  O1  UNL     1      36.851   3.405  33.560  1.00  0.00    -0.389 OA
ATOM     21  H1  UNL     1      36.365   4.074  33.092  1.00  0.00     0.210 HD
ENDBRANCH  13  20
BRANCH  18  22
HETATM   22  O3  UNL     1      36.852  -0.648  29.521  1.00  0.00    -0.369 OA
ATOM     23  H3  UNL     1      36.238  -1.355  29.685  1.00  0.00     0.212 HD
ENDBRANCH  18  22
TORSDOF 2
ENDMDL
MODEL 2
REMARK VINA RESULT: -5.426625220      2.939      6.108
REMARK  2 active torsions:
REMARK  status: ('A' for Active; 'I' for Inactive)
REMARK    1  A    between atoms: C11_13  and  O1_15 
REMARK    2  A    between atoms: C15_20  and  O3_21 
ROOT
HETATM    1  C1  UNL     1      38.061   8.064  29.524  1.00  0.00     0.043 C 
HETATM    2  C2  UNL     1      37.200   7.197  30.422  1.00  0.00    -0.085 C 
HETATM    3  C3  UNL     1      37.417   7.553  31.683  1.00  0.00     0.005 C 
HETATM    4  C4  UNL     1      36.952   7.168  33.045  1.00  0.00     0.155 C 
HETATM    5  N1  UNL     1      37.656   6.077  33.592  1.00  0.00    -0.406 N 
ATOM      6  H1  UNL     1      37.310   5.589  34.418  1.00  0.00     0.154 HD
HETATM    7  C5  UNL     1      38.865   5.678  32.956  1.00  0.00     0.073 C 
HETATM    8  C6  UNL     1      40.010   6.129  33.875  1.00  0.00     0.032 C 
HETATM    9  C7  UNL     1      38.931   4.165  32.698  1.00  0.00     0.025 C 
HETATM   10  C8  UNL     1      37.611   3.514  32.713  1.00  0.00     0.009 C 
HETATM   11  C9  UNL     1      36.956   3.100  31.486  1.00  0.00     0.016 C 
HETATM   12  C10 UNL     1      37.664   1.783  31.078  1.00  0.00     0.013 C 
HETATM   13  C11 UNL     1      36.777   3.887  30.272  1.00  0.00     0.063 C 
HETATM   14  C12 UNL     1      38.121   4.134  29.559  1.00  0.00     0.046 C 
HETATM   15  C13 UNL     1      35.860   5.037  30.186  1.00  0.00     0.048 C 
HETATM   16  C14 UNL     1      34.972   5.315  31.365  1.00  0.00     0.179 C 
HETATM   17  O2  UNL     1      35.083   6.657  31.696  1.00  0.00    -0.359 OA
HETATM   18  C15 UNL     1      35.432   6.954  32.975  1.00  0.00     0.282 C 
HETATM   19  C16 UNL     1      36.453   6.293  29.577  1.00  0.00     0.043 C 
ENDROOT
BRANCH  13  20
HETATM   20  O1  UNL     1      36.246   2.881  29.382  1.00  0.00    -0.389 OA
ATOM     21  H1  UNL     1      36.788   3.025  28.615  1.00  0.00     0.210 HD
ENDBRANCH  13  20
BRANCH  18  22
HETATM   22  O3  UNL     1      34.972   6.092  33.945  1.00  0.00    -0.369 OA
ATOM     23  H3  UNL     1      34.833   5.211  33.616  1.00  0.00     0.212 HD
ENDBRANCH  18  22
TORSDOF 2
ENDMDL
MODEL 3
REMARK VINA RESULT: -5.146806556      4.304      5.991
REMARK  2 active torsions:
REMARK  status: ('A' for Active; 'I' for Inactive)
REMARK    1  A    between atoms: C11_13  and  O1_15 
REMARK    2  A    between atoms: C15_20  and  O3_21 
ROOT
HETATM    1  C1  UNL     1      37.413   3.961  28.765  1.00  0.00     0.043 C 
HETATM    2  C2  UNL     1      36.294   4.611  29.556  1.00  0.00    -0.085 C 
HETATM    3  C3  UNL     1      35.625   5.425  28.746  1.00  0.00     0.005 C 
HETATM    4  C4  UNL     1      34.460   6.351  28.812  1.00  0.00     0.155 C 
HETATM    5  N1  UNL     1      34.792   7.640  29.273  1.00  0.00    -0.406 N 
ATOM      6  H1  UNL     1      34.068   8.300  29.556  1.00  0.00     0.154 HD
HETATM    7  C5  UNL     1      36.170   7.992  29.332  1.00  0.00     0.073 C 
HETATM    8  C6  UNL     1      36.418   8.975  28.178  1.00  0.00     0.032 C 
HETATM    9  C7  UNL     1      36.569   8.616  30.679  1.00  0.00     0.025 C 
HETATM   10  C8  UNL     1      35.625   8.307  31.765  1.00  0.00     0.009 C 
HETATM   11  C9  UNL     1      35.943   7.330  32.791  1.00  0.00     0.016 C 
HETATM   12  C10 UNL     1      36.905   8.063  33.759  1.00  0.00     0.013 C 
HETATM   13  C11 UNL     1      36.470   5.985  32.596  1.00  0.00     0.063 C 
HETATM   14  C12 UNL     1      37.920   6.020  32.075  1.00  0.00     0.046 C 
HETATM   15  C13 UNL     1      35.677   4.885  32.018  1.00  0.00     0.048 C 
HETATM   16  C14 UNL     1      34.221   5.135  31.752  1.00  0.00     0.179 C 
HETATM   17  O2  UNL     1      33.933   4.739  30.454  1.00  0.00    -0.359 OA
HETATM   18  C15 UNL     1      33.362   5.660  29.636  1.00  0.00     0.282 C 
HETATM   19  C16 UNL     1      36.361   4.108  30.909  1.00  0.00     0.043 C 
ENDROOT
BRANCH  13  20
HETATM   20  O1  UNL     1      36.744   5.609  33.962  1.00  0.00    -0.389 OA
ATOM     21  H1  UNL     1      37.560   5.135  33.852  1.00  0.00     0.210 HD
ENDBRANCH  13  20
BRANCH  18  22
HETATM   22  O3  UNL     1      32.506   6.557  30.235  1.00  0.00    -0.369 OA
ATOM     23  H3  UNL     1      31.689   6.657  29.760  1.00  0.00     0.212 HD
ENDBRANCH  18  22
TORSDOF 2
ENDMDL
MODEL 4
REMARK VINA RESULT: -4.969546901      1.740      2.293
REMARK  2 active torsions:
REMARK  status: ('A' for Active; 'I' for Inactive)
REMARK    1  A    between atoms: C11_13  and  O1_15 
REMARK    2  A    between atoms: C15_20  and  O3_21 
ROOT
HETATM    1  C1  UNL     1      40.540   1.973  33.876  1.00  0.00     0.043 C 
HETATM    2  C2  UNL     1      39.829   1.162  32.810  1.00  0.00    -0.085 C 
HETATM    3  C3  UNL     1      40.719   0.373  32.219  1.00  0.00     0.005 C 
HETATM    4  C4  UNL     1      40.755  -0.652  31.137  1.00  0.00     0.155 C 
HETATM    5  N1  UNL     1      40.895  -0.103  29.847  1.00  0.00    -0.406 N 
ATOM      6  H1  UNL     1      40.730  -0.668  29.015  1.00  0.00     0.154 HD
HETATM    7  C5  UNL     1      41.273   1.266  29.743  1.00  0.00     0.073 C 
HETATM    8  C6  UNL     1      42.735   1.279  29.274  1.00  0.00     0.032 C 
HETATM    9  C7  UNL     1      40.379   2.058  28.776  1.00  0.00     0.025 C 
HETATM   10  C8  UNL     1      39.079   1.414  28.525  1.00  0.00     0.009 C 
HETATM   11  C9  UNL     1      37.857   1.911  29.131  1.00  0.00     0.016 C 
HETATM   12  C10 UNL     1      37.468   3.153  28.291  1.00  0.00     0.013 C 
HETATM   13  C11 UNL     1      37.643   2.253  30.532  1.00  0.00     0.063 C 
HETATM   14  C12 UNL     1      38.440   3.510  30.931  1.00  0.00     0.046 C 
HETATM   15  C13 UNL     1      37.579   1.246  31.607  1.00  0.00     0.048 C 
HETATM   16  C14 UNL     1      37.597  -0.202  31.212  1.00  0.00     0.179 C 
HETATM   17  O2  UNL     1      38.556  -0.857  31.971  1.00  0.00    -0.359 OA
HETATM   18  C15 UNL     1      39.515  -1.545  31.301  1.00  0.00     0.282 C 
HETATM   19  C16 UNL     1      38.435   1.544  32.823  1.00  0.00     0.043 C 
ENDROOT
BRANCH  13  20
HETATM   20  O1  UNL     1      36.329   2.847  30.459  1.00  0.00    -0.389 OA
ATOM     21  H1  UNL     1      36.058   2.780  31.367  1.00  0.00     0.210 HD
ENDBRANCH  13  20
BRANCH  18  22
HETATM   22  O3  UNL     1      39.126  -2.133  30.118  1.00  0.00    -0.369 OA
ATOM     23  H3  UNL     1      38.402  -1.678  29.704  1.00  0.00     0.212 HD
ENDBRANCH  18  22
TORSDOF 2
ENDMDL
MODEL 5
REMARK VINA RESULT: -4.944323922      2.131      4.799
REMARK  2 active torsions:
REMARK  status: ('A' for Active; 'I' for Inactive)
REMARK    1  A    between atoms: C11_13  and  O1_15 
REMARK    2  A    between atoms: C15_20  and  O3_21 
ROOT
HETATM    1  C1  UNL     1      37.408  -0.728  28.285  1.00  0.00     0.043 C 
HETATM    2  C2  UNL     1      38.212  -0.124  29.420  1.00  0.00    -0.085 C 
HETATM    3  C3  UNL     1      38.440   1.155  29.139  1.00  0.00     0.005 C 
HETATM    4  C4  UNL     1      39.127   2.325  29.755  1.00  0.00     0.155 C 
HETATM    5  N1  UNL     1      40.509   2.373  29.483  1.00  0.00    -0.406 N 
ATOM      6  H1  UNL     1      41.125   2.997  30.003  1.00  0.00     0.154 HD
HETATM    7  C5  UNL     1      41.016   1.524  28.459  1.00  0.00     0.073 C 
HETATM    8  C6  UNL     1      41.339   2.431  27.262  1.00  0.00     0.032 C 
HETATM    9  C7  UNL     1      42.258   0.735  28.901  1.00  0.00     0.025 C 
HETATM   10  C8  UNL     1      42.397   0.640  30.364  1.00  0.00     0.009 C 
HETATM   11  C9  UNL     1      42.088  -0.586  31.077  1.00  0.00     0.016 C 
HETATM   12  C10 UNL     1      43.313  -1.505  30.844  1.00  0.00     0.013 C 
HETATM   13  C11 UNL     1      40.896  -1.413  30.935  1.00  0.00     0.063 C 
HETATM   14  C12 UNL     1      40.857  -2.113  29.563  1.00  0.00     0.046 C 
HETATM   15  C13 UNL     1      39.563  -0.991  31.405  1.00  0.00     0.048 C 
HETATM   16  C14 UNL     1      39.468   0.287  32.186  1.00  0.00     0.179 C 
HETATM   17  O2  UNL     1      38.460   1.067  31.638  1.00  0.00    -0.359 OA
HETATM   18  C15 UNL     1      38.789   2.327  31.255  1.00  0.00     0.282 C 
HETATM   19  C16 UNL     1      38.440  -1.162  30.399  1.00  0.00     0.043 C 
ENDROOT
BRANCH  13  20
HETATM   20  O1  UNL     1      41.267  -2.549  31.745  1.00  0.00    -0.389 OA
ATOM     21  H1  UNL     1      40.500  -2.623  32.301  1.00  0.00     0.210 HD
ENDBRANCH  13  20
BRANCH  18  22
HETATM   22  O3  UNL     1      39.748   2.961  32.013  1.00  0.00    -0.369 OA
ATOM     23  H3  UNL     1      39.590   3.894  32.097  1.00  0.00     0.212 HD
ENDBRANCH  18  22
TORSDOF 2
ENDMDL
