MODEL 1
REMARK VINA RESULT: -8.585323615      0.000      0.000
REMARK  3 active torsions:
REMARK  status: ('A' for Active; 'I' for Inactive)
REMARK    1  A    between atoms: N1_1  and  N2_4 
REMARK    2  A    between atoms: C14_19  and  O1_20 
REMARK    3  A    between atoms: C15_22  and  O2_23 
ROOT
HETATM    1  N2  UNL     1      37.849   5.739  32.741  1.00  0.00    -0.315 N 
ATOM      2  H2  UNL     1      38.630   5.113  32.934  1.00  0.00     0.185 HD
HETATM    3  C1  UNL     1      37.355   6.455  33.712  1.00  0.00     0.006 C 
HETATM    4  C2  UNL     1      36.219   7.375  33.466  1.00  0.00     0.054 C 
HETATM    5  C3  UNL     1      36.785   8.658  32.891  1.00  0.00     0.006 C 
HETATM    6  C4  UNL     1      35.992   9.863  33.307  1.00  0.00     0.000 C 
HETATM    7  C5  UNL     1      36.869  10.748  34.165  1.00  0.00     0.000 C 
HETATM    8  C6  UNL     1      36.740  10.423  35.613  1.00  0.00     0.000 C 
HETATM    9  C7  UNL     1      38.049  10.639  36.380  1.00  0.00     0.000 C 
HETATM   10  C8  UNL     1      38.055   9.694  37.533  1.00  0.00     0.000 C 
HETATM   11  C9  UNL     1      39.201   8.722  37.532  1.00  0.00     0.000 C 
HETATM   12  C10 UNL     1      39.713   8.374  36.179  1.00  0.00     0.007 C 
HETATM   13  C11 UNL     1      40.202   6.988  36.003  1.00  0.00     0.023 C 
HETATM   14  C12 UNL     1      40.074   6.104  37.215  1.00  0.00     0.010 C 
HETATM   15  C13 UNL     1      40.585   4.785  36.617  1.00  0.00     0.035 C 
HETATM   16  C14 UNL     1      39.851   4.751  35.294  1.00  0.00     0.153 C 
HETATM   17  C15 UNL     1      39.460   6.183  34.966  1.00  0.00     0.092 C 
HETATM   18  C16 UNL     1      37.978   6.304  35.057  1.00  0.00     0.095 C 
ENDROOT
BRANCH   1  19
HETATM   19  N1  UNL     1      37.341   5.805  31.455  1.00  0.00    -0.345 N 
ATOM     20  H12 UNL     1      36.656   6.530  31.246  1.00  0.00     0.176 HD
ATOM     21  H11 UNL     1      37.635   5.153  30.727  1.00  0.00     0.176 HD
ENDBRANCH   1  19
BRANCH  17  22
HETATM   22  O2  UNL     1      39.982   6.537  33.725  1.00  0.00    -0.386 OA
ATOM     23  H2  UNL     1      39.463   7.264  33.400  1.00  0.00     0.210 HD
ENDBRANCH  17  22
BRANCH  16  24
HETATM   24  O1  UNL     1      40.650   4.205  34.283  1.00  0.00    -0.393 OA
ATOM     25  H1  UNL     1      40.122   3.894  33.556  1.00  0.00     0.210 HD
ENDBRANCH  16  24
TORSDOF 3
ENDMDL
MODEL 2
REMARK VINA RESULT: -8.416867342      1.934      4.512
REMARK  3 active torsions:
REMARK  status: ('A' for Active; 'I' for Inactive)
REMARK    1  A    between atoms: N1_1  and  N2_4 
REMARK    2  A    between atoms: C14_19  and  O1_20 
REMARK    3  A    between atoms: C15_22  and  O2_23 
ROOT
HETATM    1  N2  UNL     1      38.547   4.979  33.885  1.00  0.00    -0.315 N 
ATOM      2  H2  UNL     1      37.825   4.693  33.224  1.00  0.00     0.185 HD
HETATM    3  C1  UNL     1      38.857   6.241  33.979  1.00  0.00     0.006 C 
HETATM    4  C2  UNL     1      39.902   6.691  34.930  1.00  0.00     0.054 C 
HETATM    5  C3  UNL     1      39.256   6.814  36.295  1.00  0.00     0.006 C 
HETATM    6  C4  UNL     1      39.863   7.918  37.112  1.00  0.00     0.000 C 
HETATM    7  C5  UNL     1      38.811   8.977  37.353  1.00  0.00     0.000 C 
HETATM    8  C6  UNL     1      38.830  10.030  36.298  1.00  0.00     0.000 C 
HETATM    9  C7  UNL     1      37.435  10.595  36.011  1.00  0.00     0.000 C 
HETATM   10  C8  UNL     1      37.420  11.052  34.592  1.00  0.00     0.000 C 
HETATM   11  C9  UNL     1      36.396  10.367  33.731  1.00  0.00     0.000 C 
HETATM   12  C10 UNL     1      36.064   8.979  34.153  1.00  0.00     0.007 C 
HETATM   13  C11 UNL     1      35.754   8.023  33.067  1.00  0.00     0.023 C 
HETATM   14  C12 UNL     1      35.858   8.582  31.673  1.00  0.00     0.010 C 
HETATM   15  C13 UNL     1      35.561   7.305  30.870  1.00  0.00     0.035 C 
HETATM   16  C14 UNL     1      36.422   6.291  31.589  1.00  0.00     0.153 C 
HETATM   17  C15 UNL     1      36.681   6.837  32.985  1.00  0.00     0.092 C 
HETATM   18  C16 UNL     1      38.124   7.192  33.097  1.00  0.00     0.095 C 
ENDROOT
BRANCH   1  19
HETATM   19  N1  UNL     1      39.170   4.015  34.659  1.00  0.00    -0.345 N 
ATOM     20  H12 UNL     1      39.990   4.291  35.199  1.00  0.00     0.176 HD
ATOM     21  H11 UNL     1      38.830   3.054  34.698  1.00  0.00     0.176 HD
ENDBRANCH   1  19
BRANCH  17  22
HETATM   22  O2  UNL     1      36.250   5.915  33.935  1.00  0.00    -0.386 OA
ATOM     23  H2  UNL     1      36.899   5.222  33.965  1.00  0.00     0.210 HD
ENDBRANCH  17  22
BRANCH  16  24
HETATM   24  O1  UNL     1      35.795   5.041  31.649  1.00  0.00    -0.393 OA
ATOM     25  H1  UNL     1      36.362   4.389  32.043  1.00  0.00     0.210 HD
ENDBRANCH  16  24
TORSDOF 3
ENDMDL
MODEL 3
REMARK VINA RESULT: -8.398442134      2.135      4.387
REMARK  3 active torsions:
REMARK  status: ('A' for Active; 'I' for Inactive)
REMARK    1  A    between atoms: N1_1  and  N2_4 
REMARK    2  A    between atoms: C14_19  and  O1_20 
REMARK    3  A    between atoms: C15_22  and  O2_23 
ROOT
HETATM    1  N2  UNL     1      39.088   4.948  35.219  1.00  0.00    -0.315 N 
ATOM      2  H2  UNL     1      38.621   4.188  34.724  1.00  0.00     0.185 HD
HETATM    3  C1  UNL     1      39.053   6.149  34.714  1.00  0.00     0.006 C 
HETATM    4  C2  UNL     1      39.722   7.276  35.407  1.00  0.00     0.054 C 
HETATM    5  C3  UNL     1      38.783   7.771  36.488  1.00  0.00     0.006 C 
HETATM    6  C4  UNL     1      38.908   9.250  36.714  1.00  0.00     0.000 C 
HETATM    7  C5  UNL     1      37.603   9.911  36.331  1.00  0.00     0.000 C 
HETATM    8  C6  UNL     1      37.596  10.341  34.904  1.00  0.00     0.000 C 
HETATM    9  C7  UNL     1      36.203  10.246  34.272  1.00  0.00     0.000 C 
HETATM   10  C8  UNL     1      36.388  10.004  32.812  1.00  0.00     0.000 C 
HETATM   11  C9  UNL     1      35.776   8.726  32.314  1.00  0.00     0.000 C 
HETATM   12  C10 UNL     1      35.708   7.638  33.327  1.00  0.00     0.007 C 
HETATM   13  C11 UNL     1      35.886   6.260  32.817  1.00  0.00     0.023 C 
HETATM   14  C12 UNL     1      36.154   6.153  31.340  1.00  0.00     0.010 C 
HETATM   15  C13 UNL     1      36.360   4.633  31.234  1.00  0.00     0.035 C 
HETATM   16  C14 UNL     1      37.264   4.370  32.418  1.00  0.00     0.153 C 
HETATM   17  C15 UNL     1      37.070   5.522  33.391  1.00  0.00     0.092 C 
HETATM   18  C16 UNL     1      38.322   6.329  33.429  1.00  0.00     0.095 C 
ENDROOT
BRANCH   1  19
HETATM   19  N1  UNL     1      39.742   4.675  36.408  1.00  0.00    -0.345 N 
ATOM     20  H12 UNL     1      39.246   4.133  37.115  1.00  0.00     0.176 HD
ATOM     21  H11 UNL     1      40.694   5.000  36.585  1.00  0.00     0.176 HD
ENDBRANCH   1  19
BRANCH  17  22
HETATM   22  O2  UNL     1      36.679   5.025  34.631  1.00  0.00    -0.386 OA
ATOM     23  H2  UNL     1      37.144   4.207  34.763  1.00  0.00     0.210 HD
ENDBRANCH  17  22
BRANCH  16  24
HETATM   24  O1  UNL     1      36.963   3.145  33.026  1.00  0.00    -0.393 OA
ATOM     25  H1  UNL     1      36.962   3.220  33.973  1.00  0.00     0.210 HD
ENDBRANCH  16  24
TORSDOF 3
ENDMDL
MODEL 4
REMARK VINA RESULT: -8.178928845      2.262      4.783
REMARK  3 active torsions:
REMARK  status: ('A' for Active; 'I' for Inactive)
REMARK    1  A    between atoms: N1_1  and  N2_4 
REMARK    2  A    between atoms: C14_19  and  O1_20 
REMARK    3  A    between atoms: C15_22  and  O2_23 
ROOT
HETATM    1  N2  UNL     1      38.563   4.613  32.732  1.00  0.00    -0.315 N 
ATOM      2  H2  UNL     1      37.874   4.372  32.019  1.00  0.00     0.185 HD
HETATM    3  C1  UNL     1      38.800   5.869  32.986  1.00  0.00     0.006 C 
HETATM    4  C2  UNL     1      39.795   6.253  34.016  1.00  0.00     0.054 C 
HETATM    5  C3  UNL     1      39.110   6.176  35.365  1.00  0.00     0.006 C 
HETATM    6  C4  UNL     1      39.635   7.203  36.327  1.00  0.00     0.000 C 
HETATM    7  C5  UNL     1      38.520   8.169  36.660  1.00  0.00     0.000 C 
HETATM    8  C6  UNL     1      38.508   9.342  35.741  1.00  0.00     0.000 C 
HETATM    9  C7  UNL     1      37.091   9.865  35.479  1.00  0.00     0.000 C 
HETATM   10  C8  UNL     1      37.086  10.489  34.125  1.00  0.00     0.000 C 
HETATM   11  C9  UNL     1      36.123   9.861  33.158  1.00  0.00     0.000 C 
HETATM   12  C10 UNL     1      35.857   8.417  33.400  1.00  0.00     0.007 C 
HETATM   13  C11 UNL     1      35.627   7.586  32.197  1.00  0.00     0.023 C 
HETATM   14  C12 UNL     1      35.735   8.314  30.884  1.00  0.00     0.010 C 
HETATM   15  C13 UNL     1      35.528   7.130  29.926  1.00  0.00     0.035 C 
HETATM   16  C14 UNL     1      36.426   6.082  30.545  1.00  0.00     0.153 C 
HETATM   17  C15 UNL     1      36.620   6.468  32.004  1.00  0.00     0.092 C 
HETATM   18  C16 UNL     1      38.038   6.881  32.202  1.00  0.00     0.095 C 
ENDROOT
BRANCH   1  19
HETATM   19  N1  UNL     1      39.219   3.596  33.405  1.00  0.00    -0.345 N 
ATOM     20  H12 UNL     1      40.224   3.687  33.549  1.00  0.00     0.176 HD
ATOM     21  H11 UNL     1      38.724   2.773  33.751  1.00  0.00     0.176 HD
ENDBRANCH   1  19
BRANCH  17  22
HETATM   22  O2  UNL     1      36.217   5.416  32.822  1.00  0.00    -0.386 OA
ATOM     23  H2  UNL     1      35.403   5.080  32.463  1.00  0.00     0.210 HD
ENDBRANCH  17  22
BRANCH  16  24
HETATM   24  O1  UNL     1      35.868   4.803  30.435  1.00  0.00    -0.393 OA
ATOM     25  H1  UNL     1      35.872   4.352  31.270  1.00  0.00     0.210 HD
ENDBRANCH  16  24
TORSDOF 3
ENDMDL
MODEL 5
REMARK VINA RESULT: -8.101656936      0.921      1.013
REMARK  3 active torsions:
REMARK  status: ('A' for Active; 'I' for Inactive)
REMARK    1  A    between atoms: N1_1  and  N2_4 
REMARK    2  A    between atoms: C14_19  and  O1_20 
REMARK    3  A    between atoms: C15_22  and  O2_23 
ROOT
HETATM    1  N2  UNL     1      38.123   4.652  32.573  1.00  0.00    -0.315 N 
ATOM      2  H2  UNL     1      38.953   4.148  32.885  1.00  0.00     0.185 HD
HETATM    3  C1  UNL     1      37.520   5.456  33.403  1.00  0.00     0.006 C 
HETATM    4  C2  UNL     1      36.311   6.204  32.982  1.00  0.00     0.054 C 
HETATM    5  C3  UNL     1      36.773   7.433  32.226  1.00  0.00     0.006 C 
HETATM    6  C4  UNL     1      35.848   8.600  32.423  1.00  0.00     0.000 C 
HETATM    7  C5  UNL     1      36.596   9.693  33.153  1.00  0.00     0.000 C 
HETATM    8  C6  UNL     1      36.436   9.585  34.631  1.00  0.00     0.000 C 
HETATM    9  C7  UNL     1      37.683  10.052  35.390  1.00  0.00     0.000 C 
HETATM   10  C8  UNL     1      37.730   9.304  36.679  1.00  0.00     0.000 C 
HETATM   11  C9  UNL     1      38.964   8.467  36.864  1.00  0.00     0.000 C 
HETATM   12  C10 UNL     1      39.567   7.968  35.599  1.00  0.00     0.007 C 
HETATM   13  C11 UNL     1      40.197   6.630  35.659  1.00  0.00     0.023 C 
HETATM   14  C12 UNL     1      40.102   5.937  36.992  1.00  0.00     0.010 C 
HETATM   15  C13 UNL     1      40.766   4.600  36.626  1.00  0.00     0.035 C 
HETATM   16  C14 UNL     1      40.098   4.286  35.306  1.00  0.00     0.153 C 
HETATM   17  C15 UNL     1      39.584   5.602  34.743  1.00  0.00     0.092 C 
HETATM   18  C16 UNL     1      38.094   5.581  34.772  1.00  0.00     0.095 C 
ENDROOT
BRANCH   1  19
HETATM   19  N1  UNL     1      37.668   4.464  31.279  1.00  0.00    -0.345 N 
ATOM     20  H12 UNL     1      36.928   5.077  30.937  1.00  0.00     0.176 HD
ATOM     21  H11 UNL     1      38.053   3.738  30.673  1.00  0.00     0.176 HD
ENDBRANCH   1  19
BRANCH  17  22
HETATM   22  O2  UNL     1      40.123   5.810  33.476  1.00  0.00    -0.386 OA
ATOM     23  H2  UNL     1      39.613   6.499  33.066  1.00  0.00     0.210 HD
ENDBRANCH  17  22
BRANCH  16  24
HETATM   24  O1  UNL     1      40.990   3.675  34.416  1.00  0.00    -0.393 OA
ATOM     25  H1  UNL     1      41.165   4.231  33.666  1.00  0.00     0.210 HD
ENDBRANCH  16  24
TORSDOF 3
ENDMDL
