MODEL 1
REMARK VINA RESULT: -6.466237849      0.000      0.000
REMARK  3 active torsions:
REMARK  status: ('A' for Active; 'I' for Inactive)
REMARK    1  A    between atoms: C15_17  and  O3_18 
REMARK    2  A    between atoms: C15_17  and  C16_20 
REMARK    3  A    between atoms: C16_20  and  O4_21 
ROOT
HETATM    1  C1  UNL     1      36.777   0.423  32.297  1.00  0.00     0.013 C 
HETATM    2  C2  UNL     1      38.234   0.704  32.180  1.00  0.00     0.022 C 
HETATM    3  C3  UNL     1      38.845  -0.563  31.551  1.00  0.00     0.007 C 
HETATM    4  C4  UNL     1      40.345  -0.586  31.729  1.00  0.00     0.001 C 
HETATM    5  C5  UNL     1      40.843   0.832  31.615  1.00  0.00     0.003 C 
HETATM    6  C6  UNL     1      39.892   1.553  30.662  1.00  0.00     0.045 C 
HETATM    7  C7  UNL     1      38.681   1.932  31.544  1.00  0.00     0.132 C 
HETATM    8  O1  UNL     1      39.317   2.782  32.492  1.00  0.00    -0.225 OA
HETATM    9  O2  UNL     1      38.522   3.103  33.463  1.00  0.00    -0.229 OA
HETATM   10  C8  UNL     1      38.401   4.512  33.422  1.00  0.00     0.096 C 
HETATM   11  C9  UNL     1      37.706   4.922  34.680  1.00  0.00     0.041 C 
HETATM   12  C10 UNL     1      38.338   6.250  35.048  1.00  0.00     0.003 C 
HETATM   13  C11 UNL     1      39.701   6.277  34.438  1.00  0.00     0.003 C 
HETATM   14  C12 UNL     1      39.750   5.165  33.411  1.00  0.00     0.041 C 
HETATM   15  C13 UNL     1      37.564   4.837  32.227  1.00  0.00     0.044 C 
HETATM   16  C14 UNL     1      38.085   4.274  30.940  1.00  0.00     0.046 C 
HETATM   17  C15 UNL     1      37.737   2.780  30.793  1.00  0.00     0.113 C 
ENDROOT
BRANCH  17  18
HETATM   18  O3  UNL     1      36.409   2.675  31.092  1.00  0.00    -0.384 OA
ATOM     19  H3  UNL     1      35.782   2.868  30.404  1.00  0.00     0.210 HD
ENDBRANCH  17  18
BRANCH  17  20
HETATM   20  C16 UNL     1      37.818   2.568  29.277  1.00  0.00     0.205 C 
BRANCH  20  21
HETATM   21  O4  UNL     1      38.221   3.689  28.602  1.00  0.00    -0.398 OA
ATOM     22  H4  UNL     1      37.779   4.477  28.894  1.00  0.00     0.209 HD
ENDBRANCH  20  21
ENDBRANCH  17  20
TORSDOF 3
ENDMDL
MODEL 2
REMARK VINA RESULT: -6.267600437      3.088      5.561
REMARK  3 active torsions:
REMARK  status: ('A' for Active; 'I' for Inactive)
REMARK    1  A    between atoms: C15_17  and  O3_18 
REMARK    2  A    between atoms: C15_17  and  C16_20 
REMARK    3  A    between atoms: C16_20  and  O4_21 
ROOT
HETATM    1  C1  UNL     1      37.861   7.377  29.863  1.00  0.00     0.013 C 
HETATM    2  C2  UNL     1      37.236   7.797  31.148  1.00  0.00     0.022 C 
HETATM    3  C3  UNL     1      36.219   8.890  30.769  1.00  0.00     0.007 C 
HETATM    4  C4  UNL     1      35.796   9.680  31.985  1.00  0.00     0.001 C 
HETATM    5  C5  UNL     1      35.733   8.728  33.153  1.00  0.00     0.003 C 
HETATM    6  C6  UNL     1      35.357   7.362  32.582  1.00  0.00     0.045 C 
HETATM    7  C7  UNL     1      36.689   6.792  32.044  1.00  0.00     0.132 C 
HETATM    8  O1  UNL     1      37.443   6.736  33.251  1.00  0.00    -0.225 OA
HETATM    9  O2  UNL     1      38.685   6.440  33.031  1.00  0.00    -0.229 OA
HETATM   10  C8  UNL     1      38.928   5.229  33.721  1.00  0.00     0.096 C 
HETATM   11  C9  UNL     1      40.405   5.009  33.698  1.00  0.00     0.041 C 
HETATM   12  C10 UNL     1      40.714   4.361  35.034  1.00  0.00     0.003 C 
HETATM   13  C11 UNL     1      39.637   4.770  35.984  1.00  0.00     0.003 C 
HETATM   14  C12 UNL     1      38.503   5.334  35.153  1.00  0.00     0.041 C 
HETATM   15  C13 UNL     1      38.222   4.153  32.959  1.00  0.00     0.044 C 
HETATM   16  C14 UNL     1      36.760   4.404  32.752  1.00  0.00     0.046 C 
HETATM   17  C15 UNL     1      36.515   5.397  31.599  1.00  0.00     0.113 C 
ENDROOT
BRANCH  17  18
HETATM   18  O3  UNL     1      37.284   4.959  30.559  1.00  0.00    -0.384 OA
ATOM     19  H3  UNL     1      37.227   4.041  30.321  1.00  0.00     0.210 HD
ENDBRANCH  17  18
BRANCH  17  20
HETATM   20  C16 UNL     1      35.073   5.077  31.187  1.00  0.00     0.205 C 
BRANCH  20  21
HETATM   21  O4  UNL     1      34.997   4.136  30.195  1.00  0.00    -0.398 OA
ATOM     22  H4  UNL     1      34.108   3.980  29.900  1.00  0.00     0.209 HD
ENDBRANCH  20  21
ENDBRANCH  17  20
TORSDOF 3
ENDMDL
MODEL 3
REMARK VINA RESULT: -6.232860605      3.389      6.153
REMARK  3 active torsions:
REMARK  status: ('A' for Active; 'I' for Inactive)
REMARK    1  A    between atoms: C15_17  and  O3_18 
REMARK    2  A    between atoms: C15_17  and  C16_20 
REMARK    3  A    between atoms: C16_20  and  O4_21 
ROOT
HETATM    1  C1  UNL     1      37.048   8.139  29.179  1.00  0.00     0.013 C 
HETATM    2  C2  UNL     1      36.705   7.933  30.614  1.00  0.00     0.022 C 
HETATM    3  C3  UNL     1      36.135   9.281  31.094  1.00  0.00     0.007 C 
HETATM    4  C4  UNL     1      36.110   9.350  32.603  1.00  0.00     0.001 C 
HETATM    5  C5  UNL     1      35.781   7.973  33.121  1.00  0.00     0.003 C 
HETATM    6  C6  UNL     1      34.895   7.312  32.067  1.00  0.00     0.045 C 
HETATM    7  C7  UNL     1      35.888   6.795  31.002  1.00  0.00     0.132 C 
HETATM    8  O1  UNL     1      36.647   5.882  31.788  1.00  0.00    -0.225 OA
HETATM    9  O2  UNL     1      37.677   5.432  31.146  1.00  0.00    -0.229 OA
HETATM   10  C8  UNL     1      37.505   4.030  31.060  1.00  0.00     0.096 C 
HETATM   11  C9  UNL     1      38.795   3.467  30.560  1.00  0.00     0.041 C 
HETATM   12  C10 UNL     1      38.932   2.137  31.273  1.00  0.00     0.003 C 
HETATM   13  C11 UNL     1      38.143   2.229  32.538  1.00  0.00     0.003 C 
HETATM   14  C12 UNL     1      37.243   3.440  32.412  1.00  0.00     0.041 C 
HETATM   15  C13 UNL     1      36.407   3.792  30.074  1.00  0.00     0.044 C 
HETATM   16  C14 UNL     1      35.128   4.502  30.395  1.00  0.00     0.046 C 
HETATM   17  C15 UNL     1      35.187   5.987  29.987  1.00  0.00     0.113 C 
ENDROOT
BRANCH  17  18
HETATM   18  O3  UNL     1      35.674   6.005  28.711  1.00  0.00    -0.384 OA
ATOM     19  H3  UNL     1      35.057   6.152  28.003  1.00  0.00     0.210 HD
ENDBRANCH  17  18
BRANCH  17  20
HETATM   20  C16 UNL     1      33.705   6.353  29.850  1.00  0.00     0.205 C 
BRANCH  20  21
HETATM   21  O4  UNL     1      33.480   7.329  28.917  1.00  0.00    -0.398 OA
ATOM     22  H4  UNL     1      32.800   7.939  29.177  1.00  0.00     0.209 HD
ENDBRANCH  20  21
ENDBRANCH  17  20
TORSDOF 3
ENDMDL
MODEL 4
REMARK VINA RESULT: -6.210564261      3.558      6.498
REMARK  3 active torsions:
REMARK  status: ('A' for Active; 'I' for Inactive)
REMARK    1  A    between atoms: C15_17  and  O3_18 
REMARK    2  A    between atoms: C15_17  and  C16_20 
REMARK    3  A    between atoms: C16_20  and  O4_21 
ROOT
HETATM    1  C1  UNL     1      36.847   8.407  28.891  1.00  0.00     0.013 C 
HETATM    2  C2  UNL     1      36.525   7.946  30.270  1.00  0.00     0.022 C 
HETATM    3  C3  UNL     1      36.053   9.206  31.020  1.00  0.00     0.007 C 
HETATM    4  C4  UNL     1      36.067   8.981  32.514  1.00  0.00     0.001 C 
HETATM    5  C5  UNL     1      35.663   7.550  32.768  1.00  0.00     0.003 C 
HETATM    6  C6  UNL     1      34.714   7.159  31.638  1.00  0.00     0.045 C 
HETATM    7  C7  UNL     1      35.648   6.803  30.459  1.00  0.00     0.132 C 
HETATM    8  O1  UNL     1      36.365   5.713  31.028  1.00  0.00    -0.225 OA
HETATM    9  O2  UNL     1      37.350   5.338  30.275  1.00  0.00    -0.229 OA
HETATM   10  C8  UNL     1      37.088   3.991  29.927  1.00  0.00     0.096 C 
HETATM   11  C9  UNL     1      38.328   3.463  29.282  1.00  0.00     0.041 C 
HETATM   12  C10 UNL     1      38.397   2.014  29.721  1.00  0.00     0.003 C 
HETATM   13  C11 UNL     1      37.645   1.904  31.007  1.00  0.00     0.003 C 
HETATM   14  C12 UNL     1      36.820   3.165  31.148  1.00  0.00     0.041 C 
HETATM   15  C13 UNL     1      35.955   4.013  28.952  1.00  0.00     0.044 C 
HETATM   16  C14 UNL     1      34.730   4.719  29.448  1.00  0.00     0.046 C 
HETATM   17  C15 UNL     1      34.874   6.249  29.332  1.00  0.00     0.113 C 
ENDROOT
BRANCH  17  18
HETATM   18  O3  UNL     1      35.331   6.487  28.068  1.00  0.00    -0.384 OA
ATOM     19  H3  UNL     1      34.863   6.086  27.344  1.00  0.00     0.210 HD
ENDBRANCH  17  18
BRANCH  17  20
HETATM   20  C16 UNL     1      33.415   6.720  29.321  1.00  0.00     0.205 C 
BRANCH  20  21
HETATM   21  O4  UNL     1      32.722   6.283  28.224  1.00  0.00    -0.398 OA
ATOM     22  H4  UNL     1      32.044   6.889  27.949  1.00  0.00     0.209 HD
ENDBRANCH  20  21
ENDBRANCH  17  20
TORSDOF 3
ENDMDL
MODEL 5
REMARK VINA RESULT: -6.194374295      3.993      5.737
REMARK  3 active torsions:
REMARK  status: ('A' for Active; 'I' for Inactive)
REMARK    1  A    between atoms: C15_17  and  O3_18 
REMARK    2  A    between atoms: C15_17  and  C16_20 
REMARK    3  A    between atoms: C16_20  and  O4_21 
ROOT
HETATM    1  C1  UNL     1      37.866   6.045  30.086  1.00  0.00     0.013 C 
HETATM    2  C2  UNL     1      37.322   7.276  30.724  1.00  0.00     0.022 C 
HETATM    3  C3  UNL     1      36.536   7.998  29.613  1.00  0.00     0.007 C 
HETATM    4  C4  UNL     1      36.261   9.434  29.992  1.00  0.00     0.001 C 
HETATM    5  C5  UNL     1      36.008   9.478  31.478  1.00  0.00     0.003 C 
HETATM    6  C6  UNL     1      35.382   8.136  31.853  1.00  0.00     0.045 C 
HETATM    7  C7  UNL     1      36.585   7.173  31.973  1.00  0.00     0.132 C 
HETATM    8  O1  UNL     1      37.304   7.801  33.029  1.00  0.00    -0.225 OA
HETATM    9  O2  UNL     1      38.468   7.262  33.208  1.00  0.00    -0.229 OA
HETATM   10  C8  UNL     1      38.469   6.760  34.531  1.00  0.00     0.096 C 
HETATM   11  C9  UNL     1      39.878   6.371  34.844  1.00  0.00     0.041 C 
HETATM   12  C10 UNL     1      40.045   6.699  36.314  1.00  0.00     0.003 C 
HETATM   13  C11 UNL     1      39.058   7.770  36.645  1.00  0.00     0.003 C 
HETATM   14  C12 UNL     1      38.060   7.820  35.507  1.00  0.00     0.041 C 
HETATM   15  C13 UNL     1      37.578   5.560  34.535  1.00  0.00     0.044 C 
HETATM   16  C14 UNL     1      36.192   5.821  34.028  1.00  0.00     0.046 C 
HETATM   17  C15 UNL     1      36.151   5.861  32.488  1.00  0.00     0.113 C 
ENDROOT
BRANCH  17  18
HETATM   18  O3  UNL     1      36.831   4.754  32.068  1.00  0.00    -0.384 OA
ATOM     19  H3  UNL     1      36.735   4.493  31.159  1.00  0.00     0.210 HD
ENDBRANCH  17  18
BRANCH  17  20
HETATM   20  C16 UNL     1      34.678   5.558  32.188  1.00  0.00     0.205 C 
BRANCH  20  21
HETATM   21  O4  UNL     1      34.499   4.906  30.998  1.00  0.00    -0.398 OA
ATOM     22  H4  UNL     1      34.815   4.010  31.016  1.00  0.00     0.209 HD
ENDBRANCH  20  21
ENDBRANCH  17  20
TORSDOF 3
ENDMDL
