MODEL 1
REMARK VINA RESULT: -7.080385222      0.000      0.000
REMARK  3 active torsions:
REMARK  status: ('A' for Active; 'I' for Inactive)
REMARK    1  A    between atoms: C11_11  and  O1_12 
REMARK    2  A    between atoms: C15_17  and  O2_18 
REMARK    3  A    between atoms: C16_20  and  O3_21 
ROOT
HETATM    1  C1  UNL     1      41.065   0.958  32.641  1.00  0.00     0.014 C 
HETATM    2  C2  UNL     1      40.519   1.470  33.733  1.00  0.00    -0.083 C 
HETATM    3  C3  UNL     1      39.069   1.563  33.774  1.00  0.00     0.067 C 
HETATM    4  C4  UNL     1      38.442   2.773  33.108  1.00  0.00    -0.080 C 
HETATM    5  C5  UNL     1      39.115   3.211  31.884  1.00  0.00     0.043 C 
HETATM    6  C6  UNL     1      37.997   3.717  34.119  1.00  0.00    -0.001 C 
HETATM    7  C7  UNL     1      38.189   4.890  34.559  1.00  0.00    -0.015 C 
HETATM    8  C8  UNL     1      38.988   6.087  34.344  1.00  0.00    -0.004 C 
HETATM    9  C9  UNL     1      39.969   6.137  33.225  1.00  0.00     0.021 C 
HETATM   10  C10 UNL     1      37.965   7.159  33.866  1.00  0.00     0.021 C 
HETATM   11  C11 UNL     1      39.566   6.670  35.617  1.00  0.00     0.129 C 
HETATM   12  C12 UNL     1      39.651   5.743  36.769  1.00  0.00     0.033 C 
HETATM   13  C13 UNL     1      41.064   5.483  37.270  1.00  0.00     0.005 C 
HETATM   14  C14 UNL     1      41.771   4.437  36.462  1.00  0.00     0.034 C 
HETATM   15  C15 UNL     1      41.750   3.057  37.004  1.00  0.00     0.147 C 
HETATM   16  C16 UNL     1      40.883   2.104  36.158  1.00  0.00     0.150 C 
HETATM   17  C17 UNL     1      41.432   1.896  34.805  1.00  0.00     0.068 C 
ENDROOT
BRANCH  11  18
HETATM   18  O1  UNL     1      38.867   7.817  35.966  1.00  0.00    -0.395 OA
ATOM     19  H1  UNL     1      38.966   8.471  35.285  1.00  0.00     0.210 HD
ENDBRANCH  11  18
BRANCH  15  20
HETATM   20  O2  UNL     1      43.052   2.540  36.911  1.00  0.00    -0.393 OA
ATOM     21  H2  UNL     1      42.984   1.596  36.834  1.00  0.00     0.210 HD
ENDBRANCH  15  20
BRANCH  16  22
HETATM   22  O3  UNL     1      41.004   0.867  36.852  1.00  0.00    -0.393 OA
ATOM     23  H3  UNL     1      40.103   0.574  36.919  1.00  0.00     0.210 HD
ENDBRANCH  16  22
TORSDOF 3
ENDMDL
MODEL 2
REMARK VINA RESULT: -6.923875357      2.750      4.925
REMARK  3 active torsions:
REMARK  status: ('A' for Active; 'I' for Inactive)
REMARK    1  A    between atoms: C11_11  and  O1_12 
REMARK    2  A    between atoms: C15_17  and  O2_18 
REMARK    3  A    between atoms: C16_20  and  O3_21 
ROOT
HETATM    1  C1  UNL     1      40.022   4.135  36.390  1.00  0.00     0.014 C 
HETATM    2  C2  UNL     1      39.941   4.090  35.070  1.00  0.00    -0.083 C 
HETATM    3  C3  UNL     1      40.551   5.180  34.326  1.00  0.00     0.067 C 
HETATM    4  C4  UNL     1      39.725   6.441  34.158  1.00  0.00    -0.080 C 
HETATM    5  C5  UNL     1      38.901   6.788  35.318  1.00  0.00     0.043 C 
HETATM    6  C6  UNL     1      39.210   6.514  32.801  1.00  0.00    -0.001 C 
HETATM    7  C7  UNL     1      38.137   6.518  32.128  1.00  0.00    -0.015 C 
HETATM    8  C8  UNL     1      36.689   6.452  32.262  1.00  0.00    -0.004 C 
HETATM    9  C9  UNL     1      36.069   6.379  33.614  1.00  0.00     0.021 C 
HETATM   10  C10 UNL     1      36.190   7.853  31.803  1.00  0.00     0.021 C 
HETATM   11  C11 UNL     1      36.030   5.490  31.295  1.00  0.00     0.129 C 
HETATM   12  C12 UNL     1      36.915   4.452  30.718  1.00  0.00     0.033 C 
HETATM   13  C13 UNL     1      36.522   3.022  31.061  1.00  0.00     0.005 C 
HETATM   14  C14 UNL     1      37.021   2.602  32.409  1.00  0.00     0.034 C 
HETATM   15  C15 UNL     1      38.292   1.838  32.436  1.00  0.00     0.147 C 
HETATM   16  C16 UNL     1      39.453   2.645  33.047  1.00  0.00     0.150 C 
HETATM   17  C17 UNL     1      39.241   2.940  34.477  1.00  0.00     0.068 C 
ENDROOT
BRANCH  11  18
HETATM   18  O1  UNL     1      35.394   6.202  30.288  1.00  0.00    -0.395 OA
ATOM     19  H1  UNL     1      34.465   6.263  30.478  1.00  0.00     0.210 HD
ENDBRANCH  11  18
BRANCH  15  20
HETATM   20  O2  UNL     1      38.117   0.745  33.298  1.00  0.00    -0.393 OA
ATOM     21  H2  UNL     1      38.976   0.397  33.503  1.00  0.00     0.210 HD
ENDBRANCH  15  20
BRANCH  16  22
HETATM   22  O3  UNL     1      40.546   1.737  32.967  1.00  0.00    -0.393 OA
ATOM     23  H3  UNL     1      40.750   1.734  32.039  1.00  0.00     0.210 HD
ENDBRANCH  16  22
TORSDOF 3
ENDMDL
MODEL 3
REMARK VINA RESULT: -6.892784924      3.397      5.186
REMARK  3 active torsions:
REMARK  status: ('A' for Active; 'I' for Inactive)
REMARK    1  A    between atoms: C11_11  and  O1_12 
REMARK    2  A    between atoms: C15_17  and  O2_18 
REMARK    3  A    between atoms: C16_20  and  O3_21 
ROOT
HETATM    1  C1  UNL     1      38.785   2.953  31.794  1.00  0.00     0.014 C 
HETATM    2  C2  UNL     1      37.828   3.730  32.278  1.00  0.00    -0.083 C 
HETATM    3  C3  UNL     1      36.493   3.565  31.728  1.00  0.00     0.067 C 
HETATM    4  C4  UNL     1      36.190   4.298  30.435  1.00  0.00    -0.080 C 
HETATM    5  C5  UNL     1      37.309   4.358  29.492  1.00  0.00     0.043 C 
HETATM    6  C6  UNL     1      35.354   5.455  30.709  1.00  0.00    -0.001 C 
HETATM    7  C7  UNL     1      35.335   6.721  30.654  1.00  0.00    -0.015 C 
HETATM    8  C8  UNL     1      36.139   7.874  30.275  1.00  0.00    -0.004 C 
HETATM    9  C9  UNL     1      37.497   7.676  29.697  1.00  0.00     0.021 C 
HETATM   10  C10 UNL     1      35.399   8.480  29.048  1.00  0.00     0.021 C 
HETATM   11  C11 UNL     1      36.127   8.988  31.301  1.00  0.00     0.129 C 
HETATM   12  C12 UNL     1      35.732   8.595  32.673  1.00  0.00     0.033 C 
HETATM   13  C13 UNL     1      36.809   8.806  33.727  1.00  0.00     0.005 C 
HETATM   14  C14 UNL     1      37.798   7.681  33.763  1.00  0.00     0.034 C 
HETATM   15  C15 UNL     1      37.566   6.628  34.780  1.00  0.00     0.147 C 
HETATM   16  C16 UNL     1      37.140   5.285  34.154  1.00  0.00     0.150 C 
HETATM   17  C17 UNL     1      38.206   4.687  33.329  1.00  0.00     0.068 C 
ENDROOT
BRANCH  11  18
HETATM   18  O1  UNL     1      35.335  10.033  30.847  1.00  0.00    -0.395 OA
ATOM     19  H1  UNL     1      35.705  10.392  30.049  1.00  0.00     0.210 HD
ENDBRANCH  11  18
BRANCH  15  20
HETATM   20  O2  UNL     1      38.793   6.361  35.409  1.00  0.00    -0.393 OA
ATOM     21  H2  UNL     1      38.609   6.109  36.306  1.00  0.00     0.210 HD
ENDBRANCH  15  20
BRANCH  16  22
HETATM   22  O3  UNL     1      36.972   4.446  35.291  1.00  0.00    -0.393 OA
ATOM     23  H3  UNL     1      36.032   4.453  35.422  1.00  0.00     0.210 HD
ENDBRANCH  16  22
TORSDOF 3
ENDMDL
MODEL 4
REMARK VINA RESULT: -6.888627702      3.282      6.128
REMARK  3 active torsions:
REMARK  status: ('A' for Active; 'I' for Inactive)
REMARK    1  A    between atoms: C11_11  and  O1_12 
REMARK    2  A    between atoms: C15_17  and  O2_18 
REMARK    3  A    between atoms: C16_20  and  O3_21 
ROOT
HETATM    1  C1  UNL     1      36.384   7.922  30.772  1.00  0.00     0.014 C 
HETATM    2  C2  UNL     1      36.308   6.689  31.248  1.00  0.00    -0.083 C 
HETATM    3  C3  UNL     1      35.721   6.519  32.568  1.00  0.00     0.067 C 
HETATM    4  C4  UNL     1      36.639   6.733  33.757  1.00  0.00    -0.080 C 
HETATM    5  C5  UNL     1      37.620   7.806  33.584  1.00  0.00     0.043 C 
HETATM    6  C6  UNL     1      36.997   5.450  34.338  1.00  0.00    -0.001 C 
HETATM    7  C7  UNL     1      37.982   4.684  34.562  1.00  0.00    -0.015 C 
HETATM    8  C8  UNL     1      39.422   4.573  34.388  1.00  0.00    -0.004 C 
HETATM    9  C9  UNL     1      40.184   5.688  33.761  1.00  0.00     0.021 C 
HETATM   10  C10 UNL     1      39.995   4.622  35.834  1.00  0.00     0.021 C 
HETATM   11  C11 UNL     1      39.870   3.226  33.859  1.00  0.00     0.129 C 
HETATM   12  C12 UNL     1      38.830   2.427  33.171  1.00  0.00     0.033 C 
HETATM   13  C13 UNL     1      39.123   2.132  31.707  1.00  0.00     0.005 C 
HETATM   14  C14 UNL     1      38.745   3.271  30.810  1.00  0.00     0.034 C 
HETATM   15  C15 UNL     1      37.419   3.184  30.152  1.00  0.00     0.147 C 
HETATM   16  C16 UNL     1      36.418   4.219  30.700  1.00  0.00     0.150 C 
HETATM   17  C17 UNL     1      36.822   5.605  30.397  1.00  0.00     0.068 C 
ENDROOT
BRANCH  11  18
HETATM   18  O1  UNL     1      40.450   2.491  34.883  1.00  0.00    -0.395 OA
ATOM     19  H1  UNL     1      39.893   1.754  35.103  1.00  0.00     0.210 HD
ENDBRANCH  11  18
BRANCH  15  20
HETATM   20  O2  UNL     1      37.588   3.523  28.800  1.00  0.00    -0.393 OA
ATOM     21  H2  UNL     1      37.257   2.803  28.277  1.00  0.00     0.210 HD
ENDBRANCH  15  20
BRANCH  16  22
HETATM   22  O3  UNL     1      35.242   3.953  29.944  1.00  0.00    -0.393 OA
ATOM     23  H3  UNL     1      34.583   4.473  30.389  1.00  0.00     0.210 HD
ENDBRANCH  16  22
TORSDOF 3
ENDMDL
MODEL 5
REMARK VINA RESULT: -6.851008640      3.408      6.773
REMARK  3 active torsions:
REMARK  status: ('A' for Active; 'I' for Inactive)
REMARK    1  A    between atoms: C11_11  and  O1_12 
REMARK    2  A    between atoms: C15_17  and  O2_18 
REMARK    3  A    between atoms: C16_20  and  O3_21 
ROOT
HETATM    1  C1  UNL     1      36.039   8.924  31.578  1.00  0.00     0.014 C 
HETATM    2  C2  UNL     1      35.824   7.662  31.917  1.00  0.00    -0.083 C 
HETATM    3  C3  UNL     1      35.517   7.390  33.312  1.00  0.00     0.067 C 
HETATM    4  C4  UNL     1      36.696   7.259  34.258  1.00  0.00    -0.080 C 
HETATM    5  C5  UNL     1      37.809   8.165  33.973  1.00  0.00     0.043 C 
HETATM    6  C6  UNL     1      36.909   5.859  34.587  1.00  0.00    -0.001 C 
HETATM    7  C7  UNL     1      37.745   4.913  34.477  1.00  0.00    -0.015 C 
HETATM    8  C8  UNL     1      39.061   4.591  33.946  1.00  0.00    -0.004 C 
HETATM    9  C9  UNL     1      39.875   5.646  33.282  1.00  0.00     0.021 C 
HETATM   10  C10 UNL     1      39.934   4.317  35.206  1.00  0.00     0.021 C 
HETATM   11  C11 UNL     1      39.105   3.287  33.177  1.00  0.00     0.129 C 
HETATM   12  C12 UNL     1      37.802   2.791  32.678  1.00  0.00     0.033 C 
HETATM   13  C13 UNL     1      37.704   2.683  31.162  1.00  0.00     0.005 C 
HETATM   14  C14 UNL     1      37.374   3.994  30.518  1.00  0.00     0.034 C 
HETATM   15  C15 UNL     1      35.947   4.234  30.197  1.00  0.00     0.147 C 
HETATM   16  C16 UNL     1      35.317   5.325  31.085  1.00  0.00     0.150 C 
HETATM   17  C17 UNL     1      35.913   6.654  30.851  1.00  0.00     0.068 C 
ENDROOT
BRANCH  11  18
HETATM   18  O1  UNL     1      39.736   2.314  33.940  1.00  0.00    -0.395 OA
ATOM     19  H1  UNL     1      39.290   1.483  33.830  1.00  0.00     0.210 HD
ENDBRANCH  11  18
BRANCH  15  20
HETATM   20  O2  UNL     1      35.882   4.747  28.892  1.00  0.00    -0.393 OA
ATOM     21  H2  UNL     1      36.399   4.180  28.332  1.00  0.00     0.210 HD
ENDBRANCH  15  20
BRANCH  16  22
HETATM   22  O3  UNL     1      33.975   5.380  30.613  1.00  0.00    -0.393 OA
ATOM     23  H3  UNL     1      33.522   5.827  31.318  1.00  0.00     0.210 HD
ENDBRANCH  16  22
TORSDOF 3
ENDMDL
