MODEL 1
REMARK VINA RESULT: -8.603546543      0.000      0.000
REMARK  7 active torsions:
REMARK  status: ('A' for Active; 'I' for Inactive)
REMARK    1  A    between atoms: C4_10  and  S1_11 
REMARK    2  A    between atoms: S1_11  and  C5_12 
REMARK    3  A    between atoms: C9_17  and  C10_18 
REMARK    4  A    between atoms: C10_18  and  N4_19 
REMARK    5  A    between atoms: C10_18  and  C11_23 
REMARK    6  A    between atoms: C11_23  and  O1_24 
REMARK    7  A    between atoms: O1_24  and  N5_25 
REMARK       I    between atoms: N5_25  and  C12_27 
ROOT
HETATM    1  C5  UNL     1      10.660   9.298  13.795  1.00  0.00     0.064 C 
HETATM    2  C6  UNL     1       9.400   8.506  13.907  1.00  0.00     0.053 C 
HETATM    3  C7  UNL     1       8.818   9.078  15.220  1.00  0.00     0.171 C 
HETATM    4  F1  UNL     1       8.507  10.408  15.013  1.00  0.00    -0.249 F 
HETATM    5  C8  UNL     1      10.029   9.028  16.120  1.00  0.00     0.045 C 
HETATM    6  C9  UNL     1      11.147   9.466  15.189  1.00  0.00     0.035 C 
ENDROOT
BRANCH   1   7
HETATM    7  S1  UNL     1      11.835   8.798  12.574  1.00  0.00    -0.088 SA
BRANCH   7   8
HETATM    8  C4  UNL     1      11.375   7.392  11.631  1.00  0.00     0.147 A 
HETATM    9  N3  UNL     1      11.528   7.294  10.290  1.00  0.00    -0.325 N 
HETATM   10  C3  UNL     1      11.264   6.136   9.682  1.00  0.00     0.121 A 
ATOM     11  H3  UNL     1      11.843   8.099   9.749  1.00  0.00     0.169 HD
HETATM   12  C2  UNL     1      10.827   5.010  10.367  1.00  0.00     0.093 A 
HETATM   13  N2  UNL     1      11.476   5.996   8.257  1.00  0.00    -0.083 NA
HETATM   14  C1  UNL     1      10.668   5.122  11.727  1.00  0.00     0.103 A 
HETATM   15  N1  UNL     1      10.289   4.130  12.437  1.00  0.00    -0.385 N 
HETATM   16  N7  UNL     1      10.949   6.305  12.276  1.00  0.00    -0.323 N 
ATOM     17  H12 UNL     1      10.074   3.226  12.018  1.00  0.00     0.157 HD
ATOM     18  H11 UNL     1      10.170   4.214  13.446  1.00  0.00     0.157 HD
ATOM     19  H7  UNL     1      10.826   6.387  13.285  1.00  0.00     0.169 HD
ENDBRANCH   7   8
ENDBRANCH   1   7
BRANCH   6  20
HETATM   20  C10 UNL     1      12.450   8.908  15.544  1.00  0.00     0.215 C 
BRANCH  20  21
HETATM   21  N4  UNL     1      13.402   9.928  15.835  1.00  0.00    -0.072 N 
ATOM     22  H43 UNL     1      13.752  10.362  14.981  1.00  0.00     0.274 HD
ATOM     23  H42 UNL     1      12.956  10.742  16.257  1.00  0.00     0.274 HD
ATOM     24  H41 UNL     1      14.165   9.581  16.415  1.00  0.00     0.274 HD
ENDBRANCH  20  21
BRANCH  20  25
HETATM   25  C11 UNL     1      12.481   7.885  16.670  1.00  0.00     0.234 C 
BRANCH  25  26
HETATM   26  O1  UNL     1      12.827   6.720  15.918  1.00  0.00    -0.275 OA
BRANCH  26  27
HETATM   27  N5  UNL     1      13.456   5.840  16.634  1.00  0.00    -0.219 N 
HETATM   28  C12 UNL     1      13.421   4.448  16.622  1.00  0.00     0.352 C 
HETATM   29  N6  UNL     1      14.172   3.710  17.642  1.00  0.00    -0.038 NA
HETATM   30  O2  UNL     1      12.780   3.741  15.818  1.00  0.00    -0.249 OA
ATOM     31  H5  UNL     1      14.087   6.238  17.328  1.00  0.00     0.199 HD
ENDBRANCH  26  27
ENDBRANCH  25  26
ENDBRANCH  20  25
ENDBRANCH   6  20
TORSDOF 7
ENDMDL
MODEL 2
REMARK VINA RESULT: -8.438417260      0.165      1.700
REMARK  7 active torsions:
REMARK  status: ('A' for Active; 'I' for Inactive)
REMARK    1  A    between atoms: C4_10  and  S1_11 
REMARK    2  A    between atoms: S1_11  and  C5_12 
REMARK    3  A    between atoms: C9_17  and  C10_18 
REMARK    4  A    between atoms: C10_18  and  N4_19 
REMARK    5  A    between atoms: C10_18  and  C11_23 
REMARK    6  A    between atoms: C11_23  and  O1_24 
REMARK    7  A    between atoms: O1_24  and  N5_25 
REMARK       I    between atoms: N5_25  and  C12_27 
ROOT
HETATM    1  C5  UNL     1      10.599   9.350  13.836  1.00  0.00     0.064 C 
HETATM    2  C6  UNL     1       9.347   8.540  13.908  1.00  0.00     0.053 C 
HETATM    3  C7  UNL     1       8.765   9.033  15.253  1.00  0.00     0.171 C 
HETATM    4  F1  UNL     1       8.438  10.369  15.120  1.00  0.00    -0.249 F 
HETATM    5  C8  UNL     1       9.979   8.947  16.144  1.00  0.00     0.045 C 
HETATM    6  C9  UNL     1      11.088   9.446  15.235  1.00  0.00     0.035 C 
ENDROOT
BRANCH   1   7
HETATM    7  S1  UNL     1      11.774   8.932  12.585  1.00  0.00    -0.088 SA
BRANCH   7   8
HETATM    8  C4  UNL     1      11.478   7.408  11.767  1.00  0.00     0.147 A 
HETATM    9  N3  UNL     1      11.106   6.269  12.395  1.00  0.00    -0.325 N 
HETATM   10  C3  UNL     1      10.783   5.195  11.671  1.00  0.00     0.121 A 
ATOM     11  H3  UNL     1      11.074   6.231  13.414  1.00  0.00     0.169 HD
HETATM   12  C2  UNL     1      10.816   5.187  10.283  1.00  0.00     0.093 A 
HETATM   13  N2  UNL     1      10.330   3.985  12.325  1.00  0.00    -0.083 NA
HETATM   14  C1  UNL     1      11.202   6.347   9.656  1.00  0.00     0.103 A 
HETATM   15  N1  UNL     1      11.241   6.432   8.381  1.00  0.00    -0.385 N 
HETATM   16  N7  UNL     1      11.511   7.385  10.434  1.00  0.00    -0.323 N 
ATOM     17  H12 UNL     1      11.005   5.639   7.786  1.00  0.00     0.157 HD
ATOM     18  H11 UNL     1      11.528   7.293   7.915  1.00  0.00     0.157 HD
ATOM     19  H7  UNL     1      11.801   8.243   9.965  1.00  0.00     0.169 HD
ENDBRANCH   7   8
ENDBRANCH   1   7
BRANCH   6  20
HETATM   20  C10 UNL     1      12.398   8.884  15.554  1.00  0.00     0.215 C 
BRANCH  20  21
HETATM   21  N4  UNL     1      13.365   9.901  15.807  1.00  0.00    -0.072 N 
ATOM     22  H43 UNL     1      14.211   9.752  15.258  1.00  0.00     0.274 HD
ATOM     23  H42 UNL     1      13.074  10.795  15.414  1.00  0.00     0.274 HD
ATOM     24  H41 UNL     1      13.577   9.984  16.802  1.00  0.00     0.274 HD
ENDBRANCH  20  21
BRANCH  20  25
HETATM   25  C11 UNL     1      12.459   7.870  16.688  1.00  0.00     0.234 C 
BRANCH  25  26
HETATM   26  O1  UNL     1      12.766   6.696  15.934  1.00  0.00    -0.275 OA
BRANCH  26  27
HETATM   27  N5  UNL     1      13.443   5.831  16.625  1.00  0.00    -0.219 N 
HETATM   28  C12 UNL     1      13.387   4.439  16.668  1.00  0.00     0.352 C 
HETATM   29  N6  UNL     1      14.215   3.726  17.645  1.00  0.00    -0.038 NA
HETATM   30  O2  UNL     1      12.667   3.716  15.951  1.00  0.00    -0.249 OA
ATOM     31  H5  UNL     1      14.140   6.242  17.246  1.00  0.00     0.199 HD
ENDBRANCH  26  27
ENDBRANCH  25  26
ENDBRANCH  20  25
ENDBRANCH   6  20
TORSDOF 7
ENDMDL
MODEL 3
REMARK VINA RESULT: -8.427202208      1.488      2.161
REMARK  7 active torsions:
REMARK  status: ('A' for Active; 'I' for Inactive)
REMARK    1  A    between atoms: C4_10  and  S1_11 
REMARK    2  A    between atoms: S1_11  and  C5_12 
REMARK    3  A    between atoms: C9_17  and  C10_18 
REMARK    4  A    between atoms: C10_18  and  N4_19 
REMARK    5  A    between atoms: C10_18  and  C11_23 
REMARK    6  A    between atoms: C11_23  and  O1_24 
REMARK    7  A    between atoms: O1_24  and  N5_25 
REMARK       I    between atoms: N5_25  and  C12_27 
ROOT
HETATM    1  C5  UNL     1      10.570   7.950  13.602  1.00  0.00     0.064 C 
HETATM    2  C6  UNL     1       9.191   8.374  13.986  1.00  0.00     0.053 C 
HETATM    3  C7  UNL     1       9.400   9.896  14.166  1.00  0.00     0.171 C 
HETATM    4  F1  UNL     1       9.720  10.438  12.936  1.00  0.00    -0.249 F 
HETATM    5  C8  UNL     1      10.648   9.920  15.014  1.00  0.00     0.045 C 
HETATM    6  C9  UNL     1      11.483   8.811  14.396  1.00  0.00     0.035 C 
ENDROOT
BRANCH   1   7
HETATM    7  S1  UNL     1      10.910   6.217  13.560  1.00  0.00    -0.088 SA
BRANCH   7   8
HETATM    8  C4  UNL     1      11.024   5.521  11.953  1.00  0.00     0.147 A 
HETATM    9  N3  UNL     1      10.938   4.196  11.692  1.00  0.00    -0.325 N 
HETATM   10  C3  UNL     1      10.910   3.777  10.426  1.00  0.00     0.121 A 
ATOM     11  H3  UNL     1      10.894   3.524  12.457  1.00  0.00     0.169 HD
HETATM   12  C2  UNL     1      10.974   4.646   9.345  1.00  0.00     0.093 A 
HETATM   13  N2  UNL     1      10.762   2.368  10.127  1.00  0.00    -0.083 NA
HETATM   14  C1  UNL     1      11.069   5.989   9.621  1.00  0.00     0.103 A 
HETATM   15  N1  UNL     1      11.112   6.859   8.686  1.00  0.00    -0.385 N 
HETATM   16  N7  UNL     1      11.090   6.344  10.906  1.00  0.00    -0.323 N 
ATOM     17  H12 UNL     1      11.096   6.587   7.704  1.00  0.00     0.157 HD
ATOM     18  H11 UNL     1      11.183   7.855   8.891  1.00  0.00     0.157 HD
ATOM     19  H7  UNL     1      11.165   7.341  11.108  1.00  0.00     0.169 HD
ENDBRANCH   7   8
ENDBRANCH   1   7
BRANCH   6  20
HETATM   20  C10 UNL     1      12.393   8.173  15.345  1.00  0.00     0.215 C 
BRANCH  20  21
HETATM   21  N4  UNL     1      13.697   8.746  15.296  1.00  0.00    -0.072 N 
ATOM     22  H43 UNL     1      13.654   9.760  15.200  1.00  0.00     0.274 HD
ATOM     23  H42 UNL     1      14.161   8.691  16.203  1.00  0.00     0.274 HD
ATOM     24  H41 UNL     1      14.269   8.327  14.561  1.00  0.00     0.274 HD
ENDBRANCH  20  21
BRANCH  20  25
HETATM   25  C11 UNL     1      11.947   8.114  16.799  1.00  0.00     0.234 C 
BRANCH  25  26
HETATM   26  O1  UNL     1      12.846   7.111  17.278  1.00  0.00    -0.275 OA
BRANCH  26  27
HETATM   27  N5  UNL     1      12.702   5.983  16.653  1.00  0.00    -0.219 N 
HETATM   28  C12 UNL     1      13.324   4.749  16.827  1.00  0.00     0.352 C 
HETATM   29  N6  UNL     1      13.031   3.667  15.881  1.00  0.00    -0.038 NA
HETATM   30  O2  UNL     1      14.145   4.465  17.723  1.00  0.00    -0.249 OA
ATOM     31  H5  UNL     1      12.013   6.004  15.902  1.00  0.00     0.199 HD
ENDBRANCH  26  27
ENDBRANCH  25  26
ENDBRANCH  20  25
ENDBRANCH   6  20
TORSDOF 7
ENDMDL
MODEL 4
REMARK VINA RESULT: -8.069234499      1.405      1.538
REMARK  7 active torsions:
REMARK  status: ('A' for Active; 'I' for Inactive)
REMARK    1  A    between atoms: C4_10  and  S1_11 
REMARK    2  A    between atoms: S1_11  and  C5_12 
REMARK    3  A    between atoms: C9_17  and  C10_18 
REMARK    4  A    between atoms: C10_18  and  N4_19 
REMARK    5  A    between atoms: C10_18  and  C11_23 
REMARK    6  A    between atoms: C11_23  and  O1_24 
REMARK    7  A    between atoms: O1_24  and  N5_25 
REMARK       I    between atoms: N5_25  and  C12_27 
ROOT
HETATM    1  C5  UNL     1      10.619   7.987  13.796  1.00  0.00     0.064 C 
HETATM    2  C6  UNL     1       9.209   8.308  14.168  1.00  0.00     0.053 C 
HETATM    3  C7  UNL     1       9.330   9.821  14.467  1.00  0.00     0.171 C 
HETATM    4  F1  UNL     1       9.653  10.470  13.291  1.00  0.00    -0.249 F 
HETATM    5  C8  UNL     1      10.552   9.845  15.351  1.00  0.00     0.045 C 
HETATM    6  C9  UNL     1      11.463   8.831  14.679  1.00  0.00     0.035 C 
ENDROOT
BRANCH   1   7
HETATM    7  S1  UNL     1      11.054   6.282  13.635  1.00  0.00    -0.088 SA
BRANCH   7   8
HETATM    8  C4  UNL     1      10.888   5.622  12.018  1.00  0.00     0.147 A 
HETATM    9  N3  UNL     1      11.083   6.334  10.884  1.00  0.00    -0.325 N 
HETATM   10  C3  UNL     1      11.056   5.711   9.704  1.00  0.00     0.121 A 
ATOM     11  H3  UNL     1      11.249   7.339  10.930  1.00  0.00     0.169 HD
HETATM   12  C2  UNL     1      10.827   4.347   9.580  1.00  0.00     0.093 A 
HETATM   13  N2  UNL     1      11.318   6.447   8.485  1.00  0.00    -0.083 NA
HETATM   14  C1  UNL     1      10.623   3.635  10.737  1.00  0.00     0.103 A 
HETATM   15  N1  UNL     1      10.425   2.372  10.715  1.00  0.00    -0.385 N 
HETATM   16  N7  UNL     1      10.664   4.314  11.884  1.00  0.00    -0.323 N 
ATOM     17  H12 UNL     1      10.394   1.853   9.838  1.00  0.00     0.157 HD
ATOM     18  H11 UNL     1      10.273   1.844  11.574  1.00  0.00     0.157 HD
ATOM     19  H7  UNL     1      10.508   3.784  12.740  1.00  0.00     0.169 HD
ENDBRANCH   7   8
ENDBRANCH   1   7
BRANCH   6  20
HETATM   20  C10 UNL     1      12.381   8.171  15.605  1.00  0.00     0.215 C 
BRANCH  20  21
HETATM   21  N4  UNL     1      13.686   8.742  15.555  1.00  0.00    -0.072 N 
ATOM     22  H43 UNL     1      14.105   8.626  14.633  1.00  0.00     0.274 HD
ATOM     23  H42 UNL     1      13.648   9.760  15.587  1.00  0.00     0.274 HD
ATOM     24  H41 UNL     1      14.291   8.370  16.287  1.00  0.00     0.274 HD
ENDBRANCH  20  21
BRANCH  20  25
HETATM   25  C11 UNL     1      11.950   8.083  17.062  1.00  0.00     0.234 C 
BRANCH  25  26
HETATM   26  O1  UNL     1      12.827   7.044  17.502  1.00  0.00    -0.275 OA
BRANCH  26  27
HETATM   27  N5  UNL     1      12.698   5.961  16.800  1.00  0.00    -0.219 N 
HETATM   28  C12 UNL     1      13.334   4.724  16.890  1.00  0.00     0.352 C 
HETATM   29  N6  UNL     1      13.056   3.708  15.870  1.00  0.00    -0.038 NA
HETATM   30  O2  UNL     1      14.156   4.388  17.767  1.00  0.00    -0.249 OA
ATOM     31  H5  UNL     1      12.011   6.026  16.050  1.00  0.00     0.199 HD
ENDBRANCH  26  27
ENDBRANCH  25  26
ENDBRANCH  20  25
ENDBRANCH   6  20
TORSDOF 7
ENDMDL
MODEL 5
REMARK VINA RESULT: -7.775619846      1.466      1.841
REMARK  7 active torsions:
REMARK  status: ('A' for Active; 'I' for Inactive)
REMARK    1  A    between atoms: C4_10  and  S1_11 
REMARK    2  A    between atoms: S1_11  and  C5_12 
REMARK    3  A    between atoms: C9_17  and  C10_18 
REMARK    4  A    between atoms: C10_18  and  N4_19 
REMARK    5  A    between atoms: C10_18  and  C11_23 
REMARK    6  A    between atoms: C11_23  and  O1_24 
REMARK    7  A    between atoms: O1_24  and  N5_25 
REMARK       I    between atoms: N5_25  and  C12_27 
ROOT
HETATM    1  C5  UNL     1      10.476   9.955  15.124  1.00  0.00     0.064 C 
HETATM    2  C6  UNL     1       9.112   9.467  15.481  1.00  0.00     0.053 C 
HETATM    3  C7  UNL     1       9.106   9.725  17.006  1.00  0.00     0.171 C 
HETATM    4  F1  UNL     1       9.174  11.088  17.215  1.00  0.00    -0.249 F 
HETATM    5  C8  UNL     1      10.436   9.135  17.405  1.00  0.00     0.045 C 
HETATM    6  C9  UNL     1      11.343   9.577  16.269  1.00  0.00     0.035 C 
ENDROOT
BRANCH   1   7
HETATM    7  S1  UNL     1      11.071   9.605  13.498  1.00  0.00    -0.088 SA
BRANCH   7   8
HETATM    8  C4  UNL     1      10.507   8.093  12.809  1.00  0.00     0.147 A 
HETATM    9  N3  UNL     1      11.323   7.126  12.329  1.00  0.00    -0.325 N 
HETATM   10  C3  UNL     1      10.802   5.960  11.941  1.00  0.00     0.121 A 
ATOM     11  H3  UNL     1      12.327   7.288  12.263  1.00  0.00     0.169 HD
HETATM   12  C2  UNL     1       9.442   5.687  12.001  1.00  0.00     0.093 A 
HETATM   13  N2  UNL     1      11.666   4.895  11.477  1.00  0.00    -0.083 NA
HETATM   14  C1  UNL     1       8.622   6.678  12.484  1.00  0.00     0.103 A 
HETATM   15  N1  UNL     1       7.360   6.503  12.591  1.00  0.00    -0.385 N 
HETATM   16  N7  UNL     1       9.202   7.819  12.856  1.00  0.00    -0.323 N 
ATOM     17  H12 UNL     1       6.917   5.631  12.307  1.00  0.00     0.157 HD
ATOM     18  H11 UNL     1       6.752   7.239  12.949  1.00  0.00     0.157 HD
ATOM     19  H7  UNL     1       8.590   8.554  13.210  1.00  0.00     0.169 HD
ENDBRANCH   7   8
ENDBRANCH   1   7
BRANCH   6  20
HETATM   20  C10 UNL     1      12.457   8.663  16.028  1.00  0.00     0.215 C 
BRANCH  20  21
HETATM   21  N4  UNL     1      13.700   9.354  15.933  1.00  0.00    -0.072 N 
ATOM     22  H43 UNL     1      13.733  10.146  16.574  1.00  0.00     0.274 HD
ATOM     23  H42 UNL     1      14.463   8.801  16.322  1.00  0.00     0.274 HD
ATOM     24  H41 UNL     1      13.902   9.643  14.975  1.00  0.00     0.274 HD
ENDBRANCH  20  21
BRANCH  20  25
HETATM   25  C11 UNL     1      12.625   7.503  16.999  1.00  0.00     0.234 C 
BRANCH  25  26
HETATM   26  O1  UNL     1      13.060   6.494  16.085  1.00  0.00    -0.275 OA
BRANCH  26  27
HETATM   27  N5  UNL     1      13.708   5.539  16.678  1.00  0.00    -0.219 N 
HETATM   28  C12 UNL     1      13.525   4.158  16.669  1.00  0.00     0.352 C 
HETATM   29  N6  UNL     1      14.361   3.326  17.540  1.00  0.00    -0.038 NA
HETATM   30  O2  UNL     1      12.684   3.538  15.987  1.00  0.00    -0.249 OA
ATOM     31  H5  UNL     1      14.488   5.856  17.252  1.00  0.00     0.199 HD
ENDBRANCH  26  27
ENDBRANCH  25  26
ENDBRANCH  20  25
ENDBRANCH   6  20
TORSDOF 7
ENDMDL
