MODEL 1
REMARK VINA RESULT: -9.125927907      0.000      0.000
REMARK  6 active torsions:
REMARK  status: ('A' for Active; 'I' for Inactive)
REMARK       I    between atoms: N1_1  and  C1_5 
REMARK       I    between atoms: C1_5  and  N2_6 
REMARK       I    between atoms: C1_5  and  N3_10 
REMARK       I    between atoms: N3_10  and  C2_12 
REMARK    1  A    between atoms: C2_12  and  C3_14 
REMARK    2  A    between atoms: C3_14  and  C4_15 
REMARK       I    between atoms: C4_15  and  N4_17 
REMARK    3  A    between atoms: N4_17  and  C5_19 
REMARK    4  A    between atoms: C8_22  and  N5_23 
REMARK    5  A    between atoms: N5_23  and  N6_25 
REMARK    6  A    between atoms: N6_25  and  C9_27 
ROOT
HETATM    1  C5  UNL     1      11.781   4.020   7.394  1.00  0.00     0.037 A 
HETATM    2  C6  UNL     1      11.415   3.527   8.657  1.00  0.00     0.032 A 
HETATM    3  C7  UNL     1      11.077   4.324   9.713  1.00  0.00     0.036 A 
HETATM    4  C8  UNL     1      11.095   5.687   9.540  1.00  0.00     0.086 A 
HETATM    5  C13 UNL     1      11.446   6.206   8.319  1.00  0.00     0.146 A 
HETATM    6  F1  UNL     1      11.467   7.555   8.134  1.00  0.00    -0.204 F 
HETATM    7  C14 UNL     1      11.790   5.368   7.247  1.00  0.00     0.074 A 
ENDROOT
BRANCH   1   8
HETATM    8  N4  UNL     1      12.075   3.109   6.411  1.00  0.00    -0.327 N 
HETATM    9  C4  UNL     1      13.356   2.668   6.040  1.00  0.00     0.230 C 
HETATM   10  O2  UNL     1      14.363   3.104   6.625  1.00  0.00    -0.273 OA
ATOM     11  H4  UNL     1      11.287   2.713   5.899  1.00  0.00     0.169 HD
BRANCH   9  12
HETATM   12  C3  UNL     1      13.532   1.667   4.930  1.00  0.00     0.205 C 
BRANCH  12  13
HETATM   13  C2  UNL     1      14.416   0.596   5.362  1.00  0.00     0.229 C 
HETATM   14  N3  UNL     1      15.766   0.896   5.693  1.00  0.00    -0.311 N 
HETATM   15  C1  UNL     1      16.690  -0.131   6.129  1.00  0.00     0.482 C 
ATOM     16  H3  UNL     1      16.093   1.860   5.621  1.00  0.00     0.166 HD
HETATM   17  N1  UNL     1      17.747  -0.260   5.143  1.00  0.00    -0.033 N 
HETATM   18  N2  UNL     1      17.229   0.119   7.430  1.00  0.00    -0.033 N 
ATOM     19  H13 UNL     1      18.363   0.553   5.145  1.00  0.00     0.278 HD
ATOM     20  H12 UNL     1      18.426  -0.972   5.412  1.00  0.00     0.278 HD
ATOM     21  H11 UNL     1      17.362  -0.438   4.216  1.00  0.00     0.278 HD
ATOM     22  H23 UNL     1      17.909  -0.592   7.699  1.00  0.00     0.278 HD
ATOM     23  H22 UNL     1      17.846   0.932   7.432  1.00  0.00     0.278 HD
ATOM     24  H21 UNL     1      16.487   0.210   8.124  1.00  0.00     0.278 HD
HETATM   25  O1  UNL     1      14.031  -0.584   5.454  1.00  0.00    -0.273 OA
ENDBRANCH  12  13
ENDBRANCH   9  12
ENDBRANCH   1   8
BRANCH   4  26
HETATM   26  N5  UNL     1      10.745   6.554  10.629  1.00  0.00    -0.297 N 
ATOM     27  H5  UNL     1      10.714   7.560  10.460  1.00  0.00     0.187 HD
BRANCH  26  28
HETATM   28  N6  UNL     1      10.451   6.091  11.893  1.00  0.00    -0.299 N 
ATOM     29  H6  UNL     1      10.773   5.172  12.197  1.00  0.00     0.187 HD
BRANCH  28  30
HETATM   30  C9  UNL     1       9.692   6.913  12.760  1.00  0.00     0.066 A 
HETATM   31  C10 UNL     1      10.241   7.942  13.487  1.00  0.00     0.051 A 
HETATM   32  C11 UNL     1       9.452   8.710  14.315  1.00  0.00     0.109 A 
HETATM   33  N7  UNL     1       8.143   8.416  14.383  1.00  0.00    -0.312 N 
HETATM   34  N8  UNL     1       7.602   7.426  13.686  1.00  0.00    -0.310 N 
ATOM     35  H7  UNL     1       7.544   8.974  14.992  1.00  0.00     0.186 HD
HETATM   36  C12 UNL     1       8.340   6.668  12.877  1.00  0.00     0.138 A 
ATOM     37  H8  UNL     1       6.603   7.242  13.771  1.00  0.00     0.186 HD
ENDBRANCH  28  30
ENDBRANCH  26  28
ENDBRANCH   4  26
TORSDOF 6
ENDMDL
MODEL 2
REMARK VINA RESULT: -9.092878346      1.160      1.505
REMARK  6 active torsions:
REMARK  status: ('A' for Active; 'I' for Inactive)
REMARK       I    between atoms: N1_1  and  C1_5 
REMARK       I    between atoms: C1_5  and  N2_6 
REMARK       I    between atoms: C1_5  and  N3_10 
REMARK       I    between atoms: N3_10  and  C2_12 
REMARK    1  A    between atoms: C2_12  and  C3_14 
REMARK    2  A    between atoms: C3_14  and  C4_15 
REMARK       I    between atoms: C4_15  and  N4_17 
REMARK    3  A    between atoms: N4_17  and  C5_19 
REMARK    4  A    between atoms: C8_22  and  N5_23 
REMARK    5  A    between atoms: N5_23  and  N6_25 
REMARK    6  A    between atoms: N6_25  and  C9_27 
ROOT
HETATM    1  C5  UNL     1      11.624   4.233   7.819  1.00  0.00     0.037 A 
HETATM    2  C6  UNL     1      11.742   5.633   7.795  1.00  0.00     0.032 A 
HETATM    3  C7  UNL     1      11.459   6.435   8.863  1.00  0.00     0.036 A 
HETATM    4  C8  UNL     1      11.031   5.849  10.030  1.00  0.00     0.086 A 
HETATM    5  C13 UNL     1      10.903   4.485  10.091  1.00  0.00     0.146 A 
HETATM    6  F1  UNL     1      10.480   3.892  11.242  1.00  0.00    -0.204 F 
HETATM    7  C14 UNL     1      11.201   3.678   8.981  1.00  0.00     0.074 A 
ENDROOT
BRANCH   1   8
HETATM    8  N4  UNL     1      11.964   3.542   6.682  1.00  0.00    -0.327 N 
HETATM    9  C4  UNL     1      13.241   3.063   6.350  1.00  0.00     0.230 C 
HETATM   10  O2  UNL     1      14.199   3.245   7.122  1.00  0.00    -0.273 OA
ATOM     11  H4  UNL     1      11.216   3.358   6.014  1.00  0.00     0.169 HD
BRANCH   9  12
HETATM   12  C3  UNL     1      13.473   2.325   5.058  1.00  0.00     0.205 C 
BRANCH  12  13
HETATM   13  C2  UNL     1      14.271   1.135   5.302  1.00  0.00     0.229 C 
HETATM   14  N3  UNL     1      15.643   1.274   5.649  1.00  0.00    -0.311 N 
HETATM   15  C1  UNL     1      16.486   0.122   5.903  1.00  0.00     0.482 C 
ATOM     16  H3  UNL     1      16.046   2.208   5.721  1.00  0.00     0.166 HD
HETATM   17  N1  UNL     1      17.522   0.067   4.889  1.00  0.00    -0.033 N 
HETATM   18  N2  UNL     1      17.052   0.123   7.216  1.00  0.00    -0.033 N 
ATOM     19  H13 UNL     1      18.201   0.819   5.005  1.00  0.00     0.278 HD
ATOM     20  H12 UNL     1      18.144  -0.729   5.030  1.00  0.00     0.278 HD
ATOM     21  H11 UNL     1      17.118   0.066   3.952  1.00  0.00     0.278 HD
ATOM     22  H23 UNL     1      17.674  -0.672   7.358  1.00  0.00     0.278 HD
ATOM     23  H22 UNL     1      17.731   0.875   7.332  1.00  0.00     0.278 HD
ATOM     24  H21 UNL     1      16.324   0.162   7.930  1.00  0.00     0.278 HD
HETATM   25  O1  UNL     1      13.794  -0.012   5.218  1.00  0.00    -0.273 OA
ENDBRANCH  12  13
ENDBRANCH   9  12
ENDBRANCH   1   8
BRANCH   4  26
HETATM   26  N5  UNL     1      10.724   6.663  11.172  1.00  0.00    -0.297 N 
ATOM     27  H5  UNL     1      11.362   7.421  11.415  1.00  0.00     0.187 HD
BRANCH  26  28
HETATM   28  N6  UNL     1       9.607   6.468  11.955  1.00  0.00    -0.299 N 
ATOM     29  H6  UNL     1       9.019   5.645  11.825  1.00  0.00     0.187 HD
BRANCH  28  30
HETATM   30  C9  UNL     1       9.292   7.431  12.943  1.00  0.00     0.066 A 
HETATM   31  C10 UNL     1      10.087   8.519  13.211  1.00  0.00     0.051 A 
HETATM   32  C11 UNL     1       9.729   9.424  14.185  1.00  0.00     0.109 A 
HETATM   33  N7  UNL     1       8.585   9.203  14.854  1.00  0.00    -0.312 N 
HETATM   34  N8  UNL     1       7.809   8.157  14.605  1.00  0.00    -0.310 N 
ATOM     35  H7  UNL     1       8.304   9.863  15.580  1.00  0.00     0.186 HD
HETATM   36  C12 UNL     1       8.130   7.266  13.669  1.00  0.00     0.138 A 
ATOM     37  H8  UNL     1       6.950   8.033  15.140  1.00  0.00     0.186 HD
ENDBRANCH  28  30
ENDBRANCH  26  28
ENDBRANCH   4  26
TORSDOF 6
ENDMDL
MODEL 3
REMARK VINA RESULT: -8.879009579      1.307      1.486
REMARK  6 active torsions:
REMARK  status: ('A' for Active; 'I' for Inactive)
REMARK       I    between atoms: N1_1  and  C1_5 
REMARK       I    between atoms: C1_5  and  N2_6 
REMARK       I    between atoms: C1_5  and  N3_10 
REMARK       I    between atoms: N3_10  and  C2_12 
REMARK    1  A    between atoms: C2_12  and  C3_14 
REMARK    2  A    between atoms: C3_14  and  C4_15 
REMARK       I    between atoms: C4_15  and  N4_17 
REMARK    3  A    between atoms: N4_17  and  C5_19 
REMARK    4  A    between atoms: C8_22  and  N5_23 
REMARK    5  A    between atoms: N5_23  and  N6_25 
REMARK    6  A    between atoms: N6_25  and  C9_27 
ROOT
HETATM    1  C5  UNL     1      11.406   3.989   7.935  1.00  0.00     0.037 A 
HETATM    2  C6  UNL     1      11.105   3.561   9.238  1.00  0.00     0.032 A 
HETATM    3  C7  UNL     1      10.914   4.410  10.290  1.00  0.00     0.036 A 
HETATM    4  C8  UNL     1      11.024   5.762  10.071  1.00  0.00     0.086 A 
HETATM    5  C13 UNL     1      11.317   6.219   8.810  1.00  0.00     0.146 A 
HETATM    6  F1  UNL     1      11.428   7.556   8.580  1.00  0.00    -0.204 F 
HETATM    7  C14 UNL     1      11.508   5.327   7.743  1.00  0.00     0.074 A 
ENDROOT
BRANCH   1   8
HETATM    8  N4  UNL     1      11.549   3.031   6.962  1.00  0.00    -0.327 N 
HETATM    9  C4  UNL     1      12.760   2.495   6.493  1.00  0.00     0.230 C 
HETATM   10  O2  UNL     1      13.842   2.879   6.970  1.00  0.00    -0.273 OA
ATOM     11  H4  UNL     1      10.694   2.674   6.537  1.00  0.00     0.169 HD
BRANCH   9  12
HETATM   12  C3  UNL     1      12.768   1.451   5.408  1.00  0.00     0.205 C 
BRANCH  12  13
HETATM   13  C2  UNL     1      13.878   0.533   5.610  1.00  0.00     0.229 C 
HETATM   14  N3  UNL     1      13.954  -0.214   6.818  1.00  0.00    -0.311 N 
HETATM   15  C1  UNL     1      15.037  -1.144   7.072  1.00  0.00     0.482 C 
ATOM     16  H3  UNL     1      13.228  -0.094   7.524  1.00  0.00     0.166 HD
HETATM   17  N1  UNL     1      15.812  -0.663   8.199  1.00  0.00    -0.033 N 
HETATM   18  N2  UNL     1      14.584  -2.482   7.293  1.00  0.00    -0.033 N 
ATOM     19  H13 UNL     1      15.293  -0.744   9.074  1.00  0.00     0.278 HD
ATOM     20  H12 UNL     1      16.586  -1.290   8.418  1.00  0.00     0.278 HD
ATOM     21  H11 UNL     1      16.135   0.292   8.042  1.00  0.00     0.278 HD
ATOM     22  H23 UNL     1      15.357  -3.110   7.512  1.00  0.00     0.278 HD
ATOM     23  H22 UNL     1      14.065  -2.564   8.167  1.00  0.00     0.278 HD
ATOM     24  H21 UNL     1      14.038  -2.821   6.500  1.00  0.00     0.278 HD
HETATM   25  O1  UNL     1      14.771   0.375   4.757  1.00  0.00    -0.273 OA
ENDBRANCH  12  13
ENDBRANCH   9  12
ENDBRANCH   1   8
BRANCH   4  26
HETATM   26  N5  UNL     1      10.830   6.683  11.155  1.00  0.00    -0.297 N 
ATOM     27  H5  UNL     1      11.489   7.455  11.261  1.00  0.00     0.187 HD
BRANCH  26  28
HETATM   28  N6  UNL     1       9.796   6.572  12.058  1.00  0.00    -0.299 N 
ATOM     29  H6  UNL     1       9.217   5.733  12.085  1.00  0.00     0.187 HD
BRANCH  28  30
HETATM   30  C9  UNL     1       9.553   7.644  12.949  1.00  0.00     0.066 A 
HETATM   31  C10 UNL     1      10.352   8.760  13.015  1.00  0.00     0.051 A 
HETATM   32  C11 UNL     1      10.066   9.774  13.903  1.00  0.00     0.109 A 
HETATM   33  N7  UNL     1       8.988   9.629  14.693  1.00  0.00    -0.312 N 
HETATM   34  N8  UNL     1       8.210   8.556  14.639  1.00  0.00    -0.310 N 
ATOM     35  H7  UNL     1       8.761  10.369  15.357  1.00  0.00     0.186 HD
HETATM   36  C12 UNL     1       8.462   7.562  13.790  1.00  0.00     0.138 A 
ATOM     37  H8  UNL     1       7.403   8.492  15.259  1.00  0.00     0.186 HD
ENDBRANCH  28  30
ENDBRANCH  26  28
ENDBRANCH   4  26
TORSDOF 6
ENDMDL
MODEL 4
REMARK VINA RESULT: -8.777183558      2.525      9.382
REMARK  6 active torsions:
REMARK  status: ('A' for Active; 'I' for Inactive)
REMARK       I    between atoms: N1_1  and  C1_5 
REMARK       I    between atoms: C1_5  and  N2_6 
REMARK       I    between atoms: C1_5  and  N3_10 
REMARK       I    between atoms: N3_10  and  C2_12 
REMARK    1  A    between atoms: C2_12  and  C3_14 
REMARK    2  A    between atoms: C3_14  and  C4_15 
REMARK       I    between atoms: C4_15  and  N4_17 
REMARK    3  A    between atoms: N4_17  and  C5_19 
REMARK    4  A    between atoms: C8_22  and  N5_23 
REMARK    5  A    between atoms: N5_23  and  N6_25 
REMARK    6  A    between atoms: N6_25  and  C9_27 
ROOT
HETATM    1  C5  UNL     1      11.007   5.525   9.526  1.00  0.00     0.037 A 
HETATM    2  C6  UNL     1      10.805   4.205   9.089  1.00  0.00     0.032 A 
HETATM    3  C7  UNL     1      11.124   3.765   7.836  1.00  0.00     0.036 A 
HETATM    4  C8  UNL     1      11.673   4.658   6.946  1.00  0.00     0.086 A 
HETATM    5  C13 UNL     1      11.884   5.955   7.338  1.00  0.00     0.146 A 
HETATM    6  F1  UNL     1      12.427   6.849   6.465  1.00  0.00    -0.204 F 
HETATM    7  C14 UNL     1      11.549   6.386   8.631  1.00  0.00     0.074 A 
ENDROOT
BRANCH   1   8
HETATM    8  N4  UNL     1      10.663   5.830  10.820  1.00  0.00    -0.327 N 
HETATM    9  C4  UNL     1      11.131   5.190  11.979  1.00  0.00     0.230 C 
HETATM   10  O2  UNL     1      11.942   4.251  11.892  1.00  0.00    -0.273 OA
ATOM     11  H4  UNL     1      10.005   6.597  10.952  1.00  0.00     0.169 HD
BRANCH   9  12
HETATM   12  C3  UNL     1      10.660   5.626  13.340  1.00  0.00     0.205 C 
BRANCH  12  13
HETATM   13  C2  UNL     1       9.762   6.763  13.215  1.00  0.00     0.229 C 
HETATM   14  N3  UNL     1      10.135   8.013  13.782  1.00  0.00    -0.311 N 
HETATM   15  C1  UNL     1       9.279   9.179  13.687  1.00  0.00     0.482 C 
ATOM     16  H3  UNL     1      11.027   8.091  14.269  1.00  0.00     0.166 HD
HETATM   17  N1  UNL     1       8.845   9.552  15.020  1.00  0.00    -0.033 N 
HETATM   18  N2  UNL     1       9.907  10.279  13.023  1.00  0.00    -0.033 N 
ATOM     19  H13 UNL     1       9.614   9.934  15.571  1.00  0.00     0.278 HD
ATOM     20  H12 UNL     1       8.242  10.374  15.002  1.00  0.00     0.278 HD
ATOM     21  H11 UNL     1       8.398   8.767  15.492  1.00  0.00     0.278 HD
ATOM     22  H23 UNL     1       9.304  11.102  13.006  1.00  0.00     0.278 HD
ATOM     23  H22 UNL     1      10.675  10.662  13.575  1.00  0.00     0.278 HD
ATOM     24  H21 UNL     1      10.212  10.017  12.086  1.00  0.00     0.278 HD
HETATM   25  O1  UNL     1       8.670   6.682  12.623  1.00  0.00    -0.273 OA
ENDBRANCH  12  13
ENDBRANCH   9  12
ENDBRANCH   1   8
BRANCH   4  26
HETATM   26  N5  UNL     1      12.019   4.229   5.621  1.00  0.00    -0.297 N 
ATOM     27  H5  UNL     1      12.156   4.937   4.899  1.00  0.00     0.187 HD
BRANCH  26  28
HETATM   28  N6  UNL     1      12.176   2.903   5.278  1.00  0.00    -0.299 N 
ATOM     29  H6  UNL     1      11.410   2.382   4.852  1.00  0.00     0.187 HD
BRANCH  28  30
HETATM   30  C9  UNL     1      13.421   2.278   5.527  1.00  0.00     0.066 A 
HETATM   31  C10 UNL     1      13.599   1.322   6.498  1.00  0.00     0.051 A 
HETATM   32  C11 UNL     1      14.835   0.748   6.695  1.00  0.00     0.109 A 
HETATM   33  N7  UNL     1      15.848   1.156   5.912  1.00  0.00    -0.312 N 
HETATM   34  N8  UNL     1      15.688   2.078   4.972  1.00  0.00    -0.310 N 
ATOM     35  H7  UNL     1      16.770   0.742   6.044  1.00  0.00     0.186 HD
HETATM   36  C12 UNL     1      14.504   2.649   4.758  1.00  0.00     0.138 A 
ATOM     37  H8  UNL     1      16.487   2.354   4.402  1.00  0.00     0.186 HD
ENDBRANCH  28  30
ENDBRANCH  26  28
ENDBRANCH   4  26
TORSDOF 6
ENDMDL
MODEL 5
REMARK VINA RESULT: -8.771508138      1.581      1.966
REMARK  6 active torsions:
REMARK  status: ('A' for Active; 'I' for Inactive)
REMARK       I    between atoms: N1_1  and  C1_5 
REMARK       I    between atoms: C1_5  and  N2_6 
REMARK       I    between atoms: C1_5  and  N3_10 
REMARK       I    between atoms: N3_10  and  C2_12 
REMARK    1  A    between atoms: C2_12  and  C3_14 
REMARK    2  A    between atoms: C3_14  and  C4_15 
REMARK       I    between atoms: C4_15  and  N4_17 
REMARK    3  A    between atoms: N4_17  and  C5_19 
REMARK    4  A    between atoms: C8_22  and  N5_23 
REMARK    5  A    between atoms: N5_23  and  N6_25 
REMARK    6  A    between atoms: N6_25  and  C9_27 
ROOT
HETATM    1  C5  UNL     1      11.214   4.086   8.489  1.00  0.00     0.037 A 
HETATM    2  C6  UNL     1      11.403   5.469   8.638  1.00  0.00     0.032 A 
HETATM    3  C7  UNL     1      11.202   6.139   9.811  1.00  0.00     0.036 A 
HETATM    4  C8  UNL     1      10.792   5.428  10.913  1.00  0.00     0.086 A 
HETATM    5  C13 UNL     1      10.597   4.074  10.805  1.00  0.00     0.146 A 
HETATM    6  F1  UNL     1      10.190   3.357  11.889  1.00  0.00    -0.204 F 
HETATM    7  C14 UNL     1      10.809   3.405   9.590  1.00  0.00     0.074 A 
ENDROOT
BRANCH   1   8
HETATM    8  N4  UNL     1      11.473   3.532   7.260  1.00  0.00    -0.327 N 
HETATM    9  C4  UNL     1      12.735   3.389   6.661  1.00  0.00     0.230 C 
HETATM   10  O2  UNL     1      13.758   3.776   7.253  1.00  0.00    -0.273 OA
ATOM     11  H4  UNL     1      10.671   3.191   6.730  1.00  0.00     0.169 HD
BRANCH   9  12
HETATM   12  C3  UNL     1      12.871   2.769   5.296  1.00  0.00     0.205 C 
BRANCH  12  13
HETATM   13  C2  UNL     1      13.513   1.468   5.402  1.00  0.00     0.229 C 
HETATM   14  N3  UNL     1      14.633   1.312   6.264  1.00  0.00    -0.311 N 
HETATM   15  C1  UNL     1      15.311   0.039   6.409  1.00  0.00     0.482 C 
ATOM     16  H3  UNL     1      14.969   2.115   6.795  1.00  0.00     0.166 HD
HETATM   17  N1  UNL     1      16.665   0.169   5.905  1.00  0.00    -0.033 N 
HETATM   18  N2  UNL     1      15.308  -0.445   7.756  1.00  0.00    -0.033 N 
ATOM     19  H13 UNL     1      17.238   0.751   6.515  1.00  0.00     0.278 HD
ATOM     20  H12 UNL     1      17.183  -0.705   5.992  1.00  0.00     0.278 HD
ATOM     21  H11 UNL     1      16.667   0.514   4.946  1.00  0.00     0.278 HD
ATOM     22  H23 UNL     1      15.827  -1.319   7.842  1.00  0.00     0.278 HD
ATOM     23  H22 UNL     1      15.882   0.138   8.366  1.00  0.00     0.278 HD
ATOM     24  H21 UNL     1      14.356  -0.537   8.111  1.00  0.00     0.278 HD
HETATM   25  O1  UNL     1      13.114   0.478   4.762  1.00  0.00    -0.273 OA
ENDBRANCH  12  13
ENDBRANCH   9  12
ENDBRANCH   1   8
BRANCH   4  26
HETATM   26  N5  UNL     1      10.572   6.101  12.161  1.00  0.00    -0.297 N 
ATOM     27  H5  UNL     1      10.615   5.556  13.023  1.00  0.00     0.187 HD
BRANCH  26  28
HETATM   28  N6  UNL     1      10.304   7.450  12.250  1.00  0.00    -0.299 N 
ATOM     29  H6  UNL     1      10.686   8.101  11.565  1.00  0.00     0.187 HD
BRANCH  28  30
HETATM   30  C9  UNL     1       9.488   7.913  13.309  1.00  0.00     0.066 A 
HETATM   31  C10 UNL     1       9.848   8.950  14.135  1.00  0.00     0.051 A 
HETATM   32  C11 UNL     1       9.012   9.358  15.151  1.00  0.00     0.109 A 
HETATM   33  N7  UNL     1       7.845   8.710  15.299  1.00  0.00    -0.312 N 
HETATM   34  N8  UNL     1       7.485   7.708  14.508  1.00  0.00    -0.310 N 
ATOM     35  H7  UNL     1       7.213   8.998  16.046  1.00  0.00     0.186 HD
HETATM   36  C12 UNL     1       8.274   7.292  13.518  1.00  0.00     0.138 A 
ATOM     37  H8  UNL     1       6.589   7.247  14.661  1.00  0.00     0.186 HD
ENDBRANCH  28  30
ENDBRANCH  26  28
ENDBRANCH   4  26
TORSDOF 6
ENDMDL
