MODEL 1
REMARK VINA RESULT: -8.288790988      0.000      0.000
REMARK  8 active torsions:
REMARK  status: ('A' for Active; 'I' for Inactive)
REMARK    1  A    between atoms: C3_6  and  C4_7 
REMARK    2  A    between atoms: C4_7  and  C5_8 
REMARK    3  A    between atoms: C4_7  and  C8_21 
REMARK    4  A    between atoms: C5_8  and  C6_10 
REMARK       I    between atoms: C6_10  and  N2_12 
REMARK    5  A    between atoms: N2_12  and  N3_14 
REMARK       I    between atoms: N3_14  and  C7_16 
REMARK    6  A    between atoms: C8_21  and  O4_22 
REMARK    7  A    between atoms: C8_21  and  N6_24 
REMARK    8  A    between atoms: N6_24  and  C9_26 
ROOT
HETATM    1  C4  UNL     1      10.481   5.104  10.503  1.00  0.00     0.169 C 
ENDROOT
BRANCH   1   2
HETATM    2  C3  UNL     1      10.951   6.387  11.156  1.00  0.00     0.089 A 
HETATM    3  N1  UNL     1      11.815   7.289  10.698  1.00  0.00    -0.261 N 
HETATM    4  O1  UNL     1      11.944   8.256  11.572  1.00  0.00    -0.239 OA
ATOM      5  H1  UNL     1      12.303   7.236   9.804  1.00  0.00     0.194 HD
HETATM    6  C2  UNL     1      11.186   8.034  12.619  1.00  0.00     0.113 A 
HETATM    7  C1  UNL     1      11.069   8.909  13.811  1.00  0.00     0.082 C 
HETATM    8  C13 UNL     1      10.535   6.849  12.395  1.00  0.00     0.172 A 
HETATM    9  F1  UNL     1       9.661   6.255  13.219  1.00  0.00    -0.201 F 
ENDBRANCH   1   2
BRANCH   1  10
HETATM   10  C5  UNL     1      11.067   4.007  11.303  1.00  0.00     0.232 C 
HETATM   11  O2  UNL     1      12.182   4.273  11.878  1.00  0.00    -0.286 OA
BRANCH  10  12
HETATM   12  C6  UNL     1      10.515   2.692  11.499  1.00  0.00     0.306 C 
HETATM   13  O3  UNL     1      11.144   1.652  11.788  1.00  0.00    -0.263 OA
HETATM   14  N2  UNL     1       9.094   2.498  11.357  1.00  0.00    -0.261 N 
ATOM     15  H2  UNL     1       8.519   3.307  11.122  1.00  0.00     0.190 HD
BRANCH  14  16
HETATM   16  N3  UNL     1       8.469   1.279  11.521  1.00  0.00    -0.271 N 
HETATM   17  C7  UNL     1       7.191   0.933  11.059  1.00  0.00     0.200 C 
HETATM   18  N4  UNL     1       6.388   0.236  11.804  1.00  0.00    -0.372 N 
HETATM   19  N5  UNL     1       6.718   1.320   9.783  1.00  0.00    -0.062 NA
ATOM     20  H42 UNL     1       6.728  -0.043  12.724  1.00  0.00     0.158 HD
ATOM     21  H41 UNL     1       5.458  -0.015  11.468  1.00  0.00     0.158 HD
ATOM     22  H3  UNL     1       8.987   0.560  12.027  1.00  0.00     0.189 HD
ENDBRANCH  14  16
ENDBRANCH  10  12
ENDBRANCH   1  10
BRANCH   1  23
HETATM   23  C8  UNL     1      11.026   5.165   9.088  1.00  0.00     0.237 C 
BRANCH  23  24
HETATM   24  O4  UNL     1      10.446   6.338   8.516  1.00  0.00    -0.376 OA
ATOM     25  H4  UNL     1      10.569   7.018   9.168  1.00  0.00     0.212 HD
ENDBRANCH  23  24
BRANCH  23  26
HETATM   26  N6  UNL     1      10.554   4.103   8.229  1.00  0.00    -0.343 N 
ATOM     27  H6  UNL     1       9.821   3.458   8.525  1.00  0.00     0.164 HD
BRANCH  26  28
HETATM   28  C9  UNL     1      11.172   4.006   6.940  1.00  0.00     0.144 A 
HETATM   29  C10 UNL     1      12.179   3.169   6.544  1.00  0.00     0.058 A 
HETATM   30  C11 UNL     1      12.444   3.433   5.220  1.00  0.00     0.029 A 
HETATM   31  C12 UNL     1      11.557   4.450   4.860  1.00  0.00     0.144 A 
HETATM   32  O5  UNL     1      10.853   4.728   5.913  1.00  0.00    -0.306 OA
ENDBRANCH  26  28
ENDBRANCH  23  26
ENDBRANCH   1  23
TORSDOF 8
ENDMDL
MODEL 2
REMARK VINA RESULT: -8.102622438      1.055      1.069
REMARK  8 active torsions:
REMARK  status: ('A' for Active; 'I' for Inactive)
REMARK    1  A    between atoms: C3_6  and  C4_7 
REMARK    2  A    between atoms: C4_7  and  C5_8 
REMARK    3  A    between atoms: C4_7  and  C8_21 
REMARK    4  A    between atoms: C5_8  and  C6_10 
REMARK       I    between atoms: C6_10  and  N2_12 
REMARK    5  A    between atoms: N2_12  and  N3_14 
REMARK       I    between atoms: N3_14  and  C7_16 
REMARK    6  A    between atoms: C8_21  and  O4_22 
REMARK    7  A    between atoms: C8_21  and  N6_24 
REMARK    8  A    between atoms: N6_24  and  C9_26 
ROOT
HETATM    1  C4  UNL     1      10.499   5.424  10.518  1.00  0.00     0.169 C 
ENDROOT
BRANCH   1   2
HETATM    2  C3  UNL     1      10.469   6.504  11.579  1.00  0.00     0.089 A 
HETATM    3  N1  UNL     1      11.362   7.460  11.823  1.00  0.00    -0.261 N 
HETATM    4  O1  UNL     1      10.956   8.192  12.831  1.00  0.00    -0.239 OA
ATOM      5  H1  UNL     1      12.229   7.602  11.305  1.00  0.00     0.194 HD
HETATM    6  C2  UNL     1       9.804   7.756  13.282  1.00  0.00     0.113 A 
HETATM    7  C1  UNL     1       9.037   8.332  14.413  1.00  0.00     0.082 C 
HETATM    8  C13 UNL     1       9.457   6.677  12.511  1.00  0.00     0.172 A 
HETATM    9  F1  UNL     1       8.348   5.935  12.636  1.00  0.00    -0.201 F 
ENDBRANCH   1   2
BRANCH   1  10
HETATM   10  C5  UNL     1      11.037   4.219  11.185  1.00  0.00     0.232 C 
HETATM   11  O2  UNL     1      12.102   4.395  11.876  1.00  0.00    -0.286 OA
BRANCH  10  12
HETATM   12  C6  UNL     1      10.487   2.889  11.138  1.00  0.00     0.306 C 
HETATM   13  O3  UNL     1      10.954   1.908  10.521  1.00  0.00    -0.263 OA
HETATM   14  N2  UNL     1       9.271   2.605  11.857  1.00  0.00    -0.261 N 
ATOM     15  H2  UNL     1       8.836   3.363  12.384  1.00  0.00     0.190 HD
BRANCH  14  16
HETATM   16  N3  UNL     1       8.664   1.366  11.873  1.00  0.00    -0.271 N 
HETATM   17  C7  UNL     1       7.465   1.023  11.231  1.00  0.00     0.200 C 
HETATM   18  N4  UNL     1       6.592   0.268  11.826  1.00  0.00    -0.372 N 
HETATM   19  N5  UNL     1       7.150   1.472   9.927  1.00  0.00    -0.062 NA
ATOM     20  H42 UNL     1       6.819  -0.057  12.766  1.00  0.00     0.158 HD
ATOM     21  H41 UNL     1       5.721   0.018  11.360  1.00  0.00     0.158 HD
ATOM     22  H3  UNL     1       9.132   0.630  12.402  1.00  0.00     0.189 HD
ENDBRANCH  14  16
ENDBRANCH  10  12
ENDBRANCH   1  10
BRANCH   1  23
HETATM   23  C8  UNL     1      11.418   5.965   9.438  1.00  0.00     0.237 C 
BRANCH  23  24
HETATM   24  O4  UNL     1      10.547   6.409   8.397  1.00  0.00    -0.376 OA
ATOM     25  H4  UNL     1      11.041   6.292   7.594  1.00  0.00     0.212 HD
ENDBRANCH  23  24
BRANCH  23  26
HETATM   26  N6  UNL     1      12.226   4.956   8.793  1.00  0.00    -0.343 N 
ATOM     27  H6  UNL     1      13.016   4.517   9.264  1.00  0.00     0.164 HD
BRANCH  26  28
HETATM   28  C9  UNL     1      11.856   4.606   7.454  1.00  0.00     0.144 A 
HETATM   29  C10 UNL     1      11.452   3.388   6.976  1.00  0.00     0.058 A 
HETATM   30  C11 UNL     1      11.203   3.529   5.630  1.00  0.00     0.029 A 
HETATM   31  C12 UNL     1      11.476   4.869   5.342  1.00  0.00     0.144 A 
HETATM   32  O5  UNL     1      11.850   5.426   6.451  1.00  0.00    -0.306 OA
ENDBRANCH  26  28
ENDBRANCH  23  26
ENDBRANCH   1  23
TORSDOF 8
ENDMDL
MODEL 3
REMARK VINA RESULT: -8.020300514      6.552      7.880
REMARK  8 active torsions:
REMARK  status: ('A' for Active; 'I' for Inactive)
REMARK    1  A    between atoms: C3_6  and  C4_7 
REMARK    2  A    between atoms: C4_7  and  C5_8 
REMARK    3  A    between atoms: C4_7  and  C8_21 
REMARK    4  A    between atoms: C5_8  and  C6_10 
REMARK       I    between atoms: C6_10  and  N2_12 
REMARK    5  A    between atoms: N2_12  and  N3_14 
REMARK       I    between atoms: N3_14  and  C7_16 
REMARK    6  A    between atoms: C8_21  and  O4_22 
REMARK    7  A    between atoms: C8_21  and  N6_24 
REMARK    8  A    between atoms: N6_24  and  C9_26 
ROOT
HETATM    1  C4  UNL     1      12.556   7.871  16.084  1.00  0.00     0.169 C 
ENDROOT
BRANCH   1   2
HETATM    2  C3  UNL     1      11.346   8.617  16.608  1.00  0.00     0.089 A 
HETATM    3  N1  UNL     1      11.098   9.040  17.845  1.00  0.00    -0.261 N 
HETATM    4  O1  UNL     1       9.937   9.646  17.876  1.00  0.00    -0.239 OA
ATOM      5  H1  UNL     1      11.716   8.912  18.646  1.00  0.00     0.194 HD
HETATM    6  C2  UNL     1       9.386   9.646  16.687  1.00  0.00     0.113 A 
HETATM    7  C1  UNL     1       8.072  10.239  16.335  1.00  0.00     0.082 C 
HETATM    8  C13 UNL     1      10.252   8.997  15.846  1.00  0.00     0.172 A 
HETATM    9  F1  UNL     1      10.073   8.777  14.537  1.00  0.00    -0.201 F 
ENDBRANCH   1   2
BRANCH   1  10
HETATM   10  C5  UNL     1      12.781   6.755  17.028  1.00  0.00     0.232 C 
HETATM   11  O2  UNL     1      12.693   7.054  18.272  1.00  0.00    -0.286 OA
BRANCH  10  12
HETATM   12  C6  UNL     1      13.080   5.388  16.691  1.00  0.00     0.306 C 
HETATM   13  O3  UNL     1      12.605   4.730  15.741  1.00  0.00    -0.263 OA
HETATM   14  N2  UNL     1      14.016   4.653  17.503  1.00  0.00    -0.261 N 
ATOM     15  H2  UNL     1      14.444   5.131  18.297  1.00  0.00     0.190 HD
BRANCH  14  16
HETATM   16  N3  UNL     1      14.367   3.339  17.267  1.00  0.00    -0.271 N 
HETATM   17  C7  UNL     1      15.514   2.896  16.593  1.00  0.00     0.200 C 
HETATM   18  N4  UNL     1      15.444   1.906  15.755  1.00  0.00    -0.372 N 
HETATM   19  N5  UNL     1      16.782   3.493  16.785  1.00  0.00    -0.062 NA
ATOM     20  H42 UNL     1      14.530   1.475  15.617  1.00  0.00     0.158 HD
ATOM     21  H41 UNL     1      16.279   1.583  15.266  1.00  0.00     0.158 HD
ATOM     22  H3  UNL     1      13.730   2.622  17.615  1.00  0.00     0.189 HD
ENDBRANCH  14  16
ENDBRANCH  10  12
ENDBRANCH   1  10
BRANCH   1  23
HETATM   23  C8  UNL     1      13.678   8.893  16.093  1.00  0.00     0.237 C 
BRANCH  23  24
HETATM   24  O4  UNL     1      13.056  10.124  16.464  1.00  0.00    -0.376 OA
ATOM     25  H4  UNL     1      13.771  10.741  16.567  1.00  0.00     0.212 HD
ENDBRANCH  23  24
BRANCH  23  26
HETATM   26  N6  UNL     1      14.228   9.174  14.787  1.00  0.00    -0.343 N 
ATOM     27  H6  UNL     1      15.234   9.232  14.629  1.00  0.00     0.164 HD
BRANCH  26  28
HETATM   28  C9  UNL     1      13.284   9.368  13.727  1.00  0.00     0.144 A 
HETATM   29  C10 UNL     1      12.625  10.516  13.378  1.00  0.00     0.058 A 
HETATM   30  C11 UNL     1      11.822  10.224  12.299  1.00  0.00     0.029 A 
HETATM   31  C12 UNL     1      12.037   8.870  12.033  1.00  0.00     0.144 A 
HETATM   32  O5  UNL     1      12.898   8.444  12.905  1.00  0.00    -0.306 OA
ENDBRANCH  26  28
ENDBRANCH  23  26
ENDBRANCH   1  23
TORSDOF 8
ENDMDL
MODEL 4
REMARK VINA RESULT: -7.634417950      3.311      6.480
REMARK  8 active torsions:
REMARK  status: ('A' for Active; 'I' for Inactive)
REMARK    1  A    between atoms: C3_6  and  C4_7 
REMARK    2  A    between atoms: C4_7  and  C5_8 
REMARK    3  A    between atoms: C4_7  and  C8_21 
REMARK    4  A    between atoms: C5_8  and  C6_10 
REMARK       I    between atoms: C6_10  and  N2_12 
REMARK    5  A    between atoms: N2_12  and  N3_14 
REMARK       I    between atoms: N3_14  and  C7_16 
REMARK    6  A    between atoms: C8_21  and  O4_22 
REMARK    7  A    between atoms: C8_21  and  N6_24 
REMARK    8  A    between atoms: N6_24  and  C9_26 
ROOT
HETATM    1  C4  UNL     1      10.186   6.457  13.571  1.00  0.00     0.169 C 
ENDROOT
BRANCH   1   2
HETATM    2  C3  UNL     1      11.078   7.603  13.140  1.00  0.00     0.089 A 
HETATM    3  N1  UNL     1      11.309   8.066  11.914  1.00  0.00    -0.261 N 
HETATM    4  O1  UNL     1      12.143   9.073  11.976  1.00  0.00    -0.239 OA
ATOM      5  H1  UNL     1      10.899   7.694  11.058  1.00  0.00     0.194 HD
HETATM    6  C2  UNL     1      12.489   9.310  13.218  1.00  0.00     0.113 A 
HETATM    7  C1  UNL     1      13.417  10.372  13.678  1.00  0.00     0.082 C 
HETATM    8  C13 UNL     1      11.832   8.392  13.996  1.00  0.00     0.172 A 
HETATM    9  F1  UNL     1      11.905   8.282  15.329  1.00  0.00    -0.201 F 
ENDBRANCH   1   2
BRANCH   1  10
HETATM   10  C5  UNL     1      10.773   5.242  12.967  1.00  0.00     0.232 C 
HETATM   11  O2  UNL     1      11.545   4.559  13.730  1.00  0.00    -0.286 OA
BRANCH  10  12
HETATM   12  C6  UNL     1      10.563   4.756  11.628  1.00  0.00     0.306 C 
HETATM   13  O3  UNL     1       9.672   3.965  11.251  1.00  0.00    -0.263 OA
HETATM   14  N2  UNL     1      11.443   5.194  10.575  1.00  0.00    -0.261 N 
ATOM     15  H2  UNL     1      12.194   5.842  10.813  1.00  0.00     0.190 HD
BRANCH  14  16
HETATM   16  N3  UNL     1      11.327   4.784   9.262  1.00  0.00    -0.271 N 
HETATM   17  C7  UNL     1      12.097   5.238   8.181  1.00  0.00     0.200 C 
HETATM   18  N4  UNL     1      11.541   5.477   7.032  1.00  0.00    -0.372 N 
HETATM   19  N5  UNL     1      13.490   5.456   8.283  1.00  0.00    -0.062 NA
ATOM     20  H42 UNL     1      10.536   5.320   6.957  1.00  0.00     0.158 HD
ATOM     21  H41 UNL     1      12.100   5.807   6.246  1.00  0.00     0.158 HD
ATOM     22  H3  UNL     1      10.613   4.084   9.059  1.00  0.00     0.189 HD
ENDBRANCH  14  16
ENDBRANCH  10  12
ENDBRANCH   1  10
BRANCH   1  23
HETATM   23  C8  UNL     1       8.817   6.797  13.012  1.00  0.00     0.237 C 
BRANCH  23  24
HETATM   24  O4  UNL     1       9.027   7.943  12.185  1.00  0.00    -0.376 OA
ATOM     25  H4  UNL     1       9.587   7.641  11.480  1.00  0.00     0.212 HD
ENDBRANCH  23  24
BRANCH  23  26
HETATM   26  N6  UNL     1       7.876   7.264  14.003  1.00  0.00    -0.343 N 
ATOM     27  H6  UNL     1       6.942   6.864  14.088  1.00  0.00     0.164 HD
BRANCH  26  28
HETATM   28  C9  UNL     1       8.326   8.321  14.859  1.00  0.00     0.144 A 
HETATM   29  C10 UNL     1       8.579   8.275  16.203  1.00  0.00     0.058 A 
HETATM   30  C11 UNL     1       8.990   9.528  16.595  1.00  0.00     0.029 A 
HETATM   31  C12 UNL     1       8.969  10.304  15.433  1.00  0.00     0.144 A 
HETATM   32  O5  UNL     1       8.573   9.532  14.469  1.00  0.00    -0.306 OA
ENDBRANCH  26  28
ENDBRANCH  23  26
ENDBRANCH   1  23
TORSDOF 8
ENDMDL
MODEL 5
REMARK VINA RESULT: -7.513830737      3.005      6.324
REMARK  8 active torsions:
REMARK  status: ('A' for Active; 'I' for Inactive)
REMARK    1  A    between atoms: C3_6  and  C4_7 
REMARK    2  A    between atoms: C4_7  and  C5_8 
REMARK    3  A    between atoms: C4_7  and  C8_21 
REMARK    4  A    between atoms: C5_8  and  C6_10 
REMARK       I    between atoms: C6_10  and  N2_12 
REMARK    5  A    between atoms: N2_12  and  N3_14 
REMARK       I    between atoms: N3_14  and  C7_16 
REMARK    6  A    between atoms: C8_21  and  O4_22 
REMARK    7  A    between atoms: C8_21  and  N6_24 
REMARK    8  A    between atoms: N6_24  and  C9_26 
ROOT
HETATM    1  C4  UNL     1      11.537   5.084  10.363  1.00  0.00     0.169 C 
ENDROOT
BRANCH   1   2
HETATM    2  C3  UNL     1      11.243   4.807   8.903  1.00  0.00     0.089 A 
HETATM    3  N1  UNL     1      10.110   4.391   8.344  1.00  0.00    -0.261 N 
HETATM    4  O1  UNL     1      10.275   4.278   7.050  1.00  0.00    -0.239 OA
ATOM      5  H1  UNL     1       9.244   4.191   8.846  1.00  0.00     0.194 HD
HETATM    6  C2  UNL     1      11.498   4.608   6.712  1.00  0.00     0.113 A 
HETATM    7  C1  UNL     1      12.054   4.603   5.336  1.00  0.00     0.082 C 
HETATM    8  C13 UNL     1      12.152   4.951   7.866  1.00  0.00     0.172 A 
HETATM    9  F1  UNL     1      13.426   5.352   7.969  1.00  0.00    -0.201 F 
ENDBRANCH   1   2
BRANCH   1  10
HETATM   10  C5  UNL     1      10.949   3.953  11.113  1.00  0.00     0.232 C 
HETATM   11  O2  UNL     1       9.669   3.874  11.087  1.00  0.00    -0.286 OA
BRANCH  10  12
HETATM   12  C6  UNL     1      11.662   2.946  11.855  1.00  0.00     0.306 C 
HETATM   13  O3  UNL     1      11.392   1.728  11.912  1.00  0.00    -0.263 OA
HETATM   14  N2  UNL     1      12.814   3.329  12.631  1.00  0.00    -0.261 N 
ATOM     15  H2  UNL     1      13.092   4.311  12.628  1.00  0.00     0.190 HD
BRANCH  14  16
HETATM   16  N3  UNL     1      13.562   2.441  13.377  1.00  0.00    -0.271 N 
HETATM   17  C7  UNL     1      14.226   2.723  14.581  1.00  0.00     0.200 C 
HETATM   18  N4  UNL     1      15.415   2.250  14.803  1.00  0.00    -0.372 N 
HETATM   19  N5  UNL     1      13.647   3.522  15.594  1.00  0.00    -0.062 NA
ATOM     20  H42 UNL     1      15.832   1.674  14.072  1.00  0.00     0.158 HD
ATOM     21  H41 UNL     1      15.897   2.455  15.677  1.00  0.00     0.158 HD
ATOM     22  H3  UNL     1      13.639   1.489  13.020  1.00  0.00     0.189 HD
ENDBRANCH  14  16
ENDBRANCH  10  12
ENDBRANCH   1  10
BRANCH   1  23
HETATM   23  C8  UNL     1      10.854   6.408  10.654  1.00  0.00     0.237 C 
BRANCH  23  24
HETATM   24  O4  UNL     1      11.819   7.406  10.316  1.00  0.00    -0.376 OA
ATOM     25  H4  UNL     1      12.287   7.582  11.123  1.00  0.00     0.212 HD
ENDBRANCH  23  24
BRANCH  23  26
HETATM   26  N6  UNL     1      10.603   6.645  12.056  1.00  0.00    -0.343 N 
ATOM     27  H6  UNL     1      10.156   5.945  12.649  1.00  0.00     0.164 HD
BRANCH  26  28
HETATM   28  C9  UNL     1      11.014   7.918  12.570  1.00  0.00     0.144 A 
HETATM   29  C10 UNL     1      10.233   8.990  12.905  1.00  0.00     0.058 A 
HETATM   30  C11 UNL     1      11.065   9.990  13.353  1.00  0.00     0.029 A 
HETATM   31  C12 UNL     1      12.356   9.462  13.268  1.00  0.00     0.144 A 
HETATM   32  O5  UNL     1      12.243   8.256  12.804  1.00  0.00    -0.306 OA
ENDBRANCH  26  28
ENDBRANCH  23  26
ENDBRANCH   1  23
TORSDOF 8
ENDMDL
