MODEL 1
REMARK VINA RESULT: -8.947149617      0.000      0.000
REMARK  9 active torsions:
REMARK  status: ('A' for Active; 'I' for Inactive)
REMARK       I    between atoms: N2_3  and  C2_5 
REMARK    1  A    between atoms: C2_5  and  C3_7 
REMARK    2  A    between atoms: C3_7  and  N3_8 
REMARK    3  A    between atoms: C3_7  and  C10_17 
REMARK    4  A    between atoms: N3_8  and  C4_10 
REMARK    5  A    between atoms: C12_21  and  C13_22 
REMARK    6  A    between atoms: C13_22  and  N5_23 
REMARK    7  A    between atoms: C13_22  and  N6_27 
REMARK    8  A    between atoms: N6_27  and  O2_28 
REMARK    9  A    between atoms: O2_28  and  C14_29 
ROOT
HETATM    1  N1  UNL     1       9.651   1.485  12.045  1.00  0.00    -0.172 NA
HETATM    2  C1  UNL     1       9.731   2.640  11.808  1.00  0.00     0.184 C 
HETATM    3  N2  UNL     1       9.833   3.996  11.488  1.00  0.00    -0.258 N 
ATOM      4  H2  UNL     1       9.012   4.534  11.209  1.00  0.00     0.181 HD
HETATM    5  C2  UNL     1      11.153   4.620  11.566  1.00  0.00     0.284 C 
HETATM    6  O1  UNL     1      12.089   3.917  11.948  1.00  0.00    -0.265 OA
ENDROOT
BRANCH   5   7
HETATM    7  C3  UNL     1      11.250   6.034  11.175  1.00  0.00     0.146 C 
BRANCH   7   8
HETATM    8  N3  UNL     1      10.826   6.200   9.785  1.00  0.00    -0.349 N 
ATOM      9  H3  UNL     1      10.103   6.886   9.568  1.00  0.00     0.166 HD
BRANCH   8  10
HETATM   10  C4  UNL     1      11.384   5.443   8.734  1.00  0.00     0.032 A 
HETATM   11  C5  UNL     1      12.752   5.532   8.467  1.00  0.00     0.032 A 
HETATM   12  C6  UNL     1      13.339   4.749   7.512  1.00  0.00     0.044 A 
HETATM   13  C7  UNL     1      12.565   3.851   6.787  1.00  0.00     0.116 A 
HETATM   14  F1  UNL     1      13.126   3.053   5.856  1.00  0.00    -0.206 F 
HETATM   15  C8  UNL     1      11.223   3.749   7.016  1.00  0.00     0.044 A 
HETATM   16  C9  UNL     1      10.637   4.560   8.003  1.00  0.00     0.032 A 
ENDBRANCH   8  10
ENDBRANCH   7   8
BRANCH   7  17
HETATM   17  C10 UNL     1      10.926   7.121  12.077  1.00  0.00     0.138 A 
HETATM   18  N4  UNL     1      11.440   8.415  11.906  1.00  0.00    -0.348 N 
HETATM   19  C11 UNL     1      11.018   9.215  12.871  1.00  0.00     0.118 A 
ATOM     20  H4  UNL     1      12.054   8.699  11.144  1.00  0.00     0.167 HD
HETATM   21  C12 UNL     1      10.214   8.475  13.695  1.00  0.00     0.075 A 
HETATM   22  N8  UNL     1      10.194   7.231  13.175  1.00  0.00    -0.340 N 
ATOM     23  H8  UNL     1       9.670   6.457  13.584  1.00  0.00     0.167 HD
BRANCH  21  24
HETATM   24  C13 UNL     1       9.627   8.964  14.936  1.00  0.00     0.354 C 
BRANCH  24  25
HETATM   25  N5  UNL     1       8.605   9.947  14.800  1.00  0.00    -0.053 N 
ATOM     26  H53 UNL     1       8.819  10.562  14.015  1.00  0.00     0.276 HD
ATOM     27  H52 UNL     1       7.748   9.510  14.463  1.00  0.00     0.276 HD
ATOM     28  H51 UNL     1       8.406  10.503  15.631  1.00  0.00     0.276 HD
ENDBRANCH  24  25
BRANCH  24  29
HETATM   29  N6  UNL     1      10.703   9.500  15.733  1.00  0.00    -0.050 NA
BRANCH  29  30
HETATM   30  O2  UNL     1      11.437   8.533  16.351  1.00  0.00    -0.189 OA
BRANCH  30  31
HETATM   31  C14 UNL     1      12.824   8.597  16.066  1.00  0.00     0.391 C 
HETATM   32  N7  UNL     1      13.496   9.801  15.807  1.00  0.00    -0.031 NA
HETATM   33  O3  UNL     1      13.460   7.534  16.037  1.00  0.00    -0.241 OA
ENDBRANCH  30  31
ENDBRANCH  29  30
ENDBRANCH  24  29
ENDBRANCH  21  24
ENDBRANCH   7  17
ENDBRANCH   5   7
TORSDOF 9
ENDMDL
MODEL 2
REMARK VINA RESULT: -8.874270489      0.850      1.023
REMARK  9 active torsions:
REMARK  status: ('A' for Active; 'I' for Inactive)
REMARK       I    between atoms: N2_3  and  C2_5 
REMARK    1  A    between atoms: C2_5  and  C3_7 
REMARK    2  A    between atoms: C3_7  and  N3_8 
REMARK    3  A    between atoms: C3_7  and  C10_17 
REMARK    4  A    between atoms: N3_8  and  C4_10 
REMARK    5  A    between atoms: C12_21  and  C13_22 
REMARK    6  A    between atoms: C13_22  and  N5_23 
REMARK    7  A    between atoms: C13_22  and  N6_27 
REMARK    8  A    between atoms: N6_27  and  O2_28 
REMARK    9  A    between atoms: O2_28  and  C14_29 
ROOT
HETATM    1  N1  UNL     1       9.372   1.311  11.761  1.00  0.00    -0.172 NA
HETATM    2  C1  UNL     1       9.508   2.463  11.536  1.00  0.00     0.184 C 
HETATM    3  N2  UNL     1       9.681   3.815  11.230  1.00  0.00    -0.258 N 
ATOM      4  H2  UNL     1       8.909   4.376  10.869  1.00  0.00     0.181 HD
HETATM    5  C2  UNL     1      11.003   4.401  11.445  1.00  0.00     0.284 C 
HETATM    6  O1  UNL     1      11.874   3.674  11.920  1.00  0.00    -0.265 OA
ENDROOT
BRANCH   5   7
HETATM    7  C3  UNL     1      11.179   5.813  11.069  1.00  0.00     0.146 C 
BRANCH   7   8
HETATM    8  N3  UNL     1      10.772   6.015   9.679  1.00  0.00    -0.349 N 
ATOM      9  H3  UNL     1      10.035   6.690   9.474  1.00  0.00     0.166 HD
BRANCH   8  10
HETATM   10  C4  UNL     1      11.365   5.309   8.612  1.00  0.00     0.032 A 
HETATM   11  C5  UNL     1      12.750   5.350   8.438  1.00  0.00     0.032 A 
HETATM   12  C6  UNL     1      13.364   4.610   7.466  1.00  0.00     0.044 A 
HETATM   13  C7  UNL     1      12.601   3.804   6.630  1.00  0.00     0.116 A 
HETATM   14  F1  UNL     1      13.187   3.047   5.680  1.00  0.00    -0.206 F 
HETATM   15  C8  UNL     1      11.244   3.750   6.767  1.00  0.00     0.044 A 
HETATM   16  C9  UNL     1      10.631   4.516   7.773  1.00  0.00     0.032 A 
ENDBRANCH   8  10
ENDBRANCH   7   8
BRANCH   7  17
HETATM   17  C10 UNL     1      10.912   6.906  11.980  1.00  0.00     0.138 A 
HETATM   18  N4  UNL     1      11.458   8.185  11.798  1.00  0.00    -0.348 N 
HETATM   19  C11 UNL     1      11.085   8.995  12.775  1.00  0.00     0.118 A 
ATOM     20  H4  UNL     1      12.061   8.453  11.020  1.00  0.00     0.167 HD
HETATM   21  C12 UNL     1      10.281   8.277  13.618  1.00  0.00     0.075 A 
HETATM   22  N8  UNL     1      10.211   7.035  13.097  1.00  0.00    -0.340 N 
ATOM     23  H8  UNL     1       9.675   6.276  13.518  1.00  0.00     0.167 HD
BRANCH  21  24
HETATM   24  C13 UNL     1       9.741   8.781  14.874  1.00  0.00     0.354 C 
BRANCH  24  25
HETATM   25  N5  UNL     1       8.509   9.490  14.786  1.00  0.00    -0.053 N 
ATOM     26  H53 UNL     1       8.690  10.480  14.618  1.00  0.00     0.276 HD
ATOM     27  H52 UNL     1       8.028   9.241  13.922  1.00  0.00     0.276 HD
ATOM     28  H51 UNL     1       7.874   9.385  15.577  1.00  0.00     0.276 HD
ENDBRANCH  24  25
BRANCH  24  29
HETATM   29  N6  UNL     1      10.745   9.638  15.456  1.00  0.00    -0.050 NA
BRANCH  29  30
HETATM   30  O2  UNL     1      11.710   8.947  16.124  1.00  0.00    -0.189 OA
BRANCH  30  31
HETATM   31  C14 UNL     1      11.438   8.773  17.504  1.00  0.00     0.391 C 
HETATM   32  N7  UNL     1      10.486   9.536  18.197  1.00  0.00    -0.031 NA
HETATM   33  O3  UNL     1      12.082   7.911  18.118  1.00  0.00    -0.241 OA
ENDBRANCH  30  31
ENDBRANCH  29  30
ENDBRANCH  24  29
ENDBRANCH  21  24
ENDBRANCH   7  17
ENDBRANCH   5   7
TORSDOF 9
ENDMDL
MODEL 3
REMARK VINA RESULT: -8.836497249      1.425      2.010
REMARK  9 active torsions:
REMARK  status: ('A' for Active; 'I' for Inactive)
REMARK       I    between atoms: N2_3  and  C2_5 
REMARK    1  A    between atoms: C2_5  and  C3_7 
REMARK    2  A    between atoms: C3_7  and  N3_8 
REMARK    3  A    between atoms: C3_7  and  C10_17 
REMARK    4  A    between atoms: N3_8  and  C4_10 
REMARK    5  A    between atoms: C12_21  and  C13_22 
REMARK    6  A    between atoms: C13_22  and  N5_23 
REMARK    7  A    between atoms: C13_22  and  N6_27 
REMARK    8  A    between atoms: N6_27  and  O2_28 
REMARK    9  A    between atoms: O2_28  and  C14_29 
ROOT
HETATM    1  N1  UNL     1       9.504   1.635  12.206  1.00  0.00    -0.172 NA
HETATM    2  C1  UNL     1      10.025   2.566  11.696  1.00  0.00     0.184 C 
HETATM    3  N2  UNL     1      10.672   3.662  11.121  1.00  0.00    -0.258 N 
ATOM      4  H2  UNL     1      11.321   3.541  10.343  1.00  0.00     0.181 HD
HETATM    5  C2  UNL     1      10.390   4.987  11.670  1.00  0.00     0.284 C 
HETATM    6  O1  UNL     1       9.568   5.059  12.582  1.00  0.00    -0.265 OA
ENDROOT
BRANCH   5   7
HETATM    7  C3  UNL     1      11.121   6.123  11.086  1.00  0.00     0.146 C 
BRANCH   7   8
HETATM    8  N3  UNL     1      10.725   6.309   9.690  1.00  0.00    -0.349 N 
ATOM      9  H3  UNL     1      10.006   6.998   9.469  1.00  0.00     0.166 HD
BRANCH   8  10
HETATM   10  C4  UNL     1      11.306   5.568   8.640  1.00  0.00     0.032 A 
HETATM   11  C5  UNL     1      12.690   5.592   8.458  1.00  0.00     0.032 A 
HETATM   12  C6  UNL     1      13.291   4.819   7.504  1.00  0.00     0.044 A 
HETATM   13  C7  UNL     1      12.517   3.997   6.694  1.00  0.00     0.116 A 
HETATM   14  F1  UNL     1      13.090   3.209   5.763  1.00  0.00    -0.206 F 
HETATM   15  C8  UNL     1      11.160   3.960   6.840  1.00  0.00     0.044 A 
HETATM   16  C9  UNL     1      10.559   4.759   7.827  1.00  0.00     0.032 A 
ENDBRANCH   8  10
ENDBRANCH   7   8
BRANCH   7  17
HETATM   17  C10 UNL     1      11.422   7.328  11.832  1.00  0.00     0.138 A 
HETATM   18  N4  UNL     1      11.925   8.484  11.218  1.00  0.00    -0.348 N 
HETATM   19  C11 UNL     1      12.140   9.433  12.115  1.00  0.00     0.118 A 
ATOM     20  H4  UNL     1      12.101   8.580  10.218  1.00  0.00     0.167 HD
HETATM   21  C12 UNL     1      11.780   8.931  13.336  1.00  0.00     0.075 A 
HETATM   22  N8  UNL     1      11.358   7.670  13.111  1.00  0.00    -0.340 N 
ATOM     23  H8  UNL     1      11.025   7.047  13.846  1.00  0.00     0.167 HD
BRANCH  21  24
HETATM   24  C13 UNL     1      11.956   9.630  14.602  1.00  0.00     0.354 C 
BRANCH  24  25
HETATM   25  N5  UNL     1      13.287  10.030  14.917  1.00  0.00    -0.053 N 
ATOM     26  H53 UNL     1      13.927   9.703  14.193  1.00  0.00     0.276 HD
ATOM     27  H52 UNL     1      13.380  11.039  14.804  1.00  0.00     0.276 HD
ATOM     28  H51 UNL     1      13.632   9.751  15.834  1.00  0.00     0.276 HD
ENDBRANCH  24  25
BRANCH  24  29
HETATM   29  N6  UNL     1      11.459   8.761  15.640  1.00  0.00    -0.050 NA
BRANCH  29  30
HETATM   30  O2  UNL     1      10.120   8.895  15.847  1.00  0.00    -0.189 OA
BRANCH  30  31
HETATM   31  C14 UNL     1       9.790   9.567  17.051  1.00  0.00     0.391 C 
HETATM   32  N7  UNL     1      10.540   9.433  18.230  1.00  0.00    -0.031 NA
HETATM   33  O3  UNL     1       8.789  10.296  17.053  1.00  0.00    -0.241 OA
ENDBRANCH  30  31
ENDBRANCH  29  30
ENDBRANCH  24  29
ENDBRANCH  21  24
ENDBRANCH   7  17
ENDBRANCH   5   7
TORSDOF 9
ENDMDL
MODEL 4
REMARK VINA RESULT: -8.727619468      1.461      1.799
REMARK  9 active torsions:
REMARK  status: ('A' for Active; 'I' for Inactive)
REMARK       I    between atoms: N2_3  and  C2_5 
REMARK    1  A    between atoms: C2_5  and  C3_7 
REMARK    2  A    between atoms: C3_7  and  N3_8 
REMARK    3  A    between atoms: C3_7  and  C10_17 
REMARK    4  A    between atoms: N3_8  and  C4_10 
REMARK    5  A    between atoms: C12_21  and  C13_22 
REMARK    6  A    between atoms: C13_22  and  N5_23 
REMARK    7  A    between atoms: C13_22  and  N6_27 
REMARK    8  A    between atoms: N6_27  and  O2_28 
REMARK    9  A    between atoms: O2_28  and  C14_29 
ROOT
HETATM    1  N1  UNL     1       9.471   1.602  12.134  1.00  0.00    -0.172 NA
HETATM    2  C1  UNL     1      10.026   2.552  11.702  1.00  0.00     0.184 C 
HETATM    3  N2  UNL     1      10.710   3.672  11.224  1.00  0.00    -0.258 N 
ATOM      4  H2  UNL     1      11.453   3.578  10.531  1.00  0.00     0.181 HD
HETATM    5  C2  UNL     1      10.329   4.982  11.748  1.00  0.00     0.284 C 
HETATM    6  O1  UNL     1       9.399   5.021  12.553  1.00  0.00    -0.265 OA
ENDROOT
BRANCH   5   7
HETATM    7  C3  UNL     1      11.096   6.144  11.272  1.00  0.00     0.146 C 
BRANCH   7   8
HETATM    8  N3  UNL     1      10.769   6.421   9.874  1.00  0.00    -0.349 N 
ATOM      9  H3  UNL     1      10.122   7.181   9.660  1.00  0.00     0.166 HD
BRANCH   8  10
HETATM   10  C4  UNL     1      11.318   5.674   8.812  1.00  0.00     0.032 A 
HETATM   11  C5  UNL     1      12.694   5.712   8.576  1.00  0.00     0.032 A 
HETATM   12  C6  UNL     1      13.268   4.934   7.609  1.00  0.00     0.044 A 
HETATM   13  C7  UNL     1      12.474   4.093   6.840  1.00  0.00     0.116 A 
HETATM   14  F1  UNL     1      13.021   3.300   5.897  1.00  0.00    -0.206 F 
HETATM   15  C8  UNL     1      11.124   4.041   7.039  1.00  0.00     0.044 A 
HETATM   16  C9  UNL     1      10.551   4.845   8.039  1.00  0.00     0.032 A 
ENDBRANCH   8  10
ENDBRANCH   7   8
BRANCH   7  17
HETATM   17  C10 UNL     1      11.372   7.296  12.106  1.00  0.00     0.138 A 
HETATM   18  N4  UNL     1      11.729   8.542  11.569  1.00  0.00    -0.348 N 
HETATM   19  C11 UNL     1      11.952   9.419  12.534  1.00  0.00     0.118 A 
ATOM     20  H4  UNL     1      11.806   8.743  10.573  1.00  0.00     0.167 HD
HETATM   21  C12 UNL     1      11.743   8.779  13.726  1.00  0.00     0.075 A 
HETATM   22  N8  UNL     1      11.399   7.513  13.413  1.00  0.00    -0.340 N 
ATOM     23  H8  UNL     1      11.182   6.799  14.109  1.00  0.00     0.167 HD
BRANCH  21  24
HETATM   24  C13 UNL     1      11.980   9.371  15.035  1.00  0.00     0.354 C 
BRANCH  24  25
HETATM   25  N5  UNL     1      13.224  10.045  15.202  1.00  0.00    -0.053 N 
ATOM     26  H53 UNL     1      13.687  10.146  14.299  1.00  0.00     0.276 HD
ATOM     27  H52 UNL     1      13.058  11.023  15.435  1.00  0.00     0.276 HD
ATOM     28  H51 UNL     1      13.869   9.634  15.876  1.00  0.00     0.276 HD
ENDBRANCH  24  25
BRANCH  24  29
HETATM   29  N6  UNL     1      11.877   8.310  16.007  1.00  0.00    -0.050 NA
BRANCH  29  30
HETATM   30  O2  UNL     1      13.026   7.588  16.128  1.00  0.00    -0.189 OA
BRANCH  30  31
HETATM   31  C14 UNL     1      12.922   6.492  17.019  1.00  0.00     0.391 C 
HETATM   32  N7  UNL     1      13.068   5.157  16.609  1.00  0.00    -0.031 NA
HETATM   33  O3  UNL     1      12.685   6.733  18.211  1.00  0.00    -0.241 OA
ENDBRANCH  30  31
ENDBRANCH  29  30
ENDBRANCH  24  29
ENDBRANCH  21  24
ENDBRANCH   7  17
ENDBRANCH   5   7
TORSDOF 9
ENDMDL
MODEL 5
REMARK VINA RESULT: -8.639820837      1.195      1.656
REMARK  9 active torsions:
REMARK  status: ('A' for Active; 'I' for Inactive)
REMARK       I    between atoms: N2_3  and  C2_5 
REMARK    1  A    between atoms: C2_5  and  C3_7 
REMARK    2  A    between atoms: C3_7  and  N3_8 
REMARK    3  A    between atoms: C3_7  and  C10_17 
REMARK    4  A    between atoms: N3_8  and  C4_10 
REMARK    5  A    between atoms: C12_21  and  C13_22 
REMARK    6  A    between atoms: C13_22  and  N5_23 
REMARK    7  A    between atoms: C13_22  and  N6_27 
REMARK    8  A    between atoms: N6_27  and  O2_28 
REMARK    9  A    between atoms: O2_28  and  C14_29 
ROOT
HETATM    1  N1  UNL     1       9.327   1.265  11.585  1.00  0.00    -0.172 NA
HETATM    2  C1  UNL     1       9.440   2.441  11.563  1.00  0.00     0.184 C 
HETATM    3  N2  UNL     1       9.574   3.830  11.494  1.00  0.00    -0.258 N 
ATOM      4  H2  UNL     1       8.755   4.437  11.455  1.00  0.00     0.181 HD
HETATM    5  C2  UNL     1      10.926   4.386  11.481  1.00  0.00     0.284 C 
HETATM    6  O1  UNL     1      11.865   3.595  11.569  1.00  0.00    -0.265 OA
ENDROOT
BRANCH   5   7
HETATM    7  C3  UNL     1      11.048   5.847  11.355  1.00  0.00     0.146 C 
BRANCH   7   8
HETATM    8  N3  UNL     1      10.886   6.246   9.958  1.00  0.00    -0.349 N 
ATOM      9  H3  UNL     1      10.375   7.102   9.745  1.00  0.00     0.166 HD
BRANCH   8  10
HETATM   10  C4  UNL     1      11.413   5.485   8.894  1.00  0.00     0.032 A 
HETATM   11  C5  UNL     1      10.554   4.746   8.078  1.00  0.00     0.032 A 
HETATM   12  C6  UNL     1      11.023   4.066   6.988  1.00  0.00     0.044 A 
HETATM   13  C7  UNL     1      12.378   4.102   6.685  1.00  0.00     0.116 A 
HETATM   14  F1  UNL     1      12.859   3.458   5.603  1.00  0.00    -0.206 F 
HETATM   15  C8  UNL     1      13.246   4.805   7.470  1.00  0.00     0.044 A 
HETATM   16  C9  UNL     1      12.746   5.500   8.584  1.00  0.00     0.032 A 
ENDBRANCH   8  10
ENDBRANCH   7   8
BRANCH   7  17
HETATM   17  C10 UNL     1      10.527   6.765  12.348  1.00  0.00     0.138 A 
HETATM   18  N4  UNL     1       9.226   7.284  12.278  1.00  0.00    -0.348 N 
HETATM   19  C11 UNL     1       9.001   8.115  13.283  1.00  0.00     0.118 A 
ATOM     20  H4  UNL     1       8.547   7.054  11.553  1.00  0.00     0.167 HD
HETATM   21  C12 UNL     1      10.140   8.160  14.040  1.00  0.00     0.075 A 
HETATM   22  N8  UNL     1      11.021   7.335  13.437  1.00  0.00    -0.340 N 
ATOM     23  H8  UNL     1      11.966   7.168  13.783  1.00  0.00     0.167 HD
BRANCH  21  24
HETATM   24  C13 UNL     1      10.337   9.036  15.187  1.00  0.00     0.354 C 
BRANCH  24  25
HETATM   25  N5  UNL     1       9.216   9.826  15.571  1.00  0.00    -0.053 N 
ATOM     26  H53 UNL     1       8.909  10.397  14.783  1.00  0.00     0.276 HD
ATOM     27  H52 UNL     1       8.399   9.229  15.695  1.00  0.00     0.276 HD
ATOM     28  H51 UNL     1       9.343  10.414  16.394  1.00  0.00     0.276 HD
ENDBRANCH  24  25
BRANCH  24  29
HETATM   29  N6  UNL     1      11.447   9.902  14.876  1.00  0.00    -0.050 NA
BRANCH  29  30
HETATM   30  O2  UNL     1      12.656   9.305  15.073  1.00  0.00    -0.189 OA
BRANCH  30  31
HETATM   31  C14 UNL     1      13.634   9.661  14.110  1.00  0.00     0.391 C 
HETATM   32  N7  UNL     1      13.611   9.188  12.789  1.00  0.00    -0.031 NA
HETATM   33  O3  UNL     1      14.549  10.417  14.464  1.00  0.00    -0.241 OA
ENDBRANCH  30  31
ENDBRANCH  29  30
ENDBRANCH  24  29
ENDBRANCH  21  24
ENDBRANCH   7  17
ENDBRANCH   5   7
TORSDOF 9
ENDMDL
