MODEL 1
REMARK VINA RESULT: -7.313487959      0.000      0.000
REMARK  5 active torsions:
REMARK  status: ('A' for Active; 'I' for Inactive)
REMARK    1  A    between atoms: C2_2  and  C3_3 
REMARK    2  A    between atoms: C3_3  and  N1_4 
REMARK    3  A    between atoms: C4_5  and  C5_6 
REMARK    4  A    between atoms: C5_6  and  S1_7 
REMARK    5  A    between atoms: S1_7  and  C6_8 
ROOT
HETATM    1  C5  UNL     1      17.853  27.483  10.569  1.00  0.00     0.159 C 
ENDROOT
BRANCH   1   2
HETATM    2  C4  UNL     1      18.872  28.394  11.245  1.00  0.00     0.110 A 
HETATM    3  N1  UNL     1      18.879  28.805  12.528  1.00  0.00    -0.311 N 
HETATM    4  C12 UNL     1      19.952  29.650  12.695  1.00  0.00     0.194 A 
HETATM    5  N5  UNL     1      20.580  29.745  11.520  1.00  0.00    -0.275 N 
HETATM    6  S2  UNL     1      20.406  30.425  14.065  1.00  0.00    -0.039 SA
HETATM    7  N4  UNL     1      19.929  28.994  10.669  1.00  0.00    -0.286 N 
ATOM      8  H5  UNL     1      21.412  30.301  11.322  1.00  0.00     0.189 HD
ATOM      9  H4  UNL     1      20.190  28.878   9.690  1.00  0.00     0.188 HD
BRANCH   3  10
HETATM   10  C3  UNL     1      17.997  28.487  13.599  1.00  0.00     0.132 C 
BRANCH  10  11
HETATM   11  C2  UNL     1      16.742  29.244  13.749  1.00  0.00     0.016 C 
HETATM   12  C1  UNL     1      15.823  28.899  14.865  1.00  0.00     0.006 C 
ENDBRANCH  10  11
ENDBRANCH   3  10
ENDBRANCH   1   2
BRANCH   1  13
HETATM   13  S1  UNL     1      18.274  27.080   8.914  1.00  0.00    -0.103 SA
BRANCH  13  14
HETATM   14  C6  UNL     1      19.473  25.873   8.555  1.00  0.00     0.091 A 
HETATM   15  N2  UNL     1      20.396  25.637   9.551  1.00  0.00    -0.291 N 
HETATM   16  N3  UNL     1      21.399  24.826   9.454  1.00  0.00    -0.265 N 
ATOM     17  H2  UNL     1      20.280  26.140  10.431  1.00  0.00     0.187 HD
HETATM   18  C7  UNL     1      21.573  24.152   8.310  1.00  0.00     0.266 A 
ATOM     19  H3  UNL     1      22.044  24.701  10.234  1.00  0.00     0.190 HD
HETATM   20  O1  UNL     1      22.531  23.343   8.152  1.00  0.00    -0.266 OA
HETATM   21  C8  UNL     1      20.714  24.313   7.250  1.00  0.00     0.016 A 
HETATM   22  C9  UNL     1      20.926  23.566   5.973  1.00  0.00     0.055 C 
HETATM   23  C10 UNL     1      19.639  25.195   7.374  1.00  0.00    -0.016 A 
HETATM   24  C11 UNL     1      18.784  25.425   6.181  1.00  0.00     0.052 C 
ENDBRANCH  13  14
ENDBRANCH   1  13
TORSDOF 5
ENDMDL
MODEL 2
REMARK VINA RESULT: -7.233800430      1.710      2.181
REMARK  5 active torsions:
REMARK  status: ('A' for Active; 'I' for Inactive)
REMARK    1  A    between atoms: C2_2  and  C3_3 
REMARK    2  A    between atoms: C3_3  and  N1_4 
REMARK    3  A    between atoms: C4_5  and  C5_6 
REMARK    4  A    between atoms: C5_6  and  S1_7 
REMARK    5  A    between atoms: S1_7  and  C6_8 
ROOT
HETATM    1  C5  UNL     1      18.839  27.935  11.267  1.00  0.00     0.159 C 
ENDROOT
BRANCH   1   2
HETATM    2  C4  UNL     1      19.340  29.102  12.112  1.00  0.00     0.110 A 
HETATM    3  N1  UNL     1      18.961  29.430  13.362  1.00  0.00    -0.311 N 
HETATM    4  C12 UNL     1      19.631  30.576  13.720  1.00  0.00     0.194 A 
HETATM    5  N5  UNL     1      20.404  30.933  12.690  1.00  0.00    -0.275 N 
HETATM    6  S2  UNL     1      19.524  31.393  15.136  1.00  0.00    -0.039 SA
HETATM    7  N4  UNL     1      20.222  30.048  11.743  1.00  0.00    -0.286 N 
ATOM      8  H5  UNL     1      21.021  31.744  12.649  1.00  0.00     0.189 HD
ATOM      9  H4  UNL     1      20.691  30.073  10.838  1.00  0.00     0.188 HD
BRANCH   3  10
HETATM   10  C3  UNL     1      18.049  28.785  14.244  1.00  0.00     0.132 C 
BRANCH  10  11
HETATM   11  C2  UNL     1      16.607  29.055  14.115  1.00  0.00     0.016 C 
HETATM   12  C1  UNL     1      15.652  28.280  14.952  1.00  0.00     0.006 C 
ENDBRANCH  10  11
ENDBRANCH   3  10
ENDBRANCH   1   2
BRANCH   1  13
HETATM   13  S1  UNL     1      20.132  27.025  10.506  1.00  0.00    -0.103 SA
BRANCH  13  14
HETATM   14  C6  UNL     1      19.887  26.194   8.999  1.00  0.00     0.091 A 
HETATM   15  N2  UNL     1      18.679  26.432   8.379  1.00  0.00    -0.291 N 
HETATM   16  N3  UNL     1      18.284  25.864   7.286  1.00  0.00    -0.265 N 
ATOM     17  H2  UNL     1      18.050  27.107   8.814  1.00  0.00     0.187 HD
HETATM   18  C7  UNL     1      19.092  24.974   6.694  1.00  0.00     0.266 A 
ATOM     19  H3  UNL     1      17.374  26.088   6.882  1.00  0.00     0.190 HD
HETATM   20  O1  UNL     1      18.767  24.387   5.624  1.00  0.00    -0.266 OA
HETATM   21  C8  UNL     1      20.318  24.660   7.227  1.00  0.00     0.016 A 
HETATM   22  C9  UNL     1      21.206  23.656   6.566  1.00  0.00     0.055 C 
HETATM   23  C10 UNL     1      20.725  25.282   8.409  1.00  0.00    -0.016 A 
HETATM   24  C11 UNL     1      22.010  24.852   9.018  1.00  0.00     0.052 C 
ENDBRANCH  13  14
ENDBRANCH   1  13
TORSDOF 5
ENDMDL
MODEL 3
REMARK VINA RESULT: -7.223487255      1.806      2.183
REMARK  5 active torsions:
REMARK  status: ('A' for Active; 'I' for Inactive)
REMARK    1  A    between atoms: C2_2  and  C3_3 
REMARK    2  A    between atoms: C3_3  and  N1_4 
REMARK    3  A    between atoms: C4_5  and  C5_6 
REMARK    4  A    between atoms: C5_6  and  S1_7 
REMARK    5  A    between atoms: S1_7  and  C6_8 
ROOT
HETATM    1  C5  UNL     1      19.897  27.936  10.400  1.00  0.00     0.159 C 
ENDROOT
BRANCH   1   2
HETATM    2  C4  UNL     1      20.704  28.879  11.286  1.00  0.00     0.110 A 
HETATM    3  N1  UNL     1      20.383  29.323  12.517  1.00  0.00    -0.311 N 
HETATM    4  C12 UNL     1      21.371  30.188  12.926  1.00  0.00     0.194 A 
HETATM    5  N5  UNL     1      22.275  30.263  11.946  1.00  0.00    -0.275 N 
HETATM    6  S2  UNL     1      21.457  31.005  14.343  1.00  0.00    -0.039 SA
HETATM    7  N4  UNL     1      21.868  29.480  10.979  1.00  0.00    -0.286 N 
ATOM      8  H5  UNL     1      23.126  30.826  11.949  1.00  0.00     0.189 HD
ATOM      9  H4  UNL     1      22.370  29.343  10.102  1.00  0.00     0.188 HD
BRANCH   3  10
HETATM   10  C3  UNL     1      19.260  29.020  13.338  1.00  0.00     0.132 C 
BRANCH  10  11
HETATM   11  C2  UNL     1      19.157  27.686  13.954  1.00  0.00     0.016 C 
HETATM   12  C1  UNL     1      20.397  27.014  14.426  1.00  0.00     0.006 C 
ENDBRANCH  10  11
ENDBRANCH   3  10
ENDBRANCH   1   2
BRANCH   1  13
HETATM   13  S1  UNL     1      20.522  26.296  10.385  1.00  0.00    -0.103 SA
BRANCH  13  14
HETATM   14  C6  UNL     1      20.605  25.374   8.914  1.00  0.00     0.091 A 
HETATM   15  N2  UNL     1      21.812  24.758   8.666  1.00  0.00    -0.291 N 
HETATM   16  N3  UNL     1      22.093  24.080   7.600  1.00  0.00    -0.265 N 
ATOM     17  H2  UNL     1      22.540  24.841   9.377  1.00  0.00     0.187 HD
HETATM   18  C7  UNL     1      21.155  23.954   6.653  1.00  0.00     0.266 A 
ATOM     19  H3  UNL     1      23.010  23.650   7.483  1.00  0.00     0.190 HD
HETATM   20  O1  UNL     1      21.363  23.303   5.590  1.00  0.00    -0.266 OA
HETATM   21  C8  UNL     1      19.916  24.530   6.795  1.00  0.00     0.016 A 
HETATM   22  C9  UNL     1      18.880  24.394   5.725  1.00  0.00     0.055 C 
HETATM   23  C10 UNL     1      19.633  25.259   7.952  1.00  0.00    -0.016 A 
HETATM   24  C11 UNL     1      18.323  25.955   8.037  1.00  0.00     0.052 C 
ENDBRANCH  13  14
ENDBRANCH   1  13
TORSDOF 5
ENDMDL
MODEL 4
REMARK VINA RESULT: -7.212543744      2.443      3.071
REMARK  5 active torsions:
REMARK  status: ('A' for Active; 'I' for Inactive)
REMARK    1  A    between atoms: C2_2  and  C3_3 
REMARK    2  A    between atoms: C3_3  and  N1_4 
REMARK    3  A    between atoms: C4_5  and  C5_6 
REMARK    4  A    between atoms: C5_6  and  S1_7 
REMARK    5  A    between atoms: S1_7  and  C6_8 
ROOT
HETATM    1  C5  UNL     1      21.380  26.245  12.069  1.00  0.00     0.159 C 
ENDROOT
BRANCH   1   2
HETATM    2  C4  UNL     1      21.552  27.759  12.123  1.00  0.00     0.110 A 
HETATM    3  N1  UNL     1      20.989  28.616  12.996  1.00  0.00    -0.311 N 
HETATM    4  C12 UNL     1      21.381  29.889  12.651  1.00  0.00     0.194 A 
HETATM    5  N5  UNL     1      22.171  29.793  11.579  1.00  0.00    -0.275 N 
HETATM    6  S2  UNL     1      20.969  31.293  13.388  1.00  0.00    -0.039 SA
HETATM    7  N4  UNL     1      22.265  28.523  11.277  1.00  0.00    -0.286 N 
ATOM      8  H5  UNL     1      22.619  30.566  11.086  1.00  0.00     0.189 HD
ATOM      9  H4  UNL     1      22.812  28.158  10.497  1.00  0.00     0.188 HD
BRANCH   3  10
HETATM   10  C3  UNL     1      20.134  28.367  14.107  1.00  0.00     0.132 C 
BRANCH  10  11
HETATM   11  C2  UNL     1      18.731  27.988  13.867  1.00  0.00     0.016 C 
HETATM   12  C1  UNL     1      17.974  28.678  12.789  1.00  0.00     0.006 C 
ENDBRANCH  10  11
ENDBRANCH   3  10
ENDBRANCH   1   2
BRANCH   1  13
HETATM   13  S1  UNL     1      21.337  25.610  10.434  1.00  0.00    -0.103 SA
BRANCH  13  14
HETATM   14  C6  UNL     1      20.067  26.045   9.329  1.00  0.00     0.091 A 
HETATM   15  N2  UNL     1      19.139  26.942   9.813  1.00  0.00    -0.291 N 
HETATM   16  N3  UNL     1      18.090  27.342   9.169  1.00  0.00    -0.265 N 
ATOM     17  H2  UNL     1      19.291  27.320  10.749  1.00  0.00     0.187 HD
HETATM   18  C7  UNL     1      17.869  26.862   7.939  1.00  0.00     0.266 A 
ATOM     19  H3  UNL     1      17.444  28.009   9.591  1.00  0.00     0.190 HD
HETATM   20  O1  UNL     1      16.865  27.214   7.257  1.00  0.00    -0.266 OA
HETATM   21  C8  UNL     1      18.728  25.961   7.360  1.00  0.00     0.016 A 
HETATM   22  C9  UNL     1      18.464  25.422   5.991  1.00  0.00     0.055 C 
HETATM   23  C10 UNL     1      19.853  25.540   8.071  1.00  0.00    -0.016 A 
HETATM   24  C11 UNL     1      20.712  24.490   7.464  1.00  0.00     0.052 C 
ENDBRANCH  13  14
ENDBRANCH   1  13
TORSDOF 5
ENDMDL
MODEL 5
REMARK VINA RESULT: -7.186351075      1.700      2.000
REMARK  5 active torsions:
REMARK  status: ('A' for Active; 'I' for Inactive)
REMARK    1  A    between atoms: C2_2  and  C3_3 
REMARK    2  A    between atoms: C3_3  and  N1_4 
REMARK    3  A    between atoms: C4_5  and  C5_6 
REMARK    4  A    between atoms: C5_6  and  S1_7 
REMARK    5  A    between atoms: S1_7  and  C6_8 
ROOT
HETATM    1  C5  UNL     1      19.980  27.483  10.771  1.00  0.00     0.159 C 
ENDROOT
BRANCH   1   2
HETATM    2  C4  UNL     1      20.812  28.583  11.420  1.00  0.00     0.110 A 
HETATM    3  N1  UNL     1      20.677  29.087  12.663  1.00  0.00    -0.311 N 
HETATM    4  C12 UNL     1      21.603  30.092  12.815  1.00  0.00     0.194 A 
HETATM    5  N5  UNL     1      22.286  30.190  11.671  1.00  0.00    -0.275 N 
HETATM    6  S2  UNL     1      21.852  31.027  14.137  1.00  0.00    -0.039 SA
HETATM    7  N4  UNL     1      21.807  29.289  10.853  1.00  0.00    -0.286 N 
ATOM      8  H5  UNL     1      23.041  30.847  11.471  1.00  0.00     0.189 HD
ATOM      9  H4  UNL     1      22.145  29.139   9.902  1.00  0.00     0.188 HD
BRANCH   3  10
HETATM   10  C3  UNL     1      19.782  28.723  13.708  1.00  0.00     0.132 C 
BRANCH  10  11
HETATM   11  C2  UNL     1      18.454  29.357  13.774  1.00  0.00     0.016 C 
HETATM   12  C1  UNL     1      17.323  28.736  13.035  1.00  0.00     0.006 C 
ENDBRANCH  10  11
ENDBRANCH   3  10
ENDBRANCH   1   2
BRANCH   1  13
HETATM   13  S1  UNL     1      20.870  25.988  10.537  1.00  0.00    -0.103 SA
BRANCH  13  14
HETATM   14  C6  UNL     1      20.877  25.171   9.004  1.00  0.00     0.091 A 
HETATM   15  N2  UNL     1      22.054  24.531   8.676  1.00  0.00    -0.291 N 
HETATM   16  N3  UNL     1      22.278  23.921   7.557  1.00  0.00    -0.265 N 
ATOM     17  H2  UNL     1      22.804  24.539   9.367  1.00  0.00     0.187 HD
HETATM   18  C7  UNL     1      21.309  23.896   6.632  1.00  0.00     0.266 A 
ATOM     19  H3  UNL     1      23.175  23.469   7.382  1.00  0.00     0.190 HD
HETATM   20  O1  UNL     1      21.464  23.315   5.521  1.00  0.00    -0.266 OA
HETATM   21  C8  UNL     1      20.097  24.503   6.853  1.00  0.00     0.016 A 
HETATM   22  C9  UNL     1      19.028  24.479   5.809  1.00  0.00     0.055 C 
HETATM   23  C10 UNL     1      19.875  25.158   8.066  1.00  0.00    -0.016 A 
HETATM   24  C11 UNL     1      18.595  25.891   8.240  1.00  0.00     0.052 C 
ENDBRANCH  13  14
ENDBRANCH   1  13
TORSDOF 5
ENDMDL
