MODEL 1
REMARK VINA RESULT: -7.827543990      0.000      0.000
REMARK  6 active torsions:
REMARK  status: ('A' for Active; 'I' for Inactive)
REMARK    1  A    between atoms: C3_4  and  C4_5 
REMARK    2  A    between atoms: C9_12  and  S1_13 
REMARK    3  A    between atoms: S1_13  and  C10_14 
REMARK    4  A    between atoms: C10_14  and  C11_15 
REMARK    5  A    between atoms: C11_15  and  N3_16 
REMARK    6  A    between atoms: C15_24  and  N6_25 
ROOT
HETATM    1  N1  UNL     1      18.648  24.975   5.910  1.00  0.00    -0.191 NA
HETATM    2  C1  UNL     1      18.986  25.395   6.956  1.00  0.00     0.105 C 
HETATM    3  C2  UNL     1      19.386  25.939   8.240  1.00  0.00     0.111 A 
HETATM    4  C3  UNL     1      20.645  25.704   8.755  1.00  0.00     0.040 A 
HETATM    5  N2  UNL     1      20.927  26.266   9.948  1.00  0.00    -0.338 N 
ATOM      6  H2  UNL     1      21.851  26.109  10.350  1.00  0.00     0.168 HD
HETATM    7  C9  UNL     1      20.068  27.012  10.624  1.00  0.00     0.146 A 
HETATM    8  N5  UNL     1      18.841  27.229  10.104  1.00  0.00    -0.322 N 
ATOM      9  H5  UNL     1      18.174  27.803  10.620  1.00  0.00     0.169 HD
HETATM   10  C15 UNL     1      18.481  26.709   8.926  1.00  0.00     0.123 A 
ENDROOT
BRANCH   4  11
HETATM   11  C4  UNL     1      21.564  24.871   7.994  1.00  0.00     0.037 C 
HETATM   12  C5  UNL     1      23.001  24.898   8.440  1.00  0.00     0.011 C 
HETATM   13  C6  UNL     1      23.605  23.624   7.854  1.00  0.00     0.001 C 
HETATM   14  C7  UNL     1      22.449  22.851   7.272  1.00  0.00     0.001 C 
HETATM   15  C8  UNL     1      21.273  23.376   8.095  1.00  0.00     0.011 C 
ENDBRANCH   4  11
BRANCH  10  16
HETATM   16  N6  UNL     1      17.317  26.900   8.407  1.00  0.00    -0.384 N 
ATOM     17  H62 UNL     1      16.723  26.135   8.087  1.00  0.00     0.157 HD
ATOM     18  H61 UNL     1      16.977  27.857   8.311  1.00  0.00     0.157 HD
ENDBRANCH  10  16
BRANCH   7  19
HETATM   19  S1  UNL     1      20.439  27.756  12.230  1.00  0.00    -0.092 SA
BRANCH  19  20
HETATM   20  C10 UNL     1      19.278  29.104  12.510  1.00  0.00     0.102 C 
BRANCH  20  21
HETATM   21  C11 UNL     1      19.033  29.253  13.986  1.00  0.00     0.139 C 
BRANCH  21  22
HETATM   22  N3  UNL     1      17.749  28.692  14.310  1.00  0.00    -0.351 N 
HETATM   23  C12 UNL     1      16.711  29.441  14.781  1.00  0.00     0.108 A 
HETATM   24  C13 UNL     1      15.648  28.595  14.978  1.00  0.00     0.106 A 
HETATM   25  N4  UNL     1      16.023  27.350  14.638  1.00  0.00    -0.361 N 
HETATM   26  C14 UNL     1      17.326  27.439  14.228  1.00  0.00     0.182 A 
ATOM     27  H4  UNL     1      15.451  26.506  14.678  1.00  0.00     0.166 HD
ENDBRANCH  21  22
ENDBRANCH  20  21
ENDBRANCH  19  20
ENDBRANCH   7  19
TORSDOF 6
ENDMDL
MODEL 2
REMARK VINA RESULT: -7.818104040      1.003      1.425
REMARK  6 active torsions:
REMARK  status: ('A' for Active; 'I' for Inactive)
REMARK    1  A    between atoms: C3_4  and  C4_5 
REMARK    2  A    between atoms: C9_12  and  S1_13 
REMARK    3  A    between atoms: S1_13  and  C10_14 
REMARK    4  A    between atoms: C10_14  and  C11_15 
REMARK    5  A    between atoms: C11_15  and  N3_16 
REMARK    6  A    between atoms: C15_24  and  N6_25 
ROOT
HETATM    1  N1  UNL     1      18.659  25.065   5.843  1.00  0.00    -0.191 NA
HETATM    2  C1  UNL     1      18.939  25.462   6.915  1.00  0.00     0.105 C 
HETATM    3  C2  UNL     1      19.268  25.979   8.230  1.00  0.00     0.111 A 
HETATM    4  C3  UNL     1      20.498  25.734   8.807  1.00  0.00     0.040 A 
HETATM    5  N2  UNL     1      20.713  26.271  10.026  1.00  0.00    -0.338 N 
ATOM      6  H2  UNL     1      21.614  26.106  10.474  1.00  0.00     0.168 HD
HETATM    7  C9  UNL     1      19.817  27.001  10.670  1.00  0.00     0.146 A 
HETATM    8  N5  UNL     1      18.619  27.228  10.088  1.00  0.00    -0.322 N 
ATOM      9  H5  UNL     1      17.924  27.790  10.580  1.00  0.00     0.169 HD
HETATM   10  C15 UNL     1      18.325  26.734   8.882  1.00  0.00     0.123 A 
ENDROOT
BRANCH   4  11
HETATM   11  C4  UNL     1      21.458  24.919   8.079  1.00  0.00     0.037 C 
HETATM   12  C5  UNL     1      22.888  25.017   8.539  1.00  0.00     0.011 C 
HETATM   13  C6  UNL     1      23.550  23.753   7.996  1.00  0.00     0.001 C 
HETATM   14  C7  UNL     1      22.433  22.917   7.424  1.00  0.00     0.001 C 
HETATM   15  C8  UNL     1      21.227  23.416   8.220  1.00  0.00     0.011 C 
ENDBRANCH   4  11
BRANCH  10  16
HETATM   16  N6  UNL     1      17.190  26.935   8.304  1.00  0.00    -0.384 N 
ATOM     17  H62 UNL     1      16.813  26.305   7.597  1.00  0.00     0.157 HD
ATOM     18  H61 UNL     1      16.650  27.759   8.567  1.00  0.00     0.157 HD
ENDBRANCH  10  16
BRANCH   7  19
HETATM   19  S1  UNL     1      20.099  27.710  12.310  1.00  0.00    -0.092 SA
BRANCH  19  20
HETATM   20  C10 UNL     1      18.845  28.971  12.603  1.00  0.00     0.102 C 
BRANCH  20  21
HETATM   21  C11 UNL     1      17.900  28.494  13.671  1.00  0.00     0.139 C 
BRANCH  21  22
HETATM   22  N3  UNL     1      17.579  29.593  14.541  1.00  0.00    -0.351 N 
HETATM   23  C12 UNL     1      18.496  30.529  14.921  1.00  0.00     0.108 A 
HETATM   24  C13 UNL     1      17.855  31.424  15.742  1.00  0.00     0.106 A 
HETATM   25  N4  UNL     1      16.570  31.048  15.866  1.00  0.00    -0.361 N 
HETATM   26  C14 UNL     1      16.428  29.913  15.114  1.00  0.00     0.182 A 
ATOM     27  H4  UNL     1      15.846  31.514  16.412  1.00  0.00     0.166 HD
ENDBRANCH  21  22
ENDBRANCH  20  21
ENDBRANCH  19  20
ENDBRANCH   7  19
TORSDOF 6
ENDMDL
MODEL 3
REMARK VINA RESULT: -7.674588440      2.660      4.056
REMARK  6 active torsions:
REMARK  status: ('A' for Active; 'I' for Inactive)
REMARK    1  A    between atoms: C3_4  and  C4_5 
REMARK    2  A    between atoms: C9_12  and  S1_13 
REMARK    3  A    between atoms: S1_13  and  C10_14 
REMARK    4  A    between atoms: C10_14  and  C11_15 
REMARK    5  A    between atoms: C11_15  and  N3_16 
REMARK    6  A    between atoms: C15_24  and  N6_25 
ROOT
HETATM    1  N1  UNL     1      18.660  25.140   5.792  1.00  0.00    -0.191 NA
HETATM    2  C1  UNL     1      18.945  25.512   6.872  1.00  0.00     0.105 C 
HETATM    3  C2  UNL     1      19.279  25.999   8.197  1.00  0.00     0.111 A 
HETATM    4  C3  UNL     1      20.506  25.727   8.769  1.00  0.00     0.040 A 
HETATM    5  N2  UNL     1      20.727  26.237   9.998  1.00  0.00    -0.338 N 
ATOM      6  H2  UNL     1      21.626  26.051  10.443  1.00  0.00     0.168 HD
HETATM    7  C9  UNL     1      19.841  26.965  10.657  1.00  0.00     0.146 A 
HETATM    8  N5  UNL     1      18.646  27.220  10.079  1.00  0.00    -0.322 N 
ATOM      9  H5  UNL     1      17.958  27.781  10.582  1.00  0.00     0.169 HD
HETATM   10  C15 UNL     1      18.346  26.753   8.864  1.00  0.00     0.123 A 
ENDROOT
BRANCH   4  11
HETATM   11  C4  UNL     1      21.456  24.914   8.026  1.00  0.00     0.037 C 
HETATM   12  C5  UNL     1      22.879  24.951   8.514  1.00  0.00     0.011 C 
HETATM   13  C6  UNL     1      23.514  23.691   7.931  1.00  0.00     0.001 C 
HETATM   14  C7  UNL     1      22.385  22.912   7.306  1.00  0.00     0.001 C 
HETATM   15  C8  UNL     1      21.179  23.414   8.101  1.00  0.00     0.011 C 
ENDBRANCH   4  11
BRANCH  10  16
HETATM   16  N6  UNL     1      17.214  26.980   8.290  1.00  0.00    -0.384 N 
ATOM     17  H62 UNL     1      17.012  27.847   7.793  1.00  0.00     0.157 HD
ATOM     18  H61 UNL     1      16.492  26.260   8.336  1.00  0.00     0.157 HD
ENDBRANCH  10  16
BRANCH   7  19
HETATM   19  S1  UNL     1      20.131  27.639  12.310  1.00  0.00    -0.092 SA
BRANCH  19  20
HETATM   20  C10 UNL     1      21.151  26.469  13.225  1.00  0.00     0.102 C 
BRANCH  20  21
HETATM   21  C11 UNL     1      22.330  27.192  13.815  1.00  0.00     0.139 C 
BRANCH  21  22
HETATM   22  N3  UNL     1      23.295  27.446  12.778  1.00  0.00    -0.351 N 
HETATM   23  C12 UNL     1      23.798  26.463  11.977  1.00  0.00     0.108 A 
HETATM   24  C13 UNL     1      24.680  27.051  11.106  1.00  0.00     0.106 A 
HETATM   25  N4  UNL     1      24.723  28.370  11.365  1.00  0.00    -0.361 N 
HETATM   26  C14 UNL     1      23.856  28.586  12.402  1.00  0.00     0.182 A 
ATOM     27  H4  UNL     1      25.288  29.070  10.884  1.00  0.00     0.166 HD
ENDBRANCH  21  22
ENDBRANCH  20  21
ENDBRANCH  19  20
ENDBRANCH   7  19
TORSDOF 6
ENDMDL
MODEL 4
REMARK VINA RESULT: -7.436437456      2.480      4.295
REMARK  6 active torsions:
REMARK  status: ('A' for Active; 'I' for Inactive)
REMARK    1  A    between atoms: C3_4  and  C4_5 
REMARK    2  A    between atoms: C9_12  and  S1_13 
REMARK    3  A    between atoms: S1_13  and  C10_14 
REMARK    4  A    between atoms: C10_14  and  C11_15 
REMARK    5  A    between atoms: C11_15  and  N3_16 
REMARK    6  A    between atoms: C15_24  and  N6_25 
ROOT
HETATM    1  N1  UNL     1      21.681  22.575   5.997  1.00  0.00    -0.191 NA
HETATM    2  C1  UNL     1      22.016  23.327   6.837  1.00  0.00     0.105 C 
HETATM    3  C2  UNL     1      22.452  24.232   7.883  1.00  0.00     0.111 A 
HETATM    4  C3  UNL     1      21.553  25.047   8.542  1.00  0.00     0.040 A 
HETATM    5  N2  UNL     1      22.053  25.843   9.510  1.00  0.00    -0.338 N 
ATOM      6  H2  UNL     1      21.411  26.454  10.014  1.00  0.00     0.168 HD
HETATM    7  C9  UNL     1      23.334  25.872   9.842  1.00  0.00     0.146 A 
HETATM    8  N5  UNL     1      24.197  25.067   9.184  1.00  0.00    -0.322 N 
ATOM      9  H5  UNL     1      25.186  25.085   9.435  1.00  0.00     0.169 HD
HETATM   10  C15 UNL     1      23.784  24.248   8.212  1.00  0.00     0.123 A 
ENDROOT
BRANCH   4  11
HETATM   11  C4  UNL     1      20.153  25.002   8.149  1.00  0.00     0.037 C 
HETATM   12  C5  UNL     1      19.199  25.778   9.016  1.00  0.00     0.011 C 
HETATM   13  C6  UNL     1      17.967  25.982   8.138  1.00  0.00     0.001 C 
HETATM   14  C7  UNL     1      18.351  25.484   6.769  1.00  0.00     0.001 C 
HETATM   15  C8  UNL     1      19.871  25.641   6.791  1.00  0.00     0.011 C 
ENDBRANCH   4  11
BRANCH  10  16
HETATM   16  N6  UNL     1      24.586  23.471   7.568  1.00  0.00    -0.384 N 
ATOM     17  H62 UNL     1      24.541  23.348   6.557  1.00  0.00     0.157 HD
ATOM     18  H61 UNL     1      25.293  22.957   8.094  1.00  0.00     0.157 HD
ENDBRANCH  10  16
BRANCH   7  19
HETATM   19  S1  UNL     1      24.009  26.947  11.130  1.00  0.00    -0.092 SA
BRANCH  19  20
HETATM   20  C10 UNL     1      22.648  27.501  12.172  1.00  0.00     0.102 C 
BRANCH  20  21
HETATM   21  C11 UNL     1      22.151  28.831  11.677  1.00  0.00     0.139 C 
BRANCH  21  22
HETATM   22  N3  UNL     1      20.799  29.026  12.126  1.00  0.00    -0.351 N 
HETATM   23  C12 UNL     1      19.776  28.193  11.781  1.00  0.00     0.108 A 
HETATM   24  C13 UNL     1      18.636  28.669  12.381  1.00  0.00     0.106 A 
HETATM   25  N4  UNL     1      18.949  29.773  13.080  1.00  0.00    -0.361 N 
HETATM   26  C14 UNL     1      20.292  29.971  12.905  1.00  0.00     0.182 A 
ATOM     27  H4  UNL     1      18.313  30.349  13.631  1.00  0.00     0.166 HD
ENDBRANCH  21  22
ENDBRANCH  20  21
ENDBRANCH  19  20
ENDBRANCH   7  19
TORSDOF 6
ENDMDL
MODEL 5
REMARK VINA RESULT: -7.411140036      3.112      4.647
REMARK  6 active torsions:
REMARK  status: ('A' for Active; 'I' for Inactive)
REMARK    1  A    between atoms: C3_4  and  C4_5 
REMARK    2  A    between atoms: C9_12  and  S1_13 
REMARK    3  A    between atoms: S1_13  and  C10_14 
REMARK    4  A    between atoms: C10_14  and  C11_15 
REMARK    5  A    between atoms: C11_15  and  N3_16 
REMARK    6  A    between atoms: C15_24  and  N6_25 
ROOT
HETATM    1  N1  UNL     1      21.697  22.591   6.054  1.00  0.00    -0.191 NA
HETATM    2  C1  UNL     1      22.061  23.336   6.889  1.00  0.00     0.105 C 
HETATM    3  C2  UNL     1      22.532  24.233   7.927  1.00  0.00     0.111 A 
HETATM    4  C3  UNL     1      21.658  25.055   8.610  1.00  0.00     0.040 A 
HETATM    5  N2  UNL     1      22.191  25.842   9.569  1.00  0.00    -0.338 N 
ATOM      6  H2  UNL     1      21.568  26.458  10.089  1.00  0.00     0.168 HD
HETATM    7  C9  UNL     1      23.480  25.855   9.869  1.00  0.00     0.146 A 
HETATM    8  N5  UNL     1      24.317  25.043   9.188  1.00  0.00    -0.322 N 
ATOM      9  H5  UNL     1      25.312  25.049   9.414  1.00  0.00     0.169 HD
HETATM   10  C15 UNL     1      23.872  24.233   8.224  1.00  0.00     0.123 A 
ENDROOT
BRANCH   4  11
HETATM   11  C4  UNL     1      20.249  25.027   8.251  1.00  0.00     0.037 C 
HETATM   12  C5  UNL     1      19.318  25.764   9.175  1.00  0.00     0.011 C 
HETATM   13  C6  UNL     1      18.064  26.006   8.338  1.00  0.00     0.001 C 
HETATM   14  C7  UNL     1      18.413  25.568   6.939  1.00  0.00     0.001 C 
HETATM   15  C8  UNL     1      19.934  25.724   6.930  1.00  0.00     0.011 C 
ENDBRANCH   4  11
BRANCH  10  16
HETATM   16  N6  UNL     1      24.649  23.449   7.557  1.00  0.00    -0.384 N 
ATOM     17  H62 UNL     1      25.613  23.263   7.833  1.00  0.00     0.157 HD
ATOM     18  H61 UNL     1      24.282  22.997   6.720  1.00  0.00     0.157 HD
ENDBRANCH  10  16
BRANCH   7  19
HETATM   19  S1  UNL     1      24.197  26.918  11.144  1.00  0.00    -0.092 SA
BRANCH  19  20
HETATM   20  C10 UNL     1      22.854  27.599  12.133  1.00  0.00     0.102 C 
BRANCH  20  21
HETATM   21  C11 UNL     1      23.228  28.979  12.597  1.00  0.00     0.139 C 
BRANCH  21  22
HETATM   22  N3  UNL     1      22.037  29.777  12.712  1.00  0.00    -0.351 N 
HETATM   23  C12 UNL     1      22.008  30.978  13.357  1.00  0.00     0.108 A 
HETATM   24  C13 UNL     1      20.726  31.462  13.272  1.00  0.00     0.106 A 
HETATM   25  N4  UNL     1      19.979  30.577  12.590  1.00  0.00    -0.361 N 
HETATM   26  C14 UNL     1      20.814  29.546  12.256  1.00  0.00     0.182 A 
ATOM     27  H4  UNL     1      18.987  30.658  12.366  1.00  0.00     0.166 HD
ENDBRANCH  21  22
ENDBRANCH  20  21
ENDBRANCH  19  20
ENDBRANCH   7  19
TORSDOF 6
ENDMDL
