MODEL 1
REMARK VINA RESULT: -6.834616166      0.000      0.000
REMARK  5 active torsions:
REMARK  status: ('A' for Active; 'I' for Inactive)
REMARK    1  A    between atoms: C2_2  and  C3_3 
REMARK    2  A    between atoms: C8_8  and  C9_9 
REMARK    3  A    between atoms: C9_9  and  C10_11 
REMARK    4  A    between atoms: C10_11  and  N1_12 
REMARK    5  A    between atoms: C12_18  and  N4_19 
ROOT
HETATM    1  C3  UNL     1      20.994  25.933  10.653  1.00  0.00    -0.003 C 
HETATM    2  C4  UNL     1      22.462  26.103  10.811  1.00  0.00    -0.007 C 
HETATM    3  C5  UNL     1      22.800  27.381  10.069  1.00  0.00     0.005 C 
HETATM    4  C6  UNL     1      21.524  28.185  10.101  1.00  0.00     0.009 C 
HETATM    5  C7  UNL     1      20.497  27.373  10.838  1.00  0.00     0.036 C 
HETATM    6  C8  UNL     1      20.393  27.699  12.306  1.00  0.00     0.164 C 
HETATM    7  C13 UNL     1      21.715  28.078  12.923  1.00  0.00     0.085 C 
HETATM    8  C14 UNL     1      22.232  26.710  13.249  1.00  0.00     0.164 C 
HETATM    9  C15 UNL     1      22.983  26.037  12.187  1.00  0.00     0.040 C 
HETATM   10  O2  UNL     1      21.057  26.084  13.636  1.00  0.00    -0.234 OA
HETATM   11  O3  UNL     1      20.072  26.550  12.972  1.00  0.00    -0.221 OA
ENDROOT
BRANCH   6  12
HETATM   12  C9  UNL     1      19.400  28.756  12.584  1.00  0.00     0.183 C 
HETATM   13  O1  UNL     1      19.773  29.773  13.143  1.00  0.00    -0.293 OA
BRANCH  12  14
HETATM   14  C10 UNL     1      17.964  28.635  12.212  1.00  0.00     0.230 C 
BRANCH  14  15
HETATM   15  N1  UNL     1      17.152  28.578  13.409  1.00  0.00    -0.170 N 
HETATM   16  C11 UNL     1      16.801  27.438  14.031  1.00  0.00     0.218 A 
HETATM   17  N2  UNL     1      16.040  27.752  15.119  1.00  0.00    -0.281 N 
HETATM   18  N3  UNL     1      15.921  29.068  15.173  1.00  0.00    -0.131 N 
ATOM     19  H2  UNL     1      15.633  27.087  15.778  1.00  0.00     0.188 HD
HETATM   20  C12 UNL     1      16.604  29.575  14.122  1.00  0.00     0.694 A 
ATOM     21  H3  UNL     1      15.409  29.601  15.876  1.00  0.00     0.205 HD
BRANCH  20  22
HETATM   22  N4  UNL     1      16.723  30.817  13.833  1.00  0.00    -0.233 N 
ATOM     23  H42 UNL     1      16.849  31.203  12.898  1.00  0.00     0.174 HD
ATOM     24  H41 UNL     1      16.703  31.570  14.520  1.00  0.00     0.174 HD
ENDBRANCH  20  22
ENDBRANCH  14  15
ENDBRANCH  12  14
ENDBRANCH   6  12
BRANCH   1  25
HETATM   25  C2  UNL     1      20.562  25.505   9.282  1.00  0.00     0.001 C 
HETATM   26  C1  UNL     1      21.279  24.318   8.750  1.00  0.00     0.005 C 
ENDBRANCH   1  25
TORSDOF 5
ENDMDL
MODEL 2
REMARK VINA RESULT: -6.740038771      2.354      3.787
REMARK  5 active torsions:
REMARK  status: ('A' for Active; 'I' for Inactive)
REMARK    1  A    between atoms: C2_2  and  C3_3 
REMARK    2  A    between atoms: C8_8  and  C9_9 
REMARK    3  A    between atoms: C9_9  and  C10_11 
REMARK    4  A    between atoms: C10_11  and  N1_12 
REMARK    5  A    between atoms: C12_18  and  N4_19 
ROOT
HETATM    1  C3  UNL     1      24.201  27.579  11.394  1.00  0.00    -0.003 C 
HETATM    2  C4  UNL     1      24.674  26.250  10.924  1.00  0.00    -0.007 C 
HETATM    3  C5  UNL     1      24.695  25.372  12.160  1.00  0.00     0.005 C 
HETATM    4  C6  UNL     1      23.666  25.985  13.076  1.00  0.00     0.009 C 
HETATM    5  C7  UNL     1      23.088  27.179  12.373  1.00  0.00     0.036 C 
HETATM    6  C8  UNL     1      21.816  26.892  11.618  1.00  0.00     0.164 C 
HETATM    7  C13 UNL     1      21.783  25.509  11.018  1.00  0.00     0.085 C 
HETATM    8  C14 UNL     1      22.500  25.785   9.732  1.00  0.00     0.164 C 
HETATM    9  C15 UNL     1      23.960  25.672   9.773  1.00  0.00     0.040 C 
HETATM   10  O2  UNL     1      22.008  27.047   9.436  1.00  0.00    -0.234 OA
HETATM   11  O3  UNL     1      21.790  27.696  10.513  1.00  0.00    -0.221 OA
ENDROOT
BRANCH   6  12
HETATM   12  C9  UNL     1      20.607  27.100  12.441  1.00  0.00     0.183 C 
HETATM   13  O1  UNL     1      20.565  26.599  13.551  1.00  0.00    -0.293 OA
BRANCH  12  14
HETATM   14  C10 UNL     1      19.438  27.895  11.975  1.00  0.00     0.230 C 
BRANCH  14  15
HETATM   15  N1  UNL     1      19.330  29.109  12.756  1.00  0.00    -0.170 N 
HETATM   16  C11 UNL     1      18.330  29.366  13.618  1.00  0.00     0.218 A 
HETATM   17  N2  UNL     1      18.543  30.592  14.179  1.00  0.00    -0.281 N 
HETATM   18  N3  UNL     1      19.659  31.088  13.673  1.00  0.00    -0.131 N 
ATOM     19  H2  UNL     1      17.944  31.047  14.868  1.00  0.00     0.188 HD
HETATM   20  C12 UNL     1      20.142  30.176  12.799  1.00  0.00     0.694 A 
ATOM     21  H3  UNL     1      20.078  31.990  13.900  1.00  0.00     0.205 HD
BRANCH  20  22
HETATM   22  N4  UNL     1      21.213  30.294  12.107  1.00  0.00    -0.233 N 
ATOM     23  H42 UNL     1      22.166  30.217  12.462  1.00  0.00     0.174 HD
ATOM     24  H41 UNL     1      21.231  30.482  11.105  1.00  0.00     0.174 HD
ENDBRANCH  20  22
ENDBRANCH  14  15
ENDBRANCH  12  14
ENDBRANCH   6  12
BRANCH   1  25
HETATM   25  C2  UNL     1      25.211  28.352  12.190  1.00  0.00     0.001 C 
HETATM   26  C1  UNL     1      26.513  28.556  11.504  1.00  0.00     0.005 C 
ENDBRANCH   1  25
TORSDOF 5
ENDMDL
MODEL 3
REMARK VINA RESULT: -6.729020521      1.728      2.441
REMARK  5 active torsions:
REMARK  status: ('A' for Active; 'I' for Inactive)
REMARK    1  A    between atoms: C2_2  and  C3_3 
REMARK    2  A    between atoms: C8_8  and  C9_9 
REMARK    3  A    between atoms: C9_9  and  C10_11 
REMARK    4  A    between atoms: C10_11  and  N1_12 
REMARK    5  A    between atoms: C12_18  and  N4_19 
ROOT
HETATM    1  C3  UNL     1      19.781  27.407  11.380  1.00  0.00    -0.003 C 
HETATM    2  C4  UNL     1      21.002  26.593  11.139  1.00  0.00    -0.007 C 
HETATM    3  C5  UNL     1      22.047  27.575  10.648  1.00  0.00     0.005 C 
HETATM    4  C6  UNL     1      21.628  28.899  11.234  1.00  0.00     0.009 C 
HETATM    5  C7  UNL     1      20.375  28.665  12.028  1.00  0.00     0.036 C 
HETATM    6  C8  UNL     1      20.613  28.425  13.497  1.00  0.00     0.164 C 
HETATM    7  C13 UNL     1      21.894  27.680  13.774  1.00  0.00     0.085 C 
HETATM    8  C14 UNL     1      21.399  26.276  13.611  1.00  0.00     0.164 C 
HETATM    9  C15 UNL     1      21.442  25.733  12.251  1.00  0.00     0.040 C 
HETATM   10  O2  UNL     1      20.134  26.390  14.166  1.00  0.00    -0.234 OA
HETATM   11  O3  UNL     1      19.660  27.554  13.943  1.00  0.00    -0.221 OA
ENDROOT
BRANCH   6  12
HETATM   12  C9  UNL     1      20.589  29.672  14.288  1.00  0.00     0.183 C 
HETATM   13  O1  UNL     1      21.263  29.732  15.302  1.00  0.00    -0.293 OA
BRANCH  12  14
HETATM   14  C10 UNL     1      19.779  30.859  13.903  1.00  0.00     0.230 C 
BRANCH  14  15
HETATM   15  N1  UNL     1      18.536  30.865  14.645  1.00  0.00    -0.170 N 
HETATM   16  C11 UNL     1      18.336  31.564  15.777  1.00  0.00     0.218 A 
HETATM   17  N2  UNL     1      17.060  31.341  16.206  1.00  0.00    -0.281 N 
HETATM   18  N3  UNL     1      16.476  30.517  15.353  1.00  0.00    -0.131 N 
ATOM     19  H2  UNL     1      16.630  31.741  17.041  1.00  0.00     0.188 HD
HETATM   20  C12 UNL     1      17.384  30.225  14.394  1.00  0.00     0.694 A 
ATOM     21  H3  UNL     1      15.519  30.168  15.407  1.00  0.00     0.205 HD
BRANCH  20  22
HETATM   22  N4  UNL     1      17.192  29.456  13.389  1.00  0.00    -0.233 N 
ATOM     23  H42 UNL     1      17.453  29.657  12.424  1.00  0.00     0.174 HD
ATOM     24  H41 UNL     1      16.749  28.539  13.444  1.00  0.00     0.174 HD
ENDBRANCH  20  22
ENDBRANCH  14  15
ENDBRANCH  12  14
ENDBRANCH   6  12
BRANCH   1  25
HETATM   25  C2  UNL     1      19.081  27.860  10.133  1.00  0.00     0.001 C 
HETATM   26  C1  UNL     1      17.639  27.510  10.072  1.00  0.00     0.005 C 
ENDBRANCH   1  25
TORSDOF 5
ENDMDL
MODEL 4
REMARK VINA RESULT: -6.694153822      5.901      7.960
REMARK  5 active torsions:
REMARK  status: ('A' for Active; 'I' for Inactive)
REMARK    1  A    between atoms: C2_2  and  C3_3 
REMARK    2  A    between atoms: C8_8  and  C9_9 
REMARK    3  A    between atoms: C9_9  and  C10_11 
REMARK    4  A    between atoms: C10_11  and  N1_12 
REMARK    5  A    between atoms: C12_18  and  N4_19 
ROOT
HETATM    1  C3  UNL     1      21.292  25.375  10.825  1.00  0.00    -0.003 C 
HETATM    2  C4  UNL     1      20.604  26.560  10.249  1.00  0.00    -0.007 C 
HETATM    3  C5  UNL     1      21.706  27.555   9.945  1.00  0.00     0.005 C 
HETATM    4  C6  UNL     1      22.935  26.706   9.736  1.00  0.00     0.009 C 
HETATM    5  C7  UNL     1      22.530  25.272   9.924  1.00  0.00     0.036 C 
HETATM    6  C8  UNL     1      22.179  24.558   8.644  1.00  0.00     0.164 C 
HETATM    7  C13 UNL     1      21.517  25.456   7.629  1.00  0.00     0.085 C 
HETATM    8  C14 UNL     1      20.098  25.346   8.096  1.00  0.00     0.164 C 
HETATM    9  C15 UNL     1      19.685  26.300   9.127  1.00  0.00     0.040 C 
HETATM   10  O2  UNL     1      20.059  24.011   8.470  1.00  0.00    -0.234 OA
HETATM   11  O3  UNL     1      21.197  23.650   8.923  1.00  0.00    -0.221 OA
ENDROOT
BRANCH   6  12
HETATM   12  C9  UNL     1      23.343  23.892   8.026  1.00  0.00     0.183 C 
HETATM   13  O1  UNL     1      23.193  22.782   7.548  1.00  0.00    -0.293 OA
BRANCH  12  14
HETATM   14  C10 UNL     1      24.692  24.518   7.961  1.00  0.00     0.230 C 
BRANCH  14  15
HETATM   15  N1  UNL     1      25.576  23.875   8.910  1.00  0.00    -0.170 N 
HETATM   16  C11 UNL     1      25.925  24.405  10.096  1.00  0.00     0.218 A 
HETATM   17  N2  UNL     1      26.764  23.535  10.732  1.00  0.00    -0.281 N 
HETATM   18  N3  UNL     1      26.932  22.482   9.951  1.00  0.00    -0.131 N 
ATOM     19  H2  UNL     1      27.188  23.675  11.649  1.00  0.00     0.188 HD
HETATM   20  C12 UNL     1      26.202  22.691   8.833  1.00  0.00     0.694 A 
ATOM     21  H3  UNL     1      27.505  21.663  10.156  1.00  0.00     0.205 HD
BRANCH  20  22
HETATM   22  N4  UNL     1      26.109  21.891   7.837  1.00  0.00    -0.233 N 
ATOM     23  H42 UNL     1      26.683  21.916   6.995  1.00  0.00     0.174 HD
ATOM     24  H41 UNL     1      25.437  21.126   7.777  1.00  0.00     0.174 HD
ENDBRANCH  20  22
ENDBRANCH  14  15
ENDBRANCH  12  14
ENDBRANCH   6  12
BRANCH   1  25
HETATM   25  C2  UNL     1      21.797  25.570  12.224  1.00  0.00     0.001 C 
HETATM   26  C1  UNL     1      20.855  26.277  13.129  1.00  0.00     0.005 C 
ENDBRANCH   1  25
TORSDOF 5
ENDMDL
MODEL 5
REMARK VINA RESULT: -6.601129722      1.197      1.759
REMARK  5 active torsions:
REMARK  status: ('A' for Active; 'I' for Inactive)
REMARK    1  A    between atoms: C2_2  and  C3_3 
REMARK    2  A    between atoms: C8_8  and  C9_9 
REMARK    3  A    between atoms: C9_9  and  C10_11 
REMARK    4  A    between atoms: C10_11  and  N1_12 
REMARK    5  A    between atoms: C12_18  and  N4_19 
ROOT
HETATM    1  C3  UNL     1      22.028  26.506  12.604  1.00  0.00    -0.003 C 
HETATM    2  C4  UNL     1      23.293  26.901  13.278  1.00  0.00    -0.007 C 
HETATM    3  C5  UNL     1      23.753  28.155  12.562  1.00  0.00     0.005 C 
HETATM    4  C6  UNL     1      22.488  28.763  12.013  1.00  0.00     0.009 C 
HETATM    5  C7  UNL     1      21.348  27.868  12.406  1.00  0.00     0.036 C 
HETATM    6  C8  UNL     1      20.648  28.284  13.674  1.00  0.00     0.164 C 
HETATM    7  C13 UNL     1      21.579  28.898  14.689  1.00  0.00     0.085 C 
HETATM    8  C14 UNL     1      22.070  27.649  15.355  1.00  0.00     0.164 C 
HETATM    9  C15 UNL     1      23.242  27.015  14.745  1.00  0.00     0.040 C 
HETATM   10  O2  UNL     1      20.911  26.888  15.348  1.00  0.00    -0.234 OA
HETATM   11  O3  UNL     1      20.218  27.153  14.310  1.00  0.00    -0.221 OA
ENDROOT
BRANCH   6  12
HETATM   12  C9  UNL     1      19.518  29.202  13.425  1.00  0.00     0.183 C 
HETATM   13  O1  UNL     1      19.588  30.341  13.853  1.00  0.00    -0.293 OA
BRANCH  12  14
HETATM   14  C10 UNL     1      18.299  28.798  12.674  1.00  0.00     0.230 C 
BRANCH  14  15
HETATM   15  N1  UNL     1      17.194  28.621  13.592  1.00  0.00    -0.170 N 
HETATM   16  C11 UNL     1      16.845  27.442  14.137  1.00  0.00     0.218 A 
HETATM   17  N2  UNL     1      15.768  27.639  14.951  1.00  0.00    -0.281 N 
HETATM   18  N3  UNL     1      15.453  28.922  14.913  1.00  0.00    -0.131 N 
ATOM     19  H2  UNL     1      15.288  26.921  15.494  1.00  0.00     0.188 HD
HETATM   20  C12 UNL     1      16.330  29.526  14.078  1.00  0.00     0.694 A 
ATOM     21  H3  UNL     1      14.691  29.374  15.419  1.00  0.00     0.205 HD
BRANCH  20  22
HETATM   22  N4  UNL     1      16.349  30.771  13.783  1.00  0.00    -0.233 N 
ATOM     23  H42 UNL     1      15.816  31.216  13.036  1.00  0.00     0.174 HD
ATOM     24  H41 UNL     1      16.909  31.469  14.272  1.00  0.00     0.174 HD
ENDBRANCH  20  22
ENDBRANCH  14  15
ENDBRANCH  12  14
ENDBRANCH   6  12
BRANCH   1  25
HETATM   25  C2  UNL     1      22.211  25.918  11.236  1.00  0.00     0.001 C 
HETATM   26  C1  UNL     1      20.952  25.736  10.468  1.00  0.00     0.005 C 
ENDBRANCH   1  25
TORSDOF 5
ENDMDL
