MODEL 1
REMARK VINA RESULT: -5.522657111      0.000      0.000
REMARK  5 active torsions:
REMARK  status: ('A' for Active; 'I' for Inactive)
REMARK    1  A    between atoms: C2_2  and  C3_3 
REMARK    2  A    between atoms: N1_4  and  C5_6 
REMARK    3  A    between atoms: C5_6  and  C6_7 
REMARK    4  A    between atoms: C7_8  and  C8_9 
REMARK    5  A    between atoms: C8_9  and  O1_10 
ROOT
HETATM    1  C5  UNL     1      22.960  27.915  14.006  1.00  0.00     0.143 C 
HETATM    2  C11 UNL     1      23.686  27.812  15.291  1.00  0.00     0.133 C 
HETATM    3  S1  UNL     1      24.990  26.532  15.388  1.00  0.00    -0.161 SA
HETATM    4  C12 UNL     1      25.956  26.809  13.874  1.00  0.00     0.114 C 
HETATM    5  C13 UNL     1      25.032  27.128  12.735  1.00  0.00     0.196 C 
HETATM    6  C14 UNL     1      25.856  28.002  11.838  1.00  0.00     0.085 C 
HETATM    7  N3  UNL     1      26.498  28.676  11.115  1.00  0.00    -0.195 NA
HETATM    8  N4  UNL     1      23.790  27.579  12.855  1.00  0.00    -0.375 N 
ATOM      9  H4  UNL     1      23.320  27.718  11.960  1.00  0.00     0.157 HD
ENDROOT
BRANCH   1  10
HETATM   10  N1  UNL     1      21.694  27.302  13.882  1.00  0.00    -0.367 N 
HETATM   11  C3  UNL     1      21.286  26.206  13.194  1.00  0.00     0.060 C 
HETATM   12  C4  UNL     1      20.684  27.602  14.871  1.00  0.00     0.151 C 
BRANCH  11  13
HETATM   13  C2  UNL     1      22.102  25.395  12.262  1.00  0.00     0.040 C 
HETATM   14  C1  UNL     1      21.451  25.411  10.841  1.00  0.00     0.010 C 
ENDBRANCH  11  13
ENDBRANCH   1  10
BRANCH   1  15
HETATM   15  C6  UNL     1      22.660  29.388  13.764  1.00  0.00     0.049 A 
HETATM   16  C7  UNL     1      22.092  29.863  12.582  1.00  0.00     0.069 A 
HETATM   17  N2  UNL     1      21.904  31.190  12.774  1.00  0.00    -0.262 N 
HETATM   18  O2  UNL     1      22.287  31.563  13.913  1.00  0.00    -0.242 OA
ATOM     19  H2  UNL     1      21.500  31.814  12.076  1.00  0.00     0.194 HD
HETATM   20  C9  UNL     1      22.765  30.481  14.570  1.00  0.00     0.085 A 
HETATM   21  C10 UNL     1      23.260  30.682  15.928  1.00  0.00     0.079 C 
BRANCH  16  22
HETATM   22  C8  UNL     1      21.818  29.116  11.377  1.00  0.00     0.224 C 
BRANCH  22  23
HETATM   23  O1  UNL     1      20.439  29.322  11.057  1.00  0.00    -0.395 OA
ATOM     24  H1  UNL     1      20.358  29.258  10.113  1.00  0.00     0.209 HD
ENDBRANCH  22  23
ENDBRANCH  16  22
ENDBRANCH   1  15
TORSDOF 5
ENDMDL
MODEL 2
REMARK VINA RESULT: -5.440373319      3.090      4.986
REMARK  5 active torsions:
REMARK  status: ('A' for Active; 'I' for Inactive)
REMARK    1  A    between atoms: C2_2  and  C3_3 
REMARK    2  A    between atoms: N1_4  and  C5_6 
REMARK    3  A    between atoms: C5_6  and  C6_7 
REMARK    4  A    between atoms: C7_8  and  C8_9 
REMARK    5  A    between atoms: C8_9  and  O1_10 
ROOT
HETATM    1  C5  UNL     1      20.058  28.648  13.750  1.00  0.00     0.143 C 
HETATM    2  C11 UNL     1      19.577  28.796  12.359  1.00  0.00     0.133 C 
HETATM    3  S1  UNL     1      17.840  28.313  12.042  1.00  0.00    -0.161 SA
HETATM    4  C12 UNL     1      16.927  29.164  13.364  1.00  0.00     0.114 C 
HETATM    5  C13 UNL     1      17.707  29.093  14.644  1.00  0.00     0.196 C 
HETATM    6  C14 UNL     1      17.303  30.336  15.379  1.00  0.00     0.085 C 
HETATM    7  N3  UNL     1      16.981  31.300  15.975  1.00  0.00    -0.195 NA
HETATM    8  N4  UNL     1      19.010  28.867  14.741  1.00  0.00    -0.375 N 
ATOM      9  H4  UNL     1      19.348  28.839  15.703  1.00  0.00     0.157 HD
ENDROOT
BRANCH   1  10
HETATM   10  N1  UNL     1      20.817  27.508  14.097  1.00  0.00    -0.367 N 
HETATM   11  C3  UNL     1      21.305  26.488  13.349  1.00  0.00     0.060 C 
HETATM   12  C4  UNL     1      21.529  27.513  15.354  1.00  0.00     0.151 C 
BRANCH  11  13
HETATM   13  C2  UNL     1      21.057  26.252  11.908  1.00  0.00     0.040 C 
HETATM   14  C1  UNL     1      22.375  25.775  11.218  1.00  0.00     0.010 C 
ENDBRANCH  11  13
ENDBRANCH   1  10
BRANCH   1  15
HETATM   15  C6  UNL     1      21.010  29.802  14.033  1.00  0.00     0.049 A 
HETATM   16  C7  UNL     1      21.933  30.272  13.097  1.00  0.00     0.069 A 
HETATM   17  N2  UNL     1      22.528  31.340  13.676  1.00  0.00    -0.262 N 
HETATM   18  O2  UNL     1      22.081  31.564  14.831  1.00  0.00    -0.242 OA
ATOM     19  H2  UNL     1      23.255  31.898  13.229  1.00  0.00     0.194 HD
HETATM   20  C9  UNL     1      21.134  30.637  15.101  1.00  0.00     0.085 A 
HETATM   21  C10 UNL     1      20.469  30.712  16.398  1.00  0.00     0.079 C 
BRANCH  16  22
HETATM   22  C8  UNL     1      22.240  29.704  11.805  1.00  0.00     0.224 C 
BRANCH  22  23
HETATM   23  O1  UNL     1      23.495  29.028  11.929  1.00  0.00    -0.395 OA
ATOM     24  H1  UNL     1      23.307  28.136  12.195  1.00  0.00     0.209 HD
ENDBRANCH  22  23
ENDBRANCH  16  22
ENDBRANCH   1  15
TORSDOF 5
ENDMDL
MODEL 3
REMARK VINA RESULT: -5.413009058      2.541      3.477
REMARK  5 active torsions:
REMARK  status: ('A' for Active; 'I' for Inactive)
REMARK    1  A    between atoms: C2_2  and  C3_3 
REMARK    2  A    between atoms: N1_4  and  C5_6 
REMARK    3  A    between atoms: C5_6  and  C6_7 
REMARK    4  A    between atoms: C7_8  and  C8_9 
REMARK    5  A    between atoms: C8_9  and  O1_10 
ROOT
HETATM    1  C5  UNL     1      22.161  27.887  12.203  1.00  0.00     0.143 C 
HETATM    2  C11 UNL     1      21.668  26.542  11.835  1.00  0.00     0.133 C 
HETATM    3  S1  UNL     1      22.236  25.878  10.227  1.00  0.00    -0.161 SA
HETATM    4  C12 UNL     1      24.032  26.151  10.278  1.00  0.00     0.114 C 
HETATM    5  C13 UNL     1      24.323  27.485  10.904  1.00  0.00     0.196 C 
HETATM    6  C14 UNL     1      25.668  27.297  11.539  1.00  0.00     0.085 C 
HETATM    7  N3  UNL     1      26.733  27.168  12.027  1.00  0.00    -0.195 NA
HETATM    8  N4  UNL     1      23.498  28.162  11.691  1.00  0.00    -0.375 N 
ATOM      9  H4  UNL     1      23.876  29.057  12.001  1.00  0.00     0.157 HD
ENDROOT
BRANCH   1  10
HETATM   10  N1  UNL     1      21.325  29.006  11.991  1.00  0.00    -0.367 N 
HETATM   11  C3  UNL     1      20.050  29.108  11.541  1.00  0.00     0.060 C 
HETATM   12  C4  UNL     1      21.660  30.248  12.649  1.00  0.00     0.151 C 
BRANCH  11  13
HETATM   13  C2  UNL     1      19.204  28.005  11.029  1.00  0.00     0.040 C 
HETATM   14  C1  UNL     1      17.763  28.130  11.621  1.00  0.00     0.010 C 
ENDBRANCH  11  13
ENDBRANCH   1  10
BRANCH   1  15
HETATM   15  C6  UNL     1      22.386  27.898  13.708  1.00  0.00     0.049 A 
HETATM   16  C7  UNL     1      21.538  27.251  14.608  1.00  0.00     0.069 A 
HETATM   17  N2  UNL     1      22.105  27.414  15.826  1.00  0.00    -0.262 N 
HETATM   18  O2  UNL     1      23.175  28.073  15.766  1.00  0.00    -0.242 OA
ATOM     19  H2  UNL     1      21.711  27.046  16.692  1.00  0.00     0.194 HD
HETATM   20  C9  UNL     1      23.397  28.398  14.472  1.00  0.00     0.085 A 
HETATM   21  C10 UNL     1      24.600  29.165  14.166  1.00  0.00     0.079 C 
BRANCH  16  22
HETATM   22  C8  UNL     1      20.284  26.597  14.318  1.00  0.00     0.224 C 
BRANCH  22  23
HETATM   23  O1  UNL     1      19.241  27.513  14.663  1.00  0.00    -0.395 OA
ATOM     24  H1  UNL     1      18.638  27.050  15.231  1.00  0.00     0.209 HD
ENDBRANCH  22  23
ENDBRANCH  16  22
ENDBRANCH   1  15
TORSDOF 5
ENDMDL
MODEL 4
REMARK VINA RESULT: -5.365970056      2.910      4.773
REMARK  5 active torsions:
REMARK  status: ('A' for Active; 'I' for Inactive)
REMARK    1  A    between atoms: C2_2  and  C3_3 
REMARK    2  A    between atoms: N1_4  and  C5_6 
REMARK    3  A    between atoms: C5_6  and  C6_7 
REMARK    4  A    between atoms: C7_8  and  C8_9 
REMARK    5  A    between atoms: C8_9  and  O1_10 
ROOT
HETATM    1  C5  UNL     1      21.420  26.867  11.383  1.00  0.00     0.143 C 
HETATM    2  C11 UNL     1      22.515  26.973  10.394  1.00  0.00     0.133 C 
HETATM    3  S1  UNL     1      22.469  25.791   8.997  1.00  0.00    -0.161 SA
HETATM    4  C12 UNL     1      20.756  25.922   8.402  1.00  0.00     0.114 C 
HETATM    5  C13 UNL     1      19.822  26.038   9.571  1.00  0.00     0.196 C 
HETATM    6  C14 UNL     1      18.670  26.832   9.032  1.00  0.00     0.085 C 
HETATM    7  N3  UNL     1      17.750  27.441   8.616  1.00  0.00    -0.195 NA
HETATM    8  N4  UNL     1      20.160  26.430  10.792  1.00  0.00    -0.375 N 
ATOM      9  H4  UNL     1      19.382  26.424  11.451  1.00  0.00     0.157 HD
ENDROOT
BRANCH   1  10
HETATM   10  N1  UNL     1      21.650  26.172  12.591  1.00  0.00    -0.367 N 
HETATM   11  C3  UNL     1      22.777  25.635  13.122  1.00  0.00     0.060 C 
HETATM   12  C4  UNL     1      20.681  26.302  13.654  1.00  0.00     0.151 C 
BRANCH  11  13
HETATM   13  C2  UNL     1      24.105  25.549  12.473  1.00  0.00     0.040 C 
HETATM   14  C1  UNL     1      25.227  25.770  13.539  1.00  0.00     0.010 C 
ENDBRANCH  11  13
ENDBRANCH   1  10
BRANCH   1  15
HETATM   15  C6  UNL     1      21.083  28.276  11.848  1.00  0.00     0.049 A 
HETATM   16  C7  UNL     1      22.054  29.247  12.097  1.00  0.00     0.069 A 
HETATM   17  N2  UNL     1      21.373  30.375  12.405  1.00  0.00    -0.262 N 
HETATM   18  O2  UNL     1      20.127  30.200  12.373  1.00  0.00    -0.242 OA
ATOM     19  H2  UNL     1      21.818  31.263  12.637  1.00  0.00     0.194 HD
HETATM   20  C9  UNL     1      19.892  28.913  12.031  1.00  0.00     0.085 A 
HETATM   21  C10 UNL     1      18.501  28.487  11.925  1.00  0.00     0.079 C 
BRANCH  16  22
HETATM   22  C8  UNL     1      23.488  29.076  12.092  1.00  0.00     0.224 C 
BRANCH  22  23
HETATM   23  O1  UNL     1      23.912  29.031  13.458  1.00  0.00    -0.395 OA
ATOM     24  H1  UNL     1      23.580  29.815  13.879  1.00  0.00     0.209 HD
ENDBRANCH  22  23
ENDBRANCH  16  22
ENDBRANCH   1  15
TORSDOF 5
ENDMDL
MODEL 5
REMARK VINA RESULT: -5.298204794      2.035      3.531
REMARK  5 active torsions:
REMARK  status: ('A' for Active; 'I' for Inactive)
REMARK    1  A    between atoms: C2_2  and  C3_3 
REMARK    2  A    between atoms: N1_4  and  C5_6 
REMARK    3  A    between atoms: C5_6  and  C6_7 
REMARK    4  A    between atoms: C7_8  and  C8_9 
REMARK    5  A    between atoms: C8_9  and  O1_10 
ROOT
HETATM    1  C5  UNL     1      23.146  28.218  13.370  1.00  0.00     0.143 C 
HETATM    2  C11 UNL     1      23.233  27.034  14.252  1.00  0.00     0.133 C 
HETATM    3  S1  UNL     1      24.840  26.753  15.082  1.00  0.00    -0.161 SA
HETATM    4  C12 UNL     1      25.231  28.381  15.789  1.00  0.00     0.114 C 
HETATM    5  C13 UNL     1      24.847  29.459  14.817  1.00  0.00     0.196 C 
HETATM    6  C14 UNL     1      24.517  30.630  15.693  1.00  0.00     0.085 C 
HETATM    7  N3  UNL     1      24.271  31.564  16.370  1.00  0.00    -0.195 NA
HETATM    8  N4  UNL     1      23.977  29.328  13.824  1.00  0.00    -0.375 N 
ATOM      9  H4  UNL     1      23.868  30.173  13.265  1.00  0.00     0.157 HD
ENDROOT
BRANCH   1  10
HETATM   10  N1  UNL     1      23.291  28.049  11.975  1.00  0.00    -0.367 N 
HETATM   11  C3  UNL     1      24.343  27.645  11.220  1.00  0.00     0.060 C 
HETATM   12  C4  UNL     1      22.098  27.927  11.170  1.00  0.00     0.151 C 
BRANCH  11  13
HETATM   13  C2  UNL     1      25.716  27.365  11.697  1.00  0.00     0.040 C 
HETATM   14  C1  UNL     1      26.612  28.630  11.498  1.00  0.00     0.010 C 
ENDBRANCH  11  13
ENDBRANCH   1  10
BRANCH   1  15
HETATM   15  C6  UNL     1      21.743  28.793  13.509  1.00  0.00     0.049 A 
HETATM   16  C7  UNL     1      20.640  28.022  13.878  1.00  0.00     0.069 A 
HETATM   17  N2  UNL     1      19.605  28.888  13.974  1.00  0.00    -0.262 N 
HETATM   18  O2  UNL     1      19.949  30.069  13.710  1.00  0.00    -0.242 OA
ATOM     19  H2  UNL     1      18.656  28.615  14.230  1.00  0.00     0.194 HD
HETATM   20  C9  UNL     1      21.269  30.066  13.415  1.00  0.00     0.085 A 
HETATM   21  C10 UNL     1      21.888  31.345  13.083  1.00  0.00     0.079 C 
BRANCH  16  22
HETATM   22  C8  UNL     1      20.590  26.590  14.058  1.00  0.00     0.224 C 
BRANCH  22  23
HETATM   23  O1  UNL     1      19.415  26.302  14.822  1.00  0.00    -0.395 OA
ATOM     24  H1  UNL     1      19.240  25.373  14.727  1.00  0.00     0.209 HD
ENDBRANCH  22  23
ENDBRANCH  16  22
ENDBRANCH   1  15
TORSDOF 5
ENDMDL
