MODEL 1
REMARK VINA RESULT: -6.694125828      0.000      0.000
REMARK  6 active torsions:
REMARK  status: ('A' for Active; 'I' for Inactive)
REMARK    1  A    between atoms: C1_2  and  C2_4 
REMARK    2  A    between atoms: C2_4  and  O3_5 
REMARK    3  A    between atoms: O3_5  and  C3_6 
REMARK    4  A    between atoms: C5_8  and  C6_9 
REMARK    5  A    between atoms: C7_12  and  C8_13 
REMARK    6  A    between atoms: C9_16  and  C10_17 
ROOT
HETATM    1  C3  UNL     1      16.467  16.931  19.005  1.00  0.00     0.067 A 
HETATM    2  C4  UNL     1      16.041  17.847  17.890  1.00  0.00     0.054 C 
HETATM    3  C5  UNL     1      14.581  17.959  17.689  1.00  0.00     0.105 C 
HETATM    4  C7  UNL     1      13.797  16.703  17.918  1.00  0.00     0.116 C 
HETATM    5  C9  UNL     1      14.613  15.476  18.099  1.00  0.00     0.109 C 
HETATM    6  C11 UNL     1      15.797  15.621  18.995  1.00  0.00     0.038 A 
HETATM    7  C12 UNL     1      15.590  16.604  20.127  1.00  0.00     0.047 A 
ENDROOT
BRANCH   1   8
HETATM    8  O3  UNL     1      17.822  17.014  19.259  1.00  0.00    -0.369 OA
BRANCH   8   9
HETATM    9  C2  UNL     1      18.179  17.329  20.540  1.00  0.00     0.281 C 
BRANCH   9  10
HETATM   10  C1  UNL     1      19.662  17.592  20.534  1.00  0.00     0.197 C 
HETATM   11  O1  UNL     1      20.013  18.803  20.623  1.00  0.00    -0.646 OA
HETATM   12  O2  UNL     1      20.592  16.588  20.437  1.00  0.00    -0.646 OA
ENDBRANCH   9  10
ENDBRANCH   8   9
ENDBRANCH   1   8
BRANCH   3  13
HETATM   13  C6  UNL     1      14.013  19.108  18.439  1.00  0.00     0.178 C 
HETATM   14  O4  UNL     1      13.443  18.950  19.545  1.00  0.00    -0.648 OA
HETATM   15  O5  UNL     1      14.086  20.402  17.950  1.00  0.00    -0.648 OA
ENDBRANCH   3  13
BRANCH   5  16
HETATM   16  C10 UNL     1      13.742  14.429  18.709  1.00  0.00     0.178 C 
HETATM   17  O8  UNL     1      14.229  13.399  19.242  1.00  0.00    -0.648 OA
HETATM   18  O9  UNL     1      12.357  14.526  18.730  1.00  0.00    -0.648 OA
ENDBRANCH   5  16
BRANCH   4  19
HETATM   19  C8  UNL     1      12.816  16.459  16.823  1.00  0.00     0.178 C 
HETATM   20  O6  UNL     1      11.646  16.914  16.890  1.00  0.00    -0.648 OA
HETATM   21  O7  UNL     1      13.140  15.727  15.690  1.00  0.00    -0.648 OA
ENDBRANCH   4  19
TORSDOF 6
ENDMDL
MODEL 2
REMARK VINA RESULT: -6.621894825      1.653      2.105
REMARK  6 active torsions:
REMARK  status: ('A' for Active; 'I' for Inactive)
REMARK    1  A    between atoms: C1_2  and  C2_4 
REMARK    2  A    between atoms: C2_4  and  O3_5 
REMARK    3  A    between atoms: O3_5  and  C3_6 
REMARK    4  A    between atoms: C5_8  and  C6_9 
REMARK    5  A    between atoms: C7_12  and  C8_13 
REMARK    6  A    between atoms: C9_16  and  C10_17 
ROOT
HETATM    1  C3  UNL     1      16.433  17.033  19.555  1.00  0.00     0.067 A 
HETATM    2  C4  UNL     1      17.049  17.668  18.338  1.00  0.00     0.054 C 
HETATM    3  C5  UNL     1      16.089  18.210  17.354  1.00  0.00     0.105 C 
HETATM    4  C7  UNL     1      14.824  17.424  17.184  1.00  0.00     0.116 C 
HETATM    5  C9  UNL     1      14.808  16.103  17.861  1.00  0.00     0.109 C 
HETATM    6  C11 UNL     1      15.344  16.090  19.252  1.00  0.00     0.038 A 
HETATM    7  C12 UNL     1      15.089  17.370  20.018  1.00  0.00     0.047 A 
ENDROOT
BRANCH   1   8
HETATM    8  O3  UNL     1      17.376  16.717  20.513  1.00  0.00    -0.369 OA
BRANCH   8   9
HETATM    9  C2  UNL     1      17.127  17.169  21.778  1.00  0.00     0.281 C 
BRANCH   9  10
HETATM   10  C1  UNL     1      18.447  17.599  22.362  1.00  0.00     0.197 C 
HETATM   11  O1  UNL     1      19.347  17.913  21.532  1.00  0.00    -0.646 OA
HETATM   12  O2  UNL     1      18.678  17.652  23.713  1.00  0.00    -0.646 OA
ENDBRANCH   9  10
ENDBRANCH   8   9
ENDBRANCH   1   8
BRANCH   3  13
HETATM   13  C6  UNL     1      15.815  19.649  17.592  1.00  0.00     0.178 C 
HETATM   14  O4  UNL     1      16.736  20.500  17.594  1.00  0.00    -0.648 OA
HETATM   15  O5  UNL     1      14.531  20.115  17.823  1.00  0.00    -0.648 OA
ENDBRANCH   3  13
BRANCH   5  16
HETATM   16  C10 UNL     1      13.389  15.646  17.946  1.00  0.00     0.178 C 
HETATM   17  O8  UNL     1      13.080  14.436  17.801  1.00  0.00    -0.648 OA
HETATM   18  O9  UNL     1      12.335  16.517  18.190  1.00  0.00    -0.648 OA
ENDBRANCH   5  16
BRANCH   4  19
HETATM   19  C8  UNL     1      14.492  17.221  15.745  1.00  0.00     0.178 C 
HETATM   20  O6  UNL     1      15.158  16.427  15.035  1.00  0.00    -0.648 OA
HETATM   21  O7  UNL     1      13.446  17.889  15.126  1.00  0.00    -0.648 OA
ENDBRANCH   4  19
TORSDOF 6
ENDMDL
MODEL 3
REMARK VINA RESULT: -6.543984536      0.945      1.218
REMARK  6 active torsions:
REMARK  status: ('A' for Active; 'I' for Inactive)
REMARK    1  A    between atoms: C1_2  and  C2_4 
REMARK    2  A    between atoms: C2_4  and  O3_5 
REMARK    3  A    between atoms: O3_5  and  C3_6 
REMARK    4  A    between atoms: C5_8  and  C6_9 
REMARK    5  A    between atoms: C7_12  and  C8_13 
REMARK    6  A    between atoms: C9_16  and  C10_17 
ROOT
HETATM    1  C3  UNL     1      16.563  17.209  18.799  1.00  0.00     0.067 A 
HETATM    2  C4  UNL     1      16.484  18.165  17.640  1.00  0.00     0.054 C 
HETATM    3  C5  UNL     1      15.123  18.619  17.288  1.00  0.00     0.105 C 
HETATM    4  C7  UNL     1      14.039  17.596  17.442  1.00  0.00     0.116 C 
HETATM    5  C9  UNL     1      14.511  16.215  17.714  1.00  0.00     0.109 C 
HETATM    6  C11 UNL     1      15.599  16.099  18.727  1.00  0.00     0.038 A 
HETATM    7  C12 UNL     1      15.526  17.136  19.826  1.00  0.00     0.047 A 
ENDROOT
BRANCH   1   8
HETATM    8  O3  UNL     1      17.865  16.971  19.192  1.00  0.00    -0.369 OA
BRANCH   8   9
HETATM    9  C2  UNL     1      18.185  17.325  20.473  1.00  0.00     0.281 C 
BRANCH   9  10
HETATM   10  C1  UNL     1      19.665  17.601  20.499  1.00  0.00     0.197 C 
HETATM   11  O1  UNL     1      20.003  18.816  20.589  1.00  0.00    -0.646 OA
HETATM   12  O2  UNL     1      20.606  16.605  20.429  1.00  0.00    -0.646 OA
ENDBRANCH   9  10
ENDBRANCH   8   9
ENDBRANCH   1   8
BRANCH   3  13
HETATM   13  C6  UNL     1      14.778  19.893  17.968  1.00  0.00     0.178 C 
HETATM   14  O4  UNL     1      13.797  19.976  18.745  1.00  0.00    -0.648 OA
HETATM   15  O5  UNL     1      15.524  21.044  17.775  1.00  0.00    -0.648 OA
ENDBRANCH   3  13
BRANCH   5  16
HETATM   16  C10 UNL     1      13.356  15.427  18.237  1.00  0.00     0.178 C 
HETATM   17  O8  UNL     1      13.397  14.173  18.311  1.00  0.00    -0.648 OA
HETATM   18  O9  UNL     1      12.179  16.023  18.670  1.00  0.00    -0.648 OA
ENDBRANCH   5  16
BRANCH   4  19
HETATM   19  C8  UNL     1      13.142  17.561  16.252  1.00  0.00     0.178 C 
HETATM   20  O6  UNL     1      13.510  17.016  15.181  1.00  0.00    -0.648 OA
HETATM   21  O7  UNL     1      11.874  18.122  16.266  1.00  0.00    -0.648 OA
ENDBRANCH   4  19
TORSDOF 6
ENDMDL
MODEL 4
REMARK VINA RESULT: -6.488976507      1.901      6.081
REMARK  6 active torsions:
REMARK  status: ('A' for Active; 'I' for Inactive)
REMARK    1  A    between atoms: C1_2  and  C2_4 
REMARK    2  A    between atoms: C2_4  and  O3_5 
REMARK    3  A    between atoms: O3_5  and  C3_6 
REMARK    4  A    between atoms: C5_8  and  C6_9 
REMARK    5  A    between atoms: C7_12  and  C8_13 
REMARK    6  A    between atoms: C9_16  and  C10_17 
ROOT
HETATM    1  C3  UNL     1      14.513  16.598  18.347  1.00  0.00     0.067 A 
HETATM    2  C4  UNL     1      15.807  15.950  18.758  1.00  0.00     0.054 C 
HETATM    3  C5  UNL     1      16.866  16.880  19.200  1.00  0.00     0.105 C 
HETATM    4  C7  UNL     1      16.925  18.189  18.472  1.00  0.00     0.116 C 
HETATM    5  C9  UNL     1      16.058  18.279  17.269  1.00  0.00     0.109 C 
HETATM    6  C11 UNL     1      14.677  17.741  17.434  1.00  0.00     0.038 A 
HETATM    7  C12 UNL     1      14.113  17.920  18.826  1.00  0.00     0.047 A 
ENDROOT
BRANCH   1   8
HETATM    8  O3  UNL     1      13.512  15.673  18.125  1.00  0.00    -0.369 OA
BRANCH   8   9
HETATM    9  C2  UNL     1      12.231  16.108  18.318  1.00  0.00     0.281 C 
BRANCH   9  10
HETATM   10  C1  UNL     1      11.357  15.351  17.354  1.00  0.00     0.197 C 
HETATM   11  O1  UNL     1      11.945  14.520  16.604  1.00  0.00    -0.646 OA
HETATM   12  O2  UNL     1      10.000  15.538  17.279  1.00  0.00    -0.646 OA
ENDBRANCH   9  10
ENDBRANCH   8   9
ENDBRANCH   1   8
BRANCH   3  13
HETATM   13  C6  UNL     1      16.847  17.070  20.672  1.00  0.00     0.178 C 
HETATM   14  O4  UNL     1      15.835  16.787  21.357  1.00  0.00    -0.648 OA
HETATM   15  O5  UNL     1      17.946  17.569  21.354  1.00  0.00    -0.648 OA
ENDBRANCH   3  13
BRANCH   5  16
HETATM   16  C10 UNL     1      15.914  19.721  16.912  1.00  0.00     0.178 C 
HETATM   17  O8  UNL     1      15.950  20.108  15.716  1.00  0.00    -0.648 OA
HETATM   18  O9  UNL     1      15.732  20.714  17.866  1.00  0.00    -0.648 OA
ENDBRANCH   5  16
BRANCH   4  19
HETATM   19  C8  UNL     1      18.319  18.536  18.075  1.00  0.00     0.178 C 
HETATM   20  O6  UNL     1      18.967  19.416  18.695  1.00  0.00    -0.648 OA
HETATM   21  O7  UNL     1      18.962  17.914  17.015  1.00  0.00    -0.648 OA
ENDBRANCH   4  19
TORSDOF 6
ENDMDL
MODEL 5
REMARK VINA RESULT: -6.479589440      1.280      1.617
REMARK  6 active torsions:
REMARK  status: ('A' for Active; 'I' for Inactive)
REMARK    1  A    between atoms: C1_2  and  C2_4 
REMARK    2  A    between atoms: C2_4  and  O3_5 
REMARK    3  A    between atoms: O3_5  and  C3_6 
REMARK    4  A    between atoms: C5_8  and  C6_9 
REMARK    5  A    between atoms: C7_12  and  C8_13 
REMARK    6  A    between atoms: C9_16  and  C10_17 
ROOT
HETATM    1  C3  UNL     1      16.264  17.539  19.059  1.00  0.00     0.067 A 
HETATM    2  C4  UNL     1      16.553  17.992  17.654  1.00  0.00     0.054 C 
HETATM    3  C5  UNL     1      15.382  18.047  16.755  1.00  0.00     0.105 C 
HETATM    4  C7  UNL     1      14.356  16.974  16.960  1.00  0.00     0.116 C 
HETATM    5  C9  UNL     1      14.763  15.884  17.884  1.00  0.00     0.109 C 
HETATM    6  C11 UNL     1      15.434  16.326  19.140  1.00  0.00     0.038 A 
HETATM    7  C12 UNL     1      14.938  17.657  19.662  1.00  0.00     0.047 A 
ENDROOT
BRANCH   1   8
HETATM    8  O3  UNL     1      17.356  17.686  19.891  1.00  0.00    -0.369 OA
BRANCH   8   9
HETATM    9  C2  UNL     1      18.568  17.333  19.366  1.00  0.00     0.281 C 
BRANCH   9  10
HETATM   10  C1  UNL     1      19.534  17.227  20.516  1.00  0.00     0.197 C 
HETATM   11  O1  UNL     1      19.170  17.765  21.601  1.00  0.00    -0.646 OA
HETATM   12  O2  UNL     1      20.744  16.588  20.412  1.00  0.00    -0.646 OA
ENDBRANCH   9  10
ENDBRANCH   8   9
ENDBRANCH   1   8
BRANCH   3  13
HETATM   13  C6  UNL     1      14.768  19.399  16.739  1.00  0.00     0.178 C 
HETATM   14  O4  UNL     1      15.433  20.416  16.429  1.00  0.00    -0.648 OA
HETATM   15  O5  UNL     1      13.436  19.595  17.065  1.00  0.00    -0.648 OA
ENDBRANCH   3  13
BRANCH   5  16
HETATM   16  C10 UNL     1      13.532  15.146  18.295  1.00  0.00     0.178 C 
HETATM   17  O8  UNL     1      13.558  13.914  18.546  1.00  0.00    -0.648 OA
HETATM   18  O9  UNL     1      12.296  15.766  18.427  1.00  0.00    -0.648 OA
ENDBRANCH   5  16
BRANCH   4  19
HETATM   19  C8  UNL     1      13.933  16.363  15.669  1.00  0.00     0.178 C 
HETATM   20  O6  UNL     1      14.736  15.684  14.981  1.00  0.00    -0.648 OA
HETATM   21  O7  UNL     1      12.648  16.511  15.168  1.00  0.00    -0.648 OA
ENDBRANCH   4  19
TORSDOF 6
ENDMDL
