MODEL 1
REMARK VINA RESULT: -6.311633002      0.000      0.000
REMARK  5 active torsions:
REMARK  status: ('A' for Active; 'I' for Inactive)
REMARK    1  A    between atoms: O1_2  and  N1_3 
REMARK       I    between atoms: N1_3  and  C2_5 
REMARK       I    between atoms: C2_5  and  N2_7 
REMARK    2  A    between atoms: N2_7  and  C3_9 
REMARK    3  A    between atoms: C7_14  and  C8_15 
REMARK    4  A    between atoms: C8_15  and  O4_16 
REMARK    5  A    between atoms: C8_15  and  C9_18 
ROOT
HETATM    1  C3  UNL     1      14.764  17.220  19.582  1.00  0.00     0.090 C 
HETATM    2  C4  UNL     1      13.958  18.484  19.550  1.00  0.00     0.033 C 
HETATM    3  C5  UNL     1      13.809  19.125  18.215  1.00  0.00     0.081 C 
HETATM    4  C6  UNL     1      13.730  18.224  17.071  1.00  0.00     0.138 C 
HETATM    5  O3  UNL     1      14.234  18.656  16.022  1.00  0.00    -0.297 OA
HETATM    6  C7  UNL     1      13.161  16.866  16.882  1.00  0.00     0.057 C 
HETATM    7  C10 UNL     1      14.215  15.902  16.384  1.00  0.00     0.021 C 
HETATM    8  C11 UNL     1      15.026  15.632  17.630  1.00  0.00     0.008 C 
HETATM    9  C12 UNL     1      14.220  16.082  18.815  1.00  0.00     0.010 C 
HETATM   10  C13 UNL     1      12.846  16.314  18.239  1.00  0.00     0.027 C 
ENDROOT
BRANCH   1  11
HETATM   11  N2  UNL     1      16.132  17.577  19.273  1.00  0.00    -0.336 N 
HETATM   12  C2  UNL     1      17.191  17.440  20.199  1.00  0.00     0.340 C 
HETATM   13  N1  UNL     1      18.499  17.806  19.833  1.00  0.00    -0.217 N 
HETATM   14  O2  UNL     1      16.957  16.994  21.336  1.00  0.00    -0.245 OA
ATOM     15  H1  UNL     1      18.684  18.171  18.898  1.00  0.00     0.199 HD
ATOM     16  H2  UNL     1      16.341  17.945  18.345  1.00  0.00     0.164 HD
BRANCH  13  17
HETATM   17  O1  UNL     1      19.510  17.675  20.722  1.00  0.00    -0.281 OA
HETATM   18  C1  UNL     1      20.258  16.561  20.361  1.00  0.00     0.237 C 
ENDBRANCH  13  17
ENDBRANCH   1  11
BRANCH   6  19
HETATM   19  C8  UNL     1      12.011  16.837  15.918  1.00  0.00     0.234 C 
BRANCH  19  20
HETATM   20  O4  UNL     1      11.347  18.065  16.028  1.00  0.00    -0.384 OA
ATOM     21  H4  UNL     1      10.449  17.925  15.749  1.00  0.00     0.210 HD
ENDBRANCH  19  20
BRANCH  19  22
HETATM   22  C9  UNL     1      11.089  15.719  16.133  1.00  0.00     0.204 C 
HETATM   23  O5  UNL     1      11.437  14.544  15.876  1.00  0.00    -0.646 OA
HETATM   24  O6  UNL     1       9.833  15.965  16.622  1.00  0.00    -0.646 OA
ENDBRANCH  19  22
ENDBRANCH   6  19
TORSDOF 5
ENDMDL
MODEL 2
REMARK VINA RESULT: -5.975821258      1.510      2.036
REMARK  5 active torsions:
REMARK  status: ('A' for Active; 'I' for Inactive)
REMARK    1  A    between atoms: O1_2  and  N1_3 
REMARK       I    between atoms: N1_3  and  C2_5 
REMARK       I    between atoms: C2_5  and  N2_7 
REMARK    2  A    between atoms: N2_7  and  C3_9 
REMARK    3  A    between atoms: C7_14  and  C8_15 
REMARK    4  A    between atoms: C8_15  and  O4_16 
REMARK    5  A    between atoms: C8_15  and  C9_18 
ROOT
HETATM    1  C3  UNL     1      16.018  18.025  19.140  1.00  0.00     0.090 C 
HETATM    2  C4  UNL     1      15.691  19.113  18.162  1.00  0.00     0.033 C 
HETATM    3  C5  UNL     1      15.576  18.694  16.739  1.00  0.00     0.081 C 
HETATM    4  C6  UNL     1      15.031  17.362  16.500  1.00  0.00     0.138 C 
HETATM    5  O3  UNL     1      15.492  16.771  15.512  1.00  0.00    -0.297 OA
HETATM    6  C7  UNL     1      14.015  16.536  17.202  1.00  0.00     0.057 C 
HETATM    7  C10 UNL     1      14.596  15.206  17.624  1.00  0.00     0.021 C 
HETATM    8  C11 UNL     1      15.441  15.583  18.819  1.00  0.00     0.008 C 
HETATM    9  C12 UNL     1      15.016  16.949  19.276  1.00  0.00     0.010 C 
HETATM   10  C13 UNL     1      13.733  17.190  18.521  1.00  0.00     0.027 C 
ENDROOT
BRANCH   1  11
HETATM   11  N2  UNL     1      17.366  17.582  18.853  1.00  0.00    -0.336 N 
HETATM   12  C2  UNL     1      18.348  17.406  19.855  1.00  0.00     0.340 C 
HETATM   13  N1  UNL     1      19.640  16.973  19.506  1.00  0.00    -0.217 N 
HETATM   14  O2  UNL     1      18.060  17.637  21.042  1.00  0.00    -0.245 OA
ATOM     15  H1  UNL     1      19.869  16.785  18.530  1.00  0.00     0.199 HD
ATOM     16  H2  UNL     1      17.619  17.389  17.884  1.00  0.00     0.164 HD
BRANCH  13  17
HETATM   17  O1  UNL     1      20.577  16.807  20.467  1.00  0.00    -0.281 OA
HETATM   18  C1  UNL     1      21.412  15.767  20.078  1.00  0.00     0.237 C 
ENDBRANCH  13  17
ENDBRANCH   1  11
BRANCH   6  19
HETATM   19  C8  UNL     1      12.795  16.269  16.369  1.00  0.00     0.234 C 
BRANCH  19  20
HETATM   20  O4  UNL     1      13.126  15.254  15.463  1.00  0.00    -0.384 OA
ATOM     21  H4  UNL     1      12.747  14.448  15.792  1.00  0.00     0.210 HD
ENDBRANCH  19  20
BRANCH  19  22
HETATM   22  C9  UNL     1      12.286  17.451  15.670  1.00  0.00     0.204 C 
HETATM   23  O5  UNL     1      11.680  18.351  16.295  1.00  0.00    -0.646 OA
HETATM   24  O6  UNL     1      12.479  17.573  14.319  1.00  0.00    -0.646 OA
ENDBRANCH  19  22
ENDBRANCH   6  19
TORSDOF 5
ENDMDL
MODEL 3
REMARK VINA RESULT: -5.937884565      3.412      6.937
REMARK  5 active torsions:
REMARK  status: ('A' for Active; 'I' for Inactive)
REMARK    1  A    between atoms: O1_2  and  N1_3 
REMARK       I    between atoms: N1_3  and  C2_5 
REMARK       I    between atoms: C2_5  and  N2_7 
REMARK    2  A    between atoms: N2_7  and  C3_9 
REMARK    3  A    between atoms: C7_14  and  C8_15 
REMARK    4  A    between atoms: C8_15  and  O4_16 
REMARK    5  A    between atoms: C8_15  and  C9_18 
ROOT
HETATM    1  C3  UNL     1      12.506  17.302  15.042  1.00  0.00     0.090 C 
HETATM    2  C4  UNL     1      13.194  18.345  15.869  1.00  0.00     0.033 C 
HETATM    3  C5  UNL     1      13.097  18.171  17.344  1.00  0.00     0.081 C 
HETATM    4  C6  UNL     1      13.085  16.797  17.833  1.00  0.00     0.138 C 
HETATM    5  O3  UNL     1      12.402  16.604  18.851  1.00  0.00    -0.297 OA
HETATM    6  C7  UNL     1      13.728  15.543  17.365  1.00  0.00     0.057 C 
HETATM    7  C10 UNL     1      12.696  14.472  17.096  1.00  0.00     0.021 C 
HETATM    8  C11 UNL     1      12.096  14.918  15.783  1.00  0.00     0.008 C 
HETATM    9  C12 UNL     1      13.024  15.925  15.166  1.00  0.00     0.010 C 
HETATM   10  C13 UNL     1      14.278  15.802  15.995  1.00  0.00     0.027 C 
ENDROOT
BRANCH   1  11
HETATM   11  N2  UNL     1      11.083  17.450  15.263  1.00  0.00    -0.336 N 
HETATM   12  C2  UNL     1      10.206  17.991  14.295  1.00  0.00     0.340 C 
HETATM   13  N1  UNL     1       8.833  18.106  14.576  1.00  0.00    -0.217 N 
HETATM   14  O2  UNL     1      10.658  18.364  13.199  1.00  0.00    -0.245 OA
ATOM     15  H1  UNL     1       8.468  17.799  15.478  1.00  0.00     0.199 HD
ATOM     16  H2  UNL     1      10.696  17.149  16.157  1.00  0.00     0.164 HD
BRANCH  13  17
HETATM   17  O1  UNL     1       7.996  18.627  13.649  1.00  0.00    -0.281 OA
HETATM   18  C1  UNL     1       7.430  19.779  14.178  1.00  0.00     0.237 C 
ENDBRANCH  13  17
ENDBRANCH   1  11
BRANCH   6  19
HETATM   19  C8  UNL     1      14.727  14.993  18.341  1.00  0.00     0.234 C 
BRANCH  19  20
HETATM   20  O4  UNL     1      14.006  14.369  19.366  1.00  0.00    -0.384 OA
ATOM     21  H4  UNL     1      13.104  14.657  19.290  1.00  0.00     0.210 HD
ENDBRANCH  19  20
BRANCH  19  22
HETATM   22  C9  UNL     1      15.641  16.002  18.881  1.00  0.00     0.204 C 
HETATM   23  O5  UNL     1      16.557  16.481  18.173  1.00  0.00    -0.646 OA
HETATM   24  O6  UNL     1      15.490  16.427  20.175  1.00  0.00    -0.646 OA
ENDBRANCH  19  22
ENDBRANCH   6  19
TORSDOF 5
ENDMDL
MODEL 4
REMARK VINA RESULT: -5.839746091      3.160      4.431
REMARK  5 active torsions:
REMARK  status: ('A' for Active; 'I' for Inactive)
REMARK    1  A    between atoms: O1_2  and  N1_3 
REMARK       I    between atoms: N1_3  and  C2_5 
REMARK       I    between atoms: C2_5  and  N2_7 
REMARK    2  A    between atoms: N2_7  and  C3_9 
REMARK    3  A    between atoms: C7_14  and  C8_15 
REMARK    4  A    between atoms: C8_15  and  O4_16 
REMARK    5  A    between atoms: C8_15  and  C9_18 
ROOT
HETATM    1  C3  UNL     1      14.543  19.845  16.677  1.00  0.00     0.090 C 
HETATM    2  C4  UNL     1      15.251  18.991  15.670  1.00  0.00     0.033 C 
HETATM    3  C5  UNL     1      16.116  17.915  16.225  1.00  0.00     0.081 C 
HETATM    4  C6  UNL     1      15.656  17.290  17.461  1.00  0.00     0.138 C 
HETATM    5  O3  UNL     1      16.555  16.923  18.233  1.00  0.00    -0.297 OA
HETATM    6  C7  UNL     1      14.310  16.990  18.011  1.00  0.00     0.057 C 
HETATM    7  C10 UNL     1      14.121  17.639  19.364  1.00  0.00     0.021 C 
HETATM    8  C11 UNL     1      13.896  19.089  19.003  1.00  0.00     0.008 C 
HETATM    9  C12 UNL     1      13.563  19.157  17.540  1.00  0.00     0.010 C 
HETATM   10  C13 UNL     1      13.305  17.718  17.170  1.00  0.00     0.027 C 
ENDROOT
BRANCH   1  11
HETATM   11  N2  UNL     1      15.553  20.610  17.376  1.00  0.00    -0.336 N 
HETATM   12  C2  UNL     1      15.436  21.998  17.621  1.00  0.00     0.340 C 
HETATM   13  N1  UNL     1      16.457  22.680  18.307  1.00  0.00    -0.217 N 
HETATM   14  O2  UNL     1      14.428  22.606  17.224  1.00  0.00    -0.245 OA
ATOM     15  H1  UNL     1      17.281  22.174  18.630  1.00  0.00     0.199 HD
ATOM     16  H2  UNL     1      16.387  20.126  17.708  1.00  0.00     0.164 HD
BRANCH  13  17
HETATM   17  O1  UNL     1      16.342  24.008  18.538  1.00  0.00    -0.281 OA
HETATM   18  C1  UNL     1      17.531  24.450  19.103  1.00  0.00     0.237 C 
ENDBRANCH  13  17
ENDBRANCH   1  11
BRANCH   6  19
HETATM   19  C8  UNL     1      14.048  15.519  18.159  1.00  0.00     0.234 C 
BRANCH  19  20
HETATM   20  O4  UNL     1      15.010  14.848  17.395  1.00  0.00    -0.384 OA
ATOM     21  H4  UNL     1      15.176  14.015  17.820  1.00  0.00     0.210 HD
ENDBRANCH  19  20
BRANCH  19  22
HETATM   22  C9  UNL     1      12.694  15.120  17.768  1.00  0.00     0.204 C 
HETATM   23  O5  UNL     1      12.468  14.656  16.627  1.00  0.00    -0.646 OA
HETATM   24  O6  UNL     1      11.666  15.253  18.664  1.00  0.00    -0.646 OA
ENDBRANCH  19  22
ENDBRANCH   6  19
TORSDOF 5
ENDMDL
MODEL 5
REMARK VINA RESULT: -5.834483636      3.101      4.538
REMARK  5 active torsions:
REMARK  status: ('A' for Active; 'I' for Inactive)
REMARK    1  A    between atoms: O1_2  and  N1_3 
REMARK       I    between atoms: N1_3  and  C2_5 
REMARK       I    between atoms: C2_5  and  N2_7 
REMARK    2  A    between atoms: N2_7  and  C3_9 
REMARK    3  A    between atoms: C7_14  and  C8_15 
REMARK    4  A    between atoms: C8_15  and  O4_16 
REMARK    5  A    between atoms: C8_15  and  C9_18 
ROOT
HETATM    1  C3  UNL     1      16.006  19.238  16.973  1.00  0.00     0.090 C 
HETATM    2  C4  UNL     1      17.153  18.451  17.531  1.00  0.00     0.033 C 
HETATM    3  C5  UNL     1      16.904  17.776  18.833  1.00  0.00     0.081 C 
HETATM    4  C6  UNL     1      15.550  17.279  19.055  1.00  0.00     0.138 C 
HETATM    5  O3  UNL     1      15.158  17.321  20.231  1.00  0.00    -0.297 OA
HETATM    6  C7  UNL     1      14.511  16.718  18.155  1.00  0.00     0.057 C 
HETATM    7  C10 UNL     1      13.231  17.518  18.240  1.00  0.00     0.021 C 
HETATM    8  C11 UNL     1      13.567  18.759  17.446  1.00  0.00     0.008 C 
HETATM    9  C12 UNL     1      14.794  18.469  16.629  1.00  0.00     0.010 C 
HETATM   10  C13 UNL     1      14.949  16.973  16.744  1.00  0.00     0.027 C 
ENDROOT
BRANCH   1  11
HETATM   11  N2  UNL     1      15.793  20.367  17.854  1.00  0.00    -0.336 N 
HETATM   12  C2  UNL     1      16.045  21.703  17.467  1.00  0.00     0.340 C 
HETATM   13  N1  UNL     1      15.815  22.753  18.374  1.00  0.00    -0.217 N 
HETATM   14  O2  UNL     1      16.469  21.940  16.323  1.00  0.00    -0.245 OA
ATOM     15  H1  UNL     1      15.467  22.552  19.311  1.00  0.00     0.199 HD
ATOM     16  H2  UNL     1      15.445  20.190  18.796  1.00  0.00     0.164 HD
BRANCH  13  17
HETATM   17  O1  UNL     1      16.059  24.031  18.002  1.00  0.00    -0.281 OA
HETATM   18  C1  UNL     1      17.173  24.478  18.700  1.00  0.00     0.237 C 
ENDBRANCH  13  17
ENDBRANCH   1  11
BRANCH   6  19
HETATM   19  C8  UNL     1      14.185  15.283  18.453  1.00  0.00     0.234 C 
BRANCH  19  20
HETATM   20  O4  UNL     1      15.213  14.502  17.911  1.00  0.00    -0.384 OA
ATOM     21  H4  UNL     1      14.805  13.758  17.484  1.00  0.00     0.210 HD
ENDBRANCH  19  20
BRANCH  19  22
HETATM   22  C9  UNL     1      12.878  14.857  17.945  1.00  0.00     0.204 C 
HETATM   23  O5  UNL     1      11.936  14.612  18.732  1.00  0.00    -0.646 OA
HETATM   24  O6  UNL     1      12.688  14.729  16.595  1.00  0.00    -0.646 OA
ENDBRANCH  19  22
ENDBRANCH   6  19
TORSDOF 5
ENDMDL
