MODEL 1
REMARK VINA RESULT: -6.961982360      0.000      0.000
REMARK  8 active torsions:
REMARK  status: ('A' for Active; 'I' for Inactive)
REMARK    1  A    between atoms: C2_2  and  N1_3 
REMARK    2  A    between atoms: C2_2  and  C10_18 
REMARK    3  A    between atoms: C3_5  and  C4_6 
REMARK    4  A    between atoms: C6_8  and  O1_9 
REMARK    5  A    between atoms: C8_12  and  O2_13 
REMARK    6  A    between atoms: C9_15  and  O3_16 
REMARK       I    between atoms: C10_18  and  N2_20 
REMARK    7  A    between atoms: N2_20  and  C11_22 
REMARK    8  A    between atoms: C11_22  and  C12_23 
ROOT
HETATM    1  N1  UNL     1      15.568  17.560  17.155  1.00  0.00    -0.389 N 
ATOM      2  H1  UNL     1      15.627  16.758  17.783  1.00  0.00     0.159 HD
HETATM    3  C3  UNL     1      14.489  17.700  16.479  1.00  0.00     0.063 C 
ENDROOT
BRANCH   1   4
HETATM    4  C2  UNL     1      16.682  18.429  17.102  1.00  0.00     0.169 C 
HETATM    5  C1  UNL     1      17.283  18.473  15.699  1.00  0.00     0.042 C 
BRANCH   4   6
HETATM    6  C10 UNL     1      17.777  18.026  18.021  1.00  0.00     0.239 C 
HETATM    7  O4  UNL     1      18.859  17.687  17.479  1.00  0.00    -0.271 OA
HETATM    8  N2  UNL     1      17.653  18.008  19.417  1.00  0.00    -0.359 N 
ATOM      9  H2  UNL     1      16.755  18.293  19.807  1.00  0.00     0.162 HD
BRANCH   8  10
HETATM   10  C11 UNL     1      18.682  17.623  20.348  1.00  0.00     0.127 C 
BRANCH  10  11
HETATM   11  C12 UNL     1      18.102  16.893  21.505  1.00  0.00     0.003 C 
HETATM   12  C13 UNL     1      18.268  17.611  22.853  1.00  0.00     0.006 C 
HETATM   13  C14 UNL     1      16.889  17.070  23.197  1.00  0.00     0.001 C 
HETATM   14  C15 UNL     1      16.594  17.104  21.705  1.00  0.00     0.006 C 
ENDBRANCH  10  11
ENDBRANCH   8  10
ENDBRANCH   4   6
ENDBRANCH   1   4
BRANCH   3  15
HETATM   15  C4  UNL     1      13.429  16.690  16.666  1.00  0.00     0.057 C 
HETATM   16  C5  UNL     1      12.056  17.201  16.285  1.00  0.00     0.044 C 
HETATM   17  C6  UNL     1      11.184  15.971  16.052  1.00  0.00     0.121 C 
HETATM   18  C7  UNL     1      11.725  14.786  16.790  1.00  0.00     0.066 C 
HETATM   19  C8  UNL     1      12.292  15.122  18.138  1.00  0.00     0.150 C 
HETATM   20  C9  UNL     1      13.334  16.198  18.095  1.00  0.00     0.155 C 
BRANCH  17  21
HETATM   21  O1  UNL     1       9.859  16.242  16.350  1.00  0.00    -0.395 OA
ATOM     22  H1  UNL     1       9.277  15.739  15.793  1.00  0.00     0.210 HD
ENDBRANCH  17  21
BRANCH  19  23
HETATM   23  O2  UNL     1      11.231  15.413  18.987  1.00  0.00    -0.393 OA
ATOM     24  H2  UNL     1      11.263  16.342  19.187  1.00  0.00     0.210 HD
ENDBRANCH  19  23
BRANCH  20  25
HETATM   25  O3  UNL     1      12.923  17.291  18.867  1.00  0.00    -0.392 OA
ATOM     26  H3  UNL     1      13.593  17.422  19.529  1.00  0.00     0.210 HD
ENDBRANCH  20  25
ENDBRANCH   3  15
TORSDOF 8
ENDMDL
MODEL 2
REMARK VINA RESULT: -6.706557642      1.319      1.855
REMARK  8 active torsions:
REMARK  status: ('A' for Active; 'I' for Inactive)
REMARK    1  A    between atoms: C2_2  and  N1_3 
REMARK    2  A    between atoms: C2_2  and  C10_18 
REMARK    3  A    between atoms: C3_5  and  C4_6 
REMARK    4  A    between atoms: C6_8  and  O1_9 
REMARK    5  A    between atoms: C8_12  and  O2_13 
REMARK    6  A    between atoms: C9_15  and  O3_16 
REMARK       I    between atoms: C10_18  and  N2_20 
REMARK    7  A    between atoms: N2_20  and  C11_22 
REMARK    8  A    between atoms: C11_22  and  C12_23 
ROOT
HETATM    1  N1  UNL     1      15.758  17.733  16.916  1.00  0.00    -0.389 N 
ATOM      2  H1  UNL     1      15.848  16.789  17.291  1.00  0.00     0.159 HD
HETATM    3  C3  UNL     1      14.589  18.118  16.564  1.00  0.00     0.063 C 
ENDROOT
BRANCH   1   4
HETATM    4  C2  UNL     1      16.935  18.512  16.825  1.00  0.00     0.169 C 
HETATM    5  C1  UNL     1      17.557  18.416  15.434  1.00  0.00     0.042 C 
BRANCH   4   6
HETATM    6  C10 UNL     1      17.983  18.094  17.789  1.00  0.00     0.239 C 
HETATM    7  O4  UNL     1      19.078  17.726  17.294  1.00  0.00    -0.271 OA
HETATM    8  N2  UNL     1      17.805  18.092  19.180  1.00  0.00    -0.359 N 
ATOM      9  H2  UNL     1      16.900  18.401  19.533  1.00  0.00     0.162 HD
BRANCH   8  10
HETATM   10  C11 UNL     1      18.788  17.694  20.154  1.00  0.00     0.127 C 
BRANCH  10  11
HETATM   11  C12 UNL     1      18.155  16.933  21.263  1.00  0.00     0.003 C 
HETATM   12  C13 UNL     1      18.246  17.620  22.634  1.00  0.00     0.006 C 
HETATM   13  C14 UNL     1      16.855  17.060  22.893  1.00  0.00     0.001 C 
HETATM   14  C15 UNL     1      16.638  17.127  21.389  1.00  0.00     0.006 C 
ENDBRANCH  10  11
ENDBRANCH   8  10
ENDBRANCH   4   6
ENDBRANCH   1   4
BRANCH   3  15
HETATM   15  C4  UNL     1      13.475  17.163  16.732  1.00  0.00     0.057 C 
HETATM   16  C5  UNL     1      13.616  16.308  17.973  1.00  0.00     0.044 C 
HETATM   17  C6  UNL     1      12.227  15.758  18.282  1.00  0.00     0.121 C 
HETATM   18  C7  UNL     1      11.376  15.736  17.050  1.00  0.00     0.066 C 
HETATM   19  C8  UNL     1      12.127  15.363  15.804  1.00  0.00     0.150 C 
HETATM   20  C9  UNL     1      13.334  16.216  15.559  1.00  0.00     0.155 C 
BRANCH  17  21
HETATM   21  O1  UNL     1      12.311  14.527  18.909  1.00  0.00    -0.395 OA
ATOM     22  H1  UNL     1      11.962  13.839  18.355  1.00  0.00     0.210 HD
ENDBRANCH  17  21
BRANCH  19  23
HETATM   23  O2  UNL     1      12.413  14.004  15.869  1.00  0.00    -0.393 OA
ATOM     24  H2  UNL     1      13.357  13.902  15.812  1.00  0.00     0.210 HD
ENDBRANCH  19  23
BRANCH  20  25
HETATM   25  O3  UNL     1      14.486  15.420  15.548  1.00  0.00    -0.392 OA
ATOM     26  H3  UNL     1      15.197  15.977  15.253  1.00  0.00     0.210 HD
ENDBRANCH  20  25
ENDBRANCH   3  15
TORSDOF 8
ENDMDL
MODEL 3
REMARK VINA RESULT: -6.566856753      0.805      1.069
REMARK  8 active torsions:
REMARK  status: ('A' for Active; 'I' for Inactive)
REMARK    1  A    between atoms: C2_2  and  N1_3 
REMARK    2  A    between atoms: C2_2  and  C10_18 
REMARK    3  A    between atoms: C3_5  and  C4_6 
REMARK    4  A    between atoms: C6_8  and  O1_9 
REMARK    5  A    between atoms: C8_12  and  O2_13 
REMARK    6  A    between atoms: C9_15  and  O3_16 
REMARK       I    between atoms: C10_18  and  N2_20 
REMARK    7  A    between atoms: N2_20  and  C11_22 
REMARK    8  A    between atoms: C11_22  and  C12_23 
ROOT
HETATM    1  N1  UNL     1      15.303  17.623  16.420  1.00  0.00    -0.389 N 
ATOM      2  H1  UNL     1      15.297  17.088  17.288  1.00  0.00     0.159 HD
HETATM    3  C3  UNL     1      14.301  17.483  15.635  1.00  0.00     0.063 C 
ENDROOT
BRANCH   1   4
HETATM    4  C2  UNL     1      16.417  18.460  16.179  1.00  0.00     0.169 C 
HETATM    5  C1  UNL     1      17.080  18.128  14.844  1.00  0.00     0.042 C 
BRANCH   4   6
HETATM    6  C10 UNL     1      17.469  18.339  17.218  1.00  0.00     0.239 C 
HETATM    7  O4  UNL     1      18.440  19.131  17.119  1.00  0.00    -0.271 OA
HETATM    8  N2  UNL     1      17.424  17.410  18.266  1.00  0.00    -0.359 N 
ATOM      9  H2  UNL     1      16.614  16.791  18.304  1.00  0.00     0.162 HD
BRANCH   8  10
HETATM   10  C11 UNL     1      18.419  17.252  19.296  1.00  0.00     0.127 C 
BRANCH  10  11
HETATM   11  C12 UNL     1      17.920  17.766  20.597  1.00  0.00     0.003 C 
HETATM   12  C13 UNL     1      16.668  17.046  21.123  1.00  0.00     0.006 C 
HETATM   13  C14 UNL     1      17.271  17.225  22.508  1.00  0.00     0.001 C 
HETATM   14  C15 UNL     1      18.632  17.191  21.830  1.00  0.00     0.006 C 
ENDBRANCH  10  11
ENDBRANCH   8  10
ENDBRANCH   4   6
ENDBRANCH   1   4
BRANCH   3  15
HETATM   15  C4  UNL     1      13.227  16.561  16.055  1.00  0.00     0.057 C 
HETATM   16  C5  UNL     1      11.842  17.097  15.760  1.00  0.00     0.044 C 
HETATM   17  C6  UNL     1      10.900  15.898  15.773  1.00  0.00     0.121 C 
HETATM   18  C7  UNL     1      11.470  14.780  16.590  1.00  0.00     0.066 C 
HETATM   19  C8  UNL     1      12.197  15.241  17.820  1.00  0.00     0.150 C 
HETATM   20  C9  UNL     1      13.270  16.246  17.535  1.00  0.00     0.155 C 
BRANCH  17  21
HETATM   21  O1  UNL     1       9.628  16.273  16.173  1.00  0.00    -0.395 OA
ATOM     22  H1  UNL     1       9.627  16.551  17.081  1.00  0.00     0.210 HD
ENDBRANCH  17  21
BRANCH  19  23
HETATM   23  O2  UNL     1      11.249  15.688  18.733  1.00  0.00    -0.393 OA
ATOM     24  H2  UNL     1      11.176  16.631  18.640  1.00  0.00     0.210 HD
ENDBRANCH  19  23
BRANCH  20  25
HETATM   25  O3  UNL     1      12.994  17.443  18.206  1.00  0.00    -0.392 OA
ATOM     26  H3  UNL     1      12.807  17.212  19.109  1.00  0.00     0.210 HD
ENDBRANCH  20  25
ENDBRANCH   3  15
TORSDOF 8
ENDMDL
MODEL 4
REMARK VINA RESULT: -6.479373852      2.039      3.130
REMARK  8 active torsions:
REMARK  status: ('A' for Active; 'I' for Inactive)
REMARK    1  A    between atoms: C2_2  and  N1_3 
REMARK    2  A    between atoms: C2_2  and  C10_18 
REMARK    3  A    between atoms: C3_5  and  C4_6 
REMARK    4  A    between atoms: C6_8  and  O1_9 
REMARK    5  A    between atoms: C8_12  and  O2_13 
REMARK    6  A    between atoms: C9_15  and  O3_16 
REMARK       I    between atoms: C10_18  and  N2_20 
REMARK    7  A    between atoms: N2_20  and  C11_22 
REMARK    8  A    between atoms: C11_22  and  C12_23 
ROOT
HETATM    1  N1  UNL     1      13.617  16.183  17.130  1.00  0.00    -0.389 N 
ATOM      2  H1  UNL     1      12.840  16.565  17.670  1.00  0.00     0.159 HD
HETATM    3  C3  UNL     1      13.551  16.279  15.854  1.00  0.00     0.063 C 
ENDROOT
BRANCH   1   4
HETATM    4  C2  UNL     1      14.681  15.590  17.848  1.00  0.00     0.169 C 
HETATM    5  C1  UNL     1      14.181  14.454  18.739  1.00  0.00     0.042 C 
BRANCH   4   6
HETATM    6  C10 UNL     1      15.386  16.548  18.736  1.00  0.00     0.239 C 
HETATM    7  O4  UNL     1      14.658  17.329  19.399  1.00  0.00    -0.271 OA
HETATM    8  N2  UNL     1      16.781  16.612  18.859  1.00  0.00    -0.359 N 
ATOM      9  H2  UNL     1      17.327  15.955  18.301  1.00  0.00     0.162 HD
BRANCH   8  10
HETATM   10  C11 UNL     1      17.511  17.523  19.702  1.00  0.00     0.127 C 
BRANCH  10  11
HETATM   11  C12 UNL     1      17.785  16.910  21.029  1.00  0.00     0.003 C 
HETATM   12  C13 UNL     1      18.754  17.715  21.908  1.00  0.00     0.006 C 
HETATM   13  C14 UNL     1      17.895  17.272  23.083  1.00  0.00     0.001 C 
HETATM   14  C15 UNL     1      16.732  17.213  22.104  1.00  0.00     0.006 C 
ENDBRANCH  10  11
ENDBRANCH   8  10
ENDBRANCH   4   6
ENDBRANCH   1   4
BRANCH   3  15
HETATM   15  C4  UNL     1      12.358  16.933  15.279  1.00  0.00     0.057 C 
HETATM   16  C5  UNL     1      12.046  18.264  15.929  1.00  0.00     0.044 C 
HETATM   17  C6  UNL     1      11.151  19.024  14.955  1.00  0.00     0.121 C 
HETATM   18  C7  UNL     1      10.438  18.080  14.038  1.00  0.00     0.066 C 
HETATM   19  C8  UNL     1       9.998  16.809  14.704  1.00  0.00     0.150 C 
HETATM   20  C9  UNL     1      11.111  16.083  15.396  1.00  0.00     0.155 C 
BRANCH  17  21
HETATM   21  O1  UNL     1      10.297  19.878  15.632  1.00  0.00    -0.395 OA
ATOM     22  H1  UNL     1      10.243  20.720  15.196  1.00  0.00     0.210 HD
ENDBRANCH  17  21
BRANCH  19  23
HETATM   23  O2  UNL     1       8.930  17.113  15.541  1.00  0.00    -0.393 OA
ATOM     24  H2  UNL     1       8.974  16.532  16.292  1.00  0.00     0.210 HD
ENDBRANCH  19  23
BRANCH  20  25
HETATM   25  O3  UNL     1      10.830  15.971  16.763  1.00  0.00    -0.392 OA
ATOM     26  H3  UNL     1      11.467  15.364  17.121  1.00  0.00     0.210 HD
ENDBRANCH  20  25
ENDBRANCH   3  15
TORSDOF 8
ENDMDL
MODEL 5
REMARK VINA RESULT: -6.471130873      1.298      1.738
REMARK  8 active torsions:
REMARK  status: ('A' for Active; 'I' for Inactive)
REMARK    1  A    between atoms: C2_2  and  N1_3 
REMARK    2  A    between atoms: C2_2  and  C10_18 
REMARK    3  A    between atoms: C3_5  and  C4_6 
REMARK    4  A    between atoms: C6_8  and  O1_9 
REMARK    5  A    between atoms: C8_12  and  O2_13 
REMARK    6  A    between atoms: C9_15  and  O3_16 
REMARK       I    between atoms: C10_18  and  N2_20 
REMARK    7  A    between atoms: N2_20  and  C11_22 
REMARK    8  A    between atoms: C11_22  and  C12_23 
ROOT
HETATM    1  N1  UNL     1      14.039  18.028  17.046  1.00  0.00    -0.389 N 
ATOM      2  H1  UNL     1      13.188  18.408  17.462  1.00  0.00     0.159 HD
HETATM    3  C3  UNL     1      13.910  17.046  16.235  1.00  0.00     0.063 C 
ENDROOT
BRANCH   1   4
HETATM    4  C2  UNL     1      15.266  18.629  17.411  1.00  0.00     0.169 C 
HETATM    5  C1  UNL     1      16.172  18.818  16.196  1.00  0.00     0.042 C 
BRANCH   4   6
HETATM    6  C10 UNL     1      16.035  17.825  18.394  1.00  0.00     0.239 C 
HETATM    7  O4  UNL     1      17.239  17.605  18.109  1.00  0.00    -0.271 OA
HETATM    8  N2  UNL     1      15.491  17.322  19.583  1.00  0.00    -0.359 N 
ATOM      9  H2  UNL     1      14.510  17.530  19.770  1.00  0.00     0.162 HD
BRANCH   8  10
HETATM   10  C11 UNL     1      16.194  16.537  20.565  1.00  0.00     0.127 C 
BRANCH  10  11
HETATM   11  C12 UNL     1      16.932  17.413  21.512  1.00  0.00     0.003 C 
HETATM   12  C13 UNL     1      16.717  17.066  22.993  1.00  0.00     0.006 C 
HETATM   13  C14 UNL     1      18.177  17.443  23.189  1.00  0.00     0.001 C 
HETATM   14  C15 UNL     1      18.396  17.015  21.746  1.00  0.00     0.006 C 
ENDBRANCH  10  11
ENDBRANCH   8  10
ENDBRANCH   4   6
ENDBRANCH   1   4
BRANCH   3  15
HETATM   15  C4  UNL     1      12.543  16.550  15.974  1.00  0.00     0.057 C 
HETATM   16  C5  UNL     1      11.542  17.666  15.767  1.00  0.00     0.044 C 
HETATM   17  C6  UNL     1      10.349  17.051  15.042  1.00  0.00     0.121 C 
HETATM   18  C7  UNL     1      10.281  15.575  15.284  1.00  0.00     0.066 C 
HETATM   19  C8  UNL     1      10.665  15.173  16.679  1.00  0.00     0.150 C 
HETATM   20  C9  UNL     1      12.010  15.684  17.096  1.00  0.00     0.155 C 
BRANCH  17  21
HETATM   21  O1  UNL     1       9.177  17.712  15.369  1.00  0.00    -0.395 OA
ATOM     22  H1  UNL     1       8.430  17.305  14.948  1.00  0.00     0.210 HD
ENDBRANCH  17  21
BRANCH  19  23
HETATM   23  O2  UNL     1       9.637  15.560  17.532  1.00  0.00    -0.393 OA
ATOM     24  H2  UNL     1       9.977  16.231  18.113  1.00  0.00     0.210 HD
ENDBRANCH  19  23
BRANCH  20  25
HETATM   25  O3  UNL     1      11.879  16.515  18.215  1.00  0.00    -0.392 OA
ATOM     26  H3  UNL     1      12.345  17.318  18.013  1.00  0.00     0.210 HD
ENDBRANCH  20  25
ENDBRANCH   3  15
TORSDOF 8
ENDMDL
