MODEL 1
REMARK VINA RESULT: -7.076318580      0.000      0.000
REMARK  4 active torsions:
REMARK  status: ('A' for Active; 'I' for Inactive)
REMARK    1  A    between atoms: N2_5  and  C4_6 
REMARK    2  A    between atoms: C4_6  and  C5_7 
REMARK    3  A    between atoms: C5_7  and  N3_8 
REMARK    4  A    between atoms: N3_8  and  C6_10 
ROOT
HETATM    1  C6  UNL     1      25.845  -3.678  23.097  1.00  0.00     0.062 A 
HETATM    2  C7  UNL     1      24.843  -4.564  22.774  1.00  0.00     0.087 A 
HETATM    3  C8  UNL     1      23.447  -4.278  22.983  1.00  0.00     0.103 C 
HETATM    4  N4  UNL     1      22.320  -4.079  23.138  1.00  0.00    -0.191 NA
HETATM    5  C9  UNL     1      25.198  -5.794  22.219  1.00  0.00     0.113 A 
HETATM    6  N5  UNL     1      26.489  -6.106  22.005  1.00  0.00    -0.361 N 
ATOM      7  H5  UNL     1      26.722  -7.012  21.597  1.00  0.00     0.165 HD
HETATM    8  C10 UNL     1      27.481  -5.250  22.315  1.00  0.00     0.087 A 
HETATM    9  C11 UNL     1      27.196  -4.036  22.859  1.00  0.00     0.001 A 
HETATM   10  C12 UNL     1      28.452  -3.269  23.114  1.00  0.00     0.051 C 
HETATM   11  C13 UNL     1      29.484  -4.005  22.327  1.00  0.00     0.090 C 
HETATM   12  C14 UNL     1      28.942  -5.384  22.167  1.00  0.00     0.176 C 
HETATM   13  O1  UNL     1      29.564  -6.437  21.954  1.00  0.00    -0.291 OA
ENDROOT
BRANCH   1  14
HETATM   14  N3  UNL     1      25.650  -2.557  23.595  1.00  0.00    -0.366 N 
ATOM     15  H3  UNL     1      25.391  -1.885  22.873  1.00  0.00     0.165 HD
BRANCH  14  16
HETATM   16  C5  UNL     1      25.680  -1.939  24.855  1.00  0.00     0.081 C 
BRANCH  16  17
HETATM   17  C4  UNL     1      24.772  -2.616  25.866  1.00  0.00     0.171 C 
BRANCH  17  18
HETATM   18  N2  UNL     1      25.414  -3.354  26.889  1.00  0.00    -0.328 N 
HETATM   19  C3  UNL     1      26.200  -2.760  27.955  1.00  0.00     0.148 C 
HETATM   20  C2  UNL     1      26.079  -3.759  29.112  1.00  0.00     0.147 C 
HETATM   21  N1  UNL     1      26.136  -5.014  28.379  1.00  0.00    -0.337 N 
HETATM   22  C1  UNL     1      26.742  -6.264  28.811  1.00  0.00     0.154 C 
HETATM   23  C15 UNL     1      25.470  -4.754  27.150  1.00  0.00     0.320 C 
HETATM   24  O2  UNL     1      24.988  -5.614  26.379  1.00  0.00    -0.247 OA
ENDBRANCH  17  18
ENDBRANCH  16  17
ENDBRANCH  14  16
ENDBRANCH   1  14
TORSDOF 4
ENDMDL
MODEL 2
REMARK VINA RESULT: -6.986829281      1.300      1.630
REMARK  4 active torsions:
REMARK  status: ('A' for Active; 'I' for Inactive)
REMARK    1  A    between atoms: N2_5  and  C4_6 
REMARK    2  A    between atoms: C4_6  and  C5_7 
REMARK    3  A    between atoms: C5_7  and  N3_8 
REMARK    4  A    between atoms: N3_8  and  C6_10 
ROOT
HETATM    1  C6  UNL     1      26.107  -3.816  23.457  1.00  0.00     0.062 A 
HETATM    2  C7  UNL     1      25.035  -4.500  22.931  1.00  0.00     0.087 A 
HETATM    3  C8  UNL     1      23.671  -4.220  23.299  1.00  0.00     0.103 C 
HETATM    4  N4  UNL     1      22.567  -4.019  23.573  1.00  0.00    -0.191 NA
HETATM    5  C9  UNL     1      25.283  -5.508  21.998  1.00  0.00     0.113 A 
HETATM    6  N5  UNL     1      26.539  -5.805  21.623  1.00  0.00    -0.361 N 
ATOM      7  H5  UNL     1      26.693  -6.547  20.940  1.00  0.00     0.165 HD
HETATM    8  C10 UNL     1      27.599  -5.146  22.128  1.00  0.00     0.087 A 
HETATM    9  C11 UNL     1      27.420  -4.153  23.041  1.00  0.00     0.001 A 
HETATM   10  C12 UNL     1      28.735  -3.576  23.450  1.00  0.00     0.051 C 
HETATM   11  C13 UNL     1      29.683  -4.079  22.414  1.00  0.00     0.090 C 
HETATM   12  C14 UNL     1      29.041  -5.305  21.862  1.00  0.00     0.176 C 
HETATM   13  O1  UNL     1      29.580  -6.269  21.294  1.00  0.00    -0.291 OA
ENDROOT
BRANCH   1  14
HETATM   14  N3  UNL     1      26.009  -2.902  24.291  1.00  0.00    -0.366 N 
ATOM     15  H3  UNL     1      26.343  -2.022  23.898  1.00  0.00     0.165 HD
BRANCH  14  16
HETATM   16  C5  UNL     1      25.577  -2.718  25.614  1.00  0.00     0.081 C 
BRANCH  16  17
HETATM   17  C4  UNL     1      26.417  -3.483  26.621  1.00  0.00     0.171 C 
BRANCH  17  18
HETATM   18  N2  UNL     1      25.783  -4.571  27.268  1.00  0.00    -0.328 N 
HETATM   19  C3  UNL     1      24.814  -5.447  26.633  1.00  0.00     0.148 C 
HETATM   20  C2  UNL     1      24.955  -6.773  27.389  1.00  0.00     0.147 C 
HETATM   21  N1  UNL     1      25.152  -6.280  28.744  1.00  0.00    -0.337 N 
HETATM   22  C1  UNL     1      24.687  -6.886  29.982  1.00  0.00     0.154 C 
HETATM   23  C15 UNL     1      25.898  -5.079  28.593  1.00  0.00     0.320 C 
HETATM   24  O2  UNL     1      26.575  -4.518  29.485  1.00  0.00    -0.247 OA
ENDBRANCH  17  18
ENDBRANCH  16  17
ENDBRANCH  14  16
ENDBRANCH   1  14
TORSDOF 4
ENDMDL
MODEL 3
REMARK VINA RESULT: -6.942562045      2.886      4.303
REMARK  4 active torsions:
REMARK  status: ('A' for Active; 'I' for Inactive)
REMARK    1  A    between atoms: N2_5  and  C4_6 
REMARK    2  A    between atoms: C4_6  and  C5_7 
REMARK    3  A    between atoms: C5_7  and  N3_8 
REMARK    4  A    between atoms: N3_8  and  C6_10 
ROOT
HETATM    1  C6  UNL     1      23.302  -3.842  24.520  1.00  0.00     0.062 A 
HETATM    2  C7  UNL     1      22.076  -3.589  25.091  1.00  0.00     0.087 A 
HETATM    3  C8  UNL     1      21.177  -4.633  25.511  1.00  0.00     0.103 C 
HETATM    4  N4  UNL     1      20.435  -5.447  25.858  1.00  0.00    -0.191 NA
HETATM    5  C9  UNL     1      21.688  -2.260  25.270  1.00  0.00     0.113 A 
HETATM    6  N5  UNL     1      22.494  -1.251  24.894  1.00  0.00    -0.361 N 
ATOM      7  H5  UNL     1      22.186  -0.289  25.036  1.00  0.00     0.165 HD
HETATM    8  C10 UNL     1      23.696  -1.482  24.334  1.00  0.00     0.087 A 
HETATM    9  C11 UNL     1      24.128  -2.757  24.134  1.00  0.00     0.001 A 
HETATM   10  C12 UNL     1      25.483  -2.756  23.504  1.00  0.00     0.051 C 
HETATM   11  C13 UNL     1      25.961  -1.356  23.689  1.00  0.00     0.090 C 
HETATM   12  C14 UNL     1      24.725  -0.540  23.854  1.00  0.00     0.176 C 
HETATM   13  O1  UNL     1      24.567   0.673  23.642  1.00  0.00    -0.291 OA
ENDROOT
BRANCH   1  14
HETATM   14  N3  UNL     1      23.752  -4.980  24.312  1.00  0.00    -0.366 N 
ATOM     15  H3  UNL     1      23.573  -5.264  23.349  1.00  0.00     0.165 HD
BRANCH  14  16
HETATM   16  C5  UNL     1      24.434  -5.992  25.006  1.00  0.00     0.081 C 
BRANCH  16  17
HETATM   17  C4  UNL     1      25.767  -5.528  25.565  1.00  0.00     0.171 C 
BRANCH  17  18
HETATM   18  N2  UNL     1      25.777  -5.155  26.930  1.00  0.00    -0.328 N 
HETATM   19  C3  UNL     1      25.488  -6.061  28.028  1.00  0.00     0.148 C 
HETATM   20  C2  UNL     1      26.267  -5.477  29.212  1.00  0.00     0.147 C 
HETATM   21  N1  UNL     1      26.064  -4.055  28.981  1.00  0.00    -0.337 N 
HETATM   22  C1  UNL     1      25.911  -3.010  29.981  1.00  0.00     0.154 C 
HETATM   23  C15 UNL     1      26.050  -3.910  27.567  1.00  0.00     0.320 C 
HETATM   24  O2  UNL     1      26.246  -2.847  26.935  1.00  0.00    -0.247 OA
ENDBRANCH  17  18
ENDBRANCH  16  17
ENDBRANCH  14  16
ENDBRANCH   1  14
TORSDOF 4
ENDMDL
MODEL 4
REMARK VINA RESULT: -6.933960785      3.169      6.615
REMARK  4 active torsions:
REMARK  status: ('A' for Active; 'I' for Inactive)
REMARK    1  A    between atoms: N2_5  and  C4_6 
REMARK    2  A    between atoms: C4_6  and  C5_7 
REMARK    3  A    between atoms: C5_7  and  N3_8 
REMARK    4  A    between atoms: N3_8  and  C6_10 
ROOT
HETATM    1  C6  UNL     1      25.778  -3.913  23.058  1.00  0.00     0.062 A 
HETATM    2  C7  UNL     1      26.795  -3.015  23.285  1.00  0.00     0.087 A 
HETATM    3  C8  UNL     1      28.182  -3.327  23.056  1.00  0.00     0.103 C 
HETATM    4  N4  UNL     1      29.303  -3.548  22.881  1.00  0.00    -0.191 NA
HETATM    5  C9  UNL     1      26.465  -1.744  23.759  1.00  0.00     0.113 A 
HETATM    6  N5  UNL     1      25.184  -1.406  23.988  1.00  0.00    -0.361 N 
ATOM      7  H5  UNL     1      24.970  -0.471  24.334  1.00  0.00     0.165 HD
HETATM    8  C10 UNL     1      24.177  -2.273  23.770  1.00  0.00     0.087 A 
HETATM    9  C11 UNL     1      24.438  -3.527  23.309  1.00  0.00     0.001 A 
HETATM   10  C12 UNL     1      23.169  -4.297  23.146  1.00  0.00     0.051 C 
HETATM   11  C13 UNL     1      22.106  -3.253  23.210  1.00  0.00     0.090 C 
HETATM   12  C14 UNL     1      22.722  -2.116  23.951  1.00  0.00     0.176 C 
HETATM   13  O1  UNL     1      22.155  -1.215  24.590  1.00  0.00    -0.291 OA
ENDROOT
BRANCH   1  14
HETATM   14  N3  UNL     1      25.950  -5.069  22.637  1.00  0.00    -0.366 N 
ATOM     15  H3  UNL     1      25.961  -5.080  21.618  1.00  0.00     0.165 HD
BRANCH  14  16
HETATM   16  C5  UNL     1      26.134  -6.364  23.147  1.00  0.00     0.081 C 
BRANCH  16  17
HETATM   17  C4  UNL     1      27.598  -6.726  23.323  1.00  0.00     0.171 C 
BRANCH  17  18
HETATM   18  N2  UNL     1      28.185  -7.481  22.279  1.00  0.00    -0.328 N 
HETATM   19  C3  UNL     1      28.730  -8.817  22.443  1.00  0.00     0.148 C 
HETATM   20  C2  UNL     1      28.583  -9.455  21.057  1.00  0.00     0.147 C 
HETATM   21  N1  UNL     1      28.909  -8.316  20.211  1.00  0.00    -0.337 N 
HETATM   22  C1  UNL     1      29.611  -8.332  18.937  1.00  0.00     0.154 C 
HETATM   23  C15 UNL     1      28.391  -7.186  20.901  1.00  0.00     0.320 C 
HETATM   24  O2  UNL     1      28.140  -6.068  20.395  1.00  0.00    -0.247 OA
ENDBRANCH  17  18
ENDBRANCH  16  17
ENDBRANCH  14  16
ENDBRANCH   1  14
TORSDOF 4
ENDMDL
MODEL 5
REMARK VINA RESULT: -6.822764674      1.322      2.468
REMARK  4 active torsions:
REMARK  status: ('A' for Active; 'I' for Inactive)
REMARK    1  A    between atoms: N2_5  and  C4_6 
REMARK    2  A    between atoms: C4_6  and  C5_7 
REMARK    3  A    between atoms: C5_7  and  N3_8 
REMARK    4  A    between atoms: N3_8  and  C6_10 
ROOT
HETATM    1  C6  UNL     1      25.944  -3.853  23.085  1.00  0.00     0.062 A 
HETATM    2  C7  UNL     1      26.728  -2.746  23.312  1.00  0.00     0.087 A 
HETATM    3  C8  UNL     1      26.191  -1.481  23.742  1.00  0.00     0.103 C 
HETATM    4  N4  UNL     1      25.791  -0.453  24.087  1.00  0.00    -0.191 NA
HETATM    5  C9  UNL     1      28.106  -2.856  23.118  1.00  0.00     0.113 A 
HETATM    6  N5  UNL     1      28.654  -4.017  22.718  1.00  0.00    -0.361 N 
ATOM      7  H5  UNL     1      29.664  -4.071  22.583  1.00  0.00     0.165 HD
HETATM    8  C10 UNL     1      27.901  -5.110  22.491  1.00  0.00     0.087 A 
HETATM    9  C11 UNL     1      26.552  -5.063  22.663  1.00  0.00     0.001 A 
HETATM   10  C12 UNL     1      25.939  -6.389  22.353  1.00  0.00     0.051 C 
HETATM   11  C13 UNL     1      27.102  -7.323  22.334  1.00  0.00     0.090 C 
HETATM   12  C14 UNL     1      28.287  -6.465  22.054  1.00  0.00     0.176 C 
HETATM   13  O1  UNL     1      29.377  -6.793  21.560  1.00  0.00    -0.291 OA
ENDROOT
BRANCH   1  14
HETATM   14  N3  UNL     1      24.711  -3.874  23.224  1.00  0.00    -0.366 N 
ATOM     15  H3  UNL     1      24.255  -3.402  22.444  1.00  0.00     0.165 HD
BRANCH  14  16
HETATM   16  C5  UNL     1      23.757  -4.355  24.135  1.00  0.00     0.081 C 
BRANCH  16  17
HETATM   17  C4  UNL     1      23.737  -3.573  25.437  1.00  0.00     0.171 C 
BRANCH  17  18
HETATM   18  N2  UNL     1      24.675  -3.971  26.420  1.00  0.00    -0.328 N 
HETATM   19  C3  UNL     1      25.756  -3.132  26.907  1.00  0.00     0.148 C 
HETATM   20  C2  UNL     1      26.012  -3.639  28.331  1.00  0.00     0.147 C 
HETATM   21  N1  UNL     1      25.841  -5.071  28.131  1.00  0.00    -0.337 N 
HETATM   22  C1  UNL     1      26.560  -6.148  28.794  1.00  0.00     0.154 C 
HETATM   23  C15 UNL     1      24.819  -5.186  27.150  1.00  0.00     0.320 C 
HETATM   24  O2  UNL     1      24.122  -6.203  26.932  1.00  0.00    -0.247 OA
ENDBRANCH  17  18
ENDBRANCH  16  17
ENDBRANCH  14  16
ENDBRANCH   1  14
TORSDOF 4
ENDMDL
