MODEL 1
REMARK VINA RESULT: -7.477550102      0.000      0.000
REMARK  3 active torsions:
REMARK  status: ('A' for Active; 'I' for Inactive)
REMARK    1  A    between atoms: C1_2  and  C2_3 
REMARK       I    between atoms: C1_2  and  N3_18 
REMARK    2  A    between atoms: C2_3  and  C3_4 
REMARK    3  A    between atoms: C3_4  and  N1_5 
ROOT
HETATM    1  N1  UNL     1      23.290  -1.647  24.300  1.00  0.00    -0.268 N 
HETATM    2  C4  UNL     1      23.236  -0.336  23.736  1.00  0.00     0.326 C 
HETATM    3  O2  UNL     1      24.229   0.440  23.543  1.00  0.00    -0.247 OA
HETATM    4  N2  UNL     1      21.870  -0.073  23.438  1.00  0.00    -0.324 N 
ATOM      5  H2  UNL     1      21.453   0.845  23.287  1.00  0.00     0.165 HD
HETATM    6  C5  UNL     1      21.189  -1.327  23.389  1.00  0.00     0.116 C 
HETATM    7  C6  UNL     1      19.755  -1.248  23.854  1.00  0.00     0.041 C 
HETATM    8  C7  UNL     1      19.016  -2.416  23.232  1.00  0.00     0.003 C 
HETATM    9  C8  UNL     1      18.755  -2.038  21.780  1.00  0.00     0.000 C 
HETATM   10  C9  UNL     1      20.063  -1.591  21.166  1.00  0.00     0.003 C 
HETATM   11  C10 UNL     1      21.248  -1.975  22.021  1.00  0.00     0.041 C 
HETATM   12  C11 UNL     1      21.958  -2.170  24.340  1.00  0.00     0.256 C 
HETATM   13  O3  UNL     1      21.613  -3.128  25.051  1.00  0.00    -0.270 OA
ENDROOT
BRANCH   1  14
HETATM   14  C3  UNL     1      24.490  -2.324  24.752  1.00  0.00     0.146 C 
BRANCH  14  15
HETATM   15  C2  UNL     1      25.082  -3.046  23.552  1.00  0.00     0.123 C 
BRANCH  15  16
HETATM   16  C1  UNL     1      26.529  -2.761  23.409  1.00  0.00     0.221 C 
HETATM   17  O1  UNL     1      26.887  -1.553  23.422  1.00  0.00    -0.273 OA
HETATM   18  N3  UNL     1      27.455  -3.821  23.264  1.00  0.00    -0.348 N 
HETATM   19  C12 UNL     1      28.867  -3.592  23.123  1.00  0.00     0.152 C 
HETATM   20  C15 UNL     1      26.975  -5.188  23.257  1.00  0.00     0.152 C 
HETATM   21  C13 UNL     1      29.520  -4.565  22.151  1.00  0.00     0.187 C 
HETATM   22  O4  UNL     1      29.001  -5.849  22.298  1.00  0.00    -0.388 OA
HETATM   23  C14 UNL     1      27.627  -5.883  22.081  1.00  0.00     0.187 C 
ENDBRANCH  15  16
ENDBRANCH  14  15
ENDBRANCH   1  14
TORSDOF 3
ENDMDL
MODEL 2
REMARK VINA RESULT: -7.248482877      2.599      6.128
REMARK  3 active torsions:
REMARK  status: ('A' for Active; 'I' for Inactive)
REMARK    1  A    between atoms: C1_2  and  C2_3 
REMARK       I    between atoms: C1_2  and  N3_18 
REMARK    2  A    between atoms: C2_3  and  C3_4 
REMARK    3  A    between atoms: C3_4  and  N1_5 
ROOT
HETATM    1  N1  UNL     1      22.166  -1.038  24.755  1.00  0.00    -0.268 N 
HETATM    2  C4  UNL     1      22.120  -2.098  25.710  1.00  0.00     0.326 C 
HETATM    3  O2  UNL     1      21.090  -2.483  26.356  1.00  0.00    -0.247 OA
HETATM    4  N2  UNL     1      23.436  -2.631  25.795  1.00  0.00    -0.324 N 
ATOM      5  H2  UNL     1      23.808  -3.197  26.558  1.00  0.00     0.165 HD
HETATM    6  C5  UNL     1      24.141  -2.231  24.620  1.00  0.00     0.116 C 
HETATM    7  C6  UNL     1      25.616  -2.008  24.854  1.00  0.00     0.041 C 
HETATM    8  C7  UNL     1      26.312  -2.166  23.517  1.00  0.00     0.003 C 
HETATM    9  C8  UNL     1      26.399  -3.663  23.250  1.00  0.00     0.000 C 
HETATM   10  C9  UNL     1      25.018  -4.255  23.429  1.00  0.00     0.003 C 
HETATM   11  C10 UNL     1      23.948  -3.189  23.462  1.00  0.00     0.041 C 
HETATM   12  C11 UNL     1      23.508  -0.935  24.267  1.00  0.00     0.256 C 
HETATM   13  O3  UNL     1      23.957   0.066  23.685  1.00  0.00    -0.270 OA
ENDROOT
BRANCH   1  14
HETATM   14  C3  UNL     1      21.043  -0.212  24.354  1.00  0.00     0.146 C 
BRANCH  14  15
HETATM   15  C2  UNL     1      20.015  -1.128  23.707  1.00  0.00     0.123 C 
BRANCH  15  16
HETATM   16  C1  UNL     1      20.552  -1.761  22.480  1.00  0.00     0.221 C 
HETATM   17  O1  UNL     1      21.055  -1.004  21.606  1.00  0.00    -0.273 OA
HETATM   18  N3  UNL     1      20.492  -3.165  22.316  1.00  0.00    -0.348 N 
HETATM   19  C12 UNL     1      21.000  -3.823  21.143  1.00  0.00     0.152 C 
HETATM   20  C15 UNL     1      19.900  -3.978  23.359  1.00  0.00     0.152 C 
HETATM   21  C13 UNL     1      20.135  -5.001  20.717  1.00  0.00     0.187 C 
HETATM   22  O4  UNL     1      19.686  -5.723  21.821  1.00  0.00    -0.388 OA
HETATM   23  C14 UNL     1      18.937  -4.934  22.688  1.00  0.00     0.187 C 
ENDBRANCH  15  16
ENDBRANCH  14  15
ENDBRANCH   1  14
TORSDOF 3
ENDMDL
MODEL 3
REMARK VINA RESULT: -7.241675322      1.652      2.123
REMARK  3 active torsions:
REMARK  status: ('A' for Active; 'I' for Inactive)
REMARK    1  A    between atoms: C1_2  and  C2_3 
REMARK       I    between atoms: C1_2  and  N3_18 
REMARK    2  A    between atoms: C2_3  and  C3_4 
REMARK    3  A    between atoms: C3_4  and  N1_5 
ROOT
HETATM    1  N1  UNL     1      22.868  -1.534  25.053  1.00  0.00    -0.268 N 
HETATM    2  C4  UNL     1      23.471  -0.660  24.098  1.00  0.00     0.326 C 
HETATM    3  O2  UNL     1      24.715  -0.396  24.002  1.00  0.00    -0.247 OA
HETATM    4  N2  UNL     1      22.419  -0.148  23.288  1.00  0.00    -0.324 N 
ATOM      5  H2  UNL     1      22.460   0.688  22.706  1.00  0.00     0.165 HD
HETATM    6  C5  UNL     1      21.296  -1.019  23.437  1.00  0.00     0.116 C 
HETATM    7  C6  UNL     1      19.969  -0.306  23.336  1.00  0.00     0.041 C 
HETATM    8  C7  UNL     1      18.935  -1.338  22.934  1.00  0.00     0.003 C 
HETATM    9  C8  UNL     1      19.122  -1.577  21.441  1.00  0.00     0.000 C 
HETATM   10  C9  UNL     1      20.585  -1.874  21.192  1.00  0.00     0.003 C 
HETATM   11  C10 UNL     1      21.324  -2.186  22.472  1.00  0.00     0.041 C 
HETATM   12  C11 UNL     1      21.456  -1.547  24.816  1.00  0.00     0.256 C 
HETATM   13  O3  UNL     1      20.619  -1.936  25.648  1.00  0.00    -0.270 OA
ENDROOT
BRANCH   1  14
HETATM   14  C3  UNL     1      23.570  -2.275  26.082  1.00  0.00     0.146 C 
BRANCH  14  15
HETATM   15  C2  UNL     1      23.589  -3.735  25.656  1.00  0.00     0.123 C 
BRANCH  15  16
HETATM   16  C1  UNL     1      24.893  -4.369  25.960  1.00  0.00     0.221 C 
HETATM   17  O1  UNL     1      25.077  -4.789  27.134  1.00  0.00    -0.273 OA
HETATM   18  N3  UNL     1      25.880  -4.488  24.952  1.00  0.00    -0.348 N 
HETATM   19  C12 UNL     1      27.160  -5.097  25.200  1.00  0.00     0.152 C 
HETATM   20  C15 UNL     1      25.604  -3.984  23.623  1.00  0.00     0.152 C 
HETATM   21  C13 UNL     1      28.290  -4.394  24.461  1.00  0.00     0.187 C 
HETATM   22  O4  UNL     1      27.897  -4.018  23.178  1.00  0.00    -0.388 OA
HETATM   23  C14 UNL     1      26.802  -3.161  23.200  1.00  0.00     0.187 C 
ENDBRANCH  15  16
ENDBRANCH  14  15
ENDBRANCH   1  14
TORSDOF 3
ENDMDL
MODEL 4
REMARK VINA RESULT: -7.222160919      1.689      2.104
REMARK  3 active torsions:
REMARK  status: ('A' for Active; 'I' for Inactive)
REMARK    1  A    between atoms: C1_2  and  C2_3 
REMARK       I    between atoms: C1_2  and  N3_18 
REMARK    2  A    between atoms: C2_3  and  C3_4 
REMARK    3  A    between atoms: C3_4  and  N1_5 
ROOT
HETATM    1  N1  UNL     1      23.769  -3.755  24.911  1.00  0.00    -0.268 N 
HETATM    2  C4  UNL     1      24.031  -2.752  25.894  1.00  0.00     0.326 C 
HETATM    3  O2  UNL     1      25.140  -2.557  26.491  1.00  0.00    -0.247 OA
HETATM    4  N2  UNL     1      22.821  -2.024  26.070  1.00  0.00    -0.324 N 
ATOM      5  H2  UNL     1      22.582  -1.438  26.869  1.00  0.00     0.165 HD
HETATM    6  C5  UNL     1      22.001  -2.265  24.925  1.00  0.00     0.116 C 
HETATM    7  C6  UNL     1      20.524  -2.265  25.236  1.00  0.00     0.041 C 
HETATM    8  C7  UNL     1      19.794  -1.949  23.946  1.00  0.00     0.003 C 
HETATM    9  C8  UNL     1      19.930  -0.447  23.730  1.00  0.00     0.000 C 
HETATM   10  C9  UNL     1      21.394  -0.085  23.847  1.00  0.00     0.003 C 
HETATM   11  C10 UNL     1      22.283  -1.304  23.787  1.00  0.00     0.041 C 
HETATM   12  C11 UNL     1      22.404  -3.629  24.498  1.00  0.00     0.256 C 
HETATM   13  O3  UNL     1      21.774  -4.525  23.912  1.00  0.00    -0.270 OA
ENDROOT
BRANCH   1  14
HETATM   14  C3  UNL     1      24.726  -4.728  24.422  1.00  0.00     0.146 C 
BRANCH  14  15
HETATM   15  C2  UNL     1      25.219  -4.240  23.069  1.00  0.00     0.123 C 
BRANCH  15  16
HETATM   16  C1  UNL     1      26.518  -3.537  23.189  1.00  0.00     0.221 C 
HETATM   17  O1  UNL     1      26.490  -2.303  23.444  1.00  0.00    -0.273 OA
HETATM   18  N3  UNL     1      27.731  -4.246  23.019  1.00  0.00    -0.348 N 
HETATM   19  C12 UNL     1      29.014  -3.606  23.127  1.00  0.00     0.152 C 
HETATM   20  C15 UNL     1      27.691  -5.664  22.726  1.00  0.00     0.152 C 
HETATM   21  C13 UNL     1      30.020  -4.149  22.121  1.00  0.00     0.187 C 
HETATM   22  O4  UNL     1      29.903  -5.531  21.987  1.00  0.00    -0.388 OA
HETATM   23  C14 UNL     1      28.632  -5.907  21.565  1.00  0.00     0.187 C 
ENDBRANCH  15  16
ENDBRANCH  14  15
ENDBRANCH   1  14
TORSDOF 3
ENDMDL
MODEL 5
REMARK VINA RESULT: -7.181622107      3.126      3.904
REMARK  3 active torsions:
REMARK  status: ('A' for Active; 'I' for Inactive)
REMARK    1  A    between atoms: C1_2  and  C2_3 
REMARK       I    between atoms: C1_2  and  N3_18 
REMARK    2  A    between atoms: C2_3  and  C3_4 
REMARK    3  A    between atoms: C3_4  and  N1_5 
ROOT
HETATM    1  N1  UNL     1      22.532  -1.414  24.927  1.00  0.00    -0.268 N 
HETATM    2  C4  UNL     1      23.063  -0.478  23.989  1.00  0.00     0.326 C 
HETATM    3  O2  UNL     1      24.267  -0.062  23.942  1.00  0.00    -0.247 OA
HETATM    4  N2  UNL     1      21.992  -0.106  23.129  1.00  0.00    -0.324 N 
ATOM      5  H2  UNL     1      21.953   0.725  22.540  1.00  0.00     0.165 HD
HETATM    6  C5  UNL     1      20.980  -1.109  23.241  1.00  0.00     0.116 C 
HETATM    7  C6  UNL     1      19.580  -0.567  23.075  1.00  0.00     0.041 C 
HETATM    8  C7  UNL     1      18.701  -1.722  22.641  1.00  0.00     0.003 C 
HETATM    9  C8  UNL     1      18.981  -1.945  21.161  1.00  0.00     0.000 C 
HETATM   10  C9  UNL     1      20.478  -2.059  20.977  1.00  0.00     0.003 C 
HETATM   11  C10 UNL     1      21.194  -2.269  22.290  1.00  0.00     0.041 C 
HETATM   12  C11 UNL     1      21.144  -1.605  24.631  1.00  0.00     0.256 C 
HETATM   13  O3  UNL     1      20.326  -2.089  25.430  1.00  0.00    -0.270 OA
ENDROOT
BRANCH   1  14
HETATM   14  C3  UNL     1      23.275  -2.056  25.993  1.00  0.00     0.146 C 
BRANCH  14  15
HETATM   15  C2  UNL     1      24.122  -3.150  25.361  1.00  0.00     0.123 C 
BRANCH  15  16
HETATM   16  C1  UNL     1      24.155  -4.365  26.207  1.00  0.00     0.221 C 
HETATM   17  O1  UNL     1      23.280  -5.246  25.994  1.00  0.00    -0.273 OA
HETATM   18  N3  UNL     1      25.142  -4.509  27.212  1.00  0.00    -0.348 N 
HETATM   19  C12 UNL     1      25.213  -5.670  28.056  1.00  0.00     0.152 C 
HETATM   20  C15 UNL     1      26.119  -3.457  27.405  1.00  0.00     0.152 C 
HETATM   21  C13 UNL     1      25.608  -5.326  29.486  1.00  0.00     0.187 C 
HETATM   22  O4  UNL     1      26.596  -4.343  29.513  1.00  0.00    -0.388 OA
HETATM   23  C14 UNL     1      26.179  -3.171  28.890  1.00  0.00     0.187 C 
ENDBRANCH  15  16
ENDBRANCH  14  15
ENDBRANCH   1  14
TORSDOF 3
ENDMDL
