MODEL 1
REMARK VINA RESULT: -7.212743420      0.000      0.000
REMARK  3 active torsions:
REMARK  status: ('A' for Active; 'I' for Inactive)
REMARK    1  A    between atoms: S1_2  and  N1_4 
REMARK    2  A    between atoms: S1_2  and  N5_20 
REMARK    3  A    between atoms: C3_8  and  N2_9 
ROOT
HETATM    1  N1  UNL     1      28.223  -5.917  23.257  1.00  0.00    -0.257 N 
ATOM      2  H1  UNL     1      28.502  -6.638  23.923  1.00  0.00     0.181 HD
HETATM    3  C1  UNL     1      27.531  -4.912  23.679  1.00  0.00     0.119 A 
HETATM    4  C2  UNL     1      27.201  -4.862  25.013  1.00  0.00     0.097 A 
HETATM    5  C3  UNL     1      26.471  -3.834  25.542  1.00  0.00     0.107 A 
HETATM    6  N3  UNL     1      26.086  -2.861  24.683  1.00  0.00    -0.339 N 
ATOM      7  H3  UNL     1      25.539  -2.073  25.030  1.00  0.00     0.168 HD
HETATM    8  C9  UNL     1      26.411  -2.917  23.378  1.00  0.00     0.183 A 
HETATM    9  N4  UNL     1      27.127  -3.922  22.852  1.00  0.00    -0.338 N 
ATOM     10  H4  UNL     1      27.359  -3.938  21.858  1.00  0.00     0.168 HD
ENDROOT
BRANCH   1  11
HETATM   11  S1  UNL     1      28.692  -6.083  21.605  1.00  0.00     0.304 S 
HETATM   12  O1  UNL     1      27.512  -5.814  20.718  1.00  0.00    -0.188 OA
HETATM   13  O2  UNL     1      29.787  -5.111  21.343  1.00  0.00    -0.188 OA
BRANCH  11  14
HETATM   14  N5  UNL     1      29.176  -7.717  21.349  1.00  0.00    -0.193 NA
HETATM   15  C10 UNL     1      28.485  -8.241  20.186  1.00  0.00     0.109 C 
HETATM   16  C11 UNL     1      28.792  -9.737  20.326  1.00  0.00     0.017 C 
HETATM   17  C12 UNL     1      28.456  -9.934  21.807  1.00  0.00     0.017 C 
HETATM   18  C13 UNL     1      28.786  -8.591  22.409  1.00  0.00     0.109 C 
ENDBRANCH  11  14
ENDBRANCH   1  11
BRANCH   5  19
HETATM   19  N2  UNL     1      26.155  -3.822  26.927  1.00  0.00    -0.367 N 
HETATM   20  C4  UNL     1      25.710  -5.029  27.539  1.00  0.00     0.124 C 
HETATM   21  C5  UNL     1      25.578  -4.995  29.016  1.00  0.00     0.020 C 
HETATM   22  C6  UNL     1      26.314  -3.867  29.657  1.00  0.00     0.003 C 
HETATM   23  C7  UNL     1      25.793  -2.579  29.005  1.00  0.00     0.020 C 
HETATM   24  C8  UNL     1      26.314  -2.557  27.609  1.00  0.00     0.124 C 
ENDBRANCH   5  19
TORSDOF 3
ENDMDL
MODEL 2
REMARK VINA RESULT: -6.963063734      4.965      7.950
REMARK  3 active torsions:
REMARK  status: ('A' for Active; 'I' for Inactive)
REMARK    1  A    between atoms: S1_2  and  N1_4 
REMARK    2  A    between atoms: S1_2  and  N5_20 
REMARK    3  A    between atoms: C3_8  and  N2_9 
ROOT
HETATM    1  N1  UNL     1      23.169  -2.015  23.495  1.00  0.00    -0.257 N 
ATOM      2  H1  UNL     1      23.100  -2.122  22.482  1.00  0.00     0.181 HD
HETATM    3  C1  UNL     1      24.225  -2.453  24.097  1.00  0.00     0.119 A 
HETATM    4  C2  UNL     1      25.208  -3.046  23.340  1.00  0.00     0.097 A 
HETATM    5  C3  UNL     1      26.356  -3.536  23.898  1.00  0.00     0.107 A 
HETATM    6  N3  UNL     1      26.478  -3.410  25.240  1.00  0.00    -0.339 N 
ATOM      7  H3  UNL     1      27.317  -3.761  25.702  1.00  0.00     0.168 HD
HETATM    8  C9  UNL     1      25.511  -2.831  25.975  1.00  0.00     0.183 A 
HETATM    9  N4  UNL     1      24.382  -2.347  25.436  1.00  0.00    -0.338 N 
ATOM     10  H4  UNL     1      23.666  -1.912  26.017  1.00  0.00     0.168 HD
ENDROOT
BRANCH   1  11
HETATM   11  S1  UNL     1      21.873  -1.256  24.344  1.00  0.00     0.304 S 
HETATM   12  O1  UNL     1      21.309  -2.211  25.356  1.00  0.00    -0.188 OA
HETATM   13  O2  UNL     1      22.413  -0.039  25.005  1.00  0.00    -0.188 OA
BRANCH  11  14
HETATM   14  N5  UNL     1      20.626  -0.903  23.209  1.00  0.00    -0.193 NA
HETATM   15  C10 UNL     1      19.401  -1.558  23.628  1.00  0.00     0.109 C 
HETATM   16  C11 UNL     1      18.548  -1.394  22.364  1.00  0.00     0.017 C 
HETATM   17  C12 UNL     1      19.559  -1.844  21.307  1.00  0.00     0.017 C 
HETATM   18  C13 UNL     1      20.881  -1.437  21.910  1.00  0.00     0.109 C 
ENDBRANCH  11  14
ENDBRANCH   1  11
BRANCH   5  19
HETATM   19  N2  UNL     1      27.347  -4.138  23.077  1.00  0.00    -0.367 N 
HETATM   20  C4  UNL     1      28.655  -3.575  23.056  1.00  0.00     0.124 C 
HETATM   21  C5  UNL     1      29.686  -4.357  22.330  1.00  0.00     0.020 C 
HETATM   22  C6  UNL     1      29.304  -5.781  22.099  1.00  0.00     0.003 C 
HETATM   23  C7  UNL     1      27.966  -5.758  21.348  1.00  0.00     0.020 C 
HETATM   24  C8  UNL     1      26.931  -5.295  22.317  1.00  0.00     0.124 C 
ENDBRANCH   5  19
TORSDOF 3
ENDMDL
MODEL 3
REMARK VINA RESULT: -6.796318120      4.911      7.748
REMARK  3 active torsions:
REMARK  status: ('A' for Active; 'I' for Inactive)
REMARK    1  A    between atoms: S1_2  and  N1_4 
REMARK    2  A    between atoms: S1_2  and  N5_20 
REMARK    3  A    between atoms: C3_8  and  N2_9 
ROOT
HETATM    1  N1  UNL     1      23.238  -2.100  23.639  1.00  0.00    -0.257 N 
ATOM      2  H1  UNL     1      23.237  -2.266  22.633  1.00  0.00     0.181 HD
HETATM    3  C1  UNL     1      24.235  -2.525  24.340  1.00  0.00     0.119 A 
HETATM    4  C2  UNL     1      25.253  -3.185  23.693  1.00  0.00     0.097 A 
HETATM    5  C3  UNL     1      26.345  -3.667  24.359  1.00  0.00     0.107 A 
HETATM    6  N3  UNL     1      26.376  -3.463  25.696  1.00  0.00    -0.339 N 
ATOM      7  H3  UNL     1      27.170  -3.804  26.238  1.00  0.00     0.168 HD
HETATM    8  C9  UNL     1      25.376  -2.817  26.325  1.00  0.00     0.183 A 
HETATM    9  N4  UNL     1      24.302  -2.340  25.678  1.00  0.00    -0.338 N 
ATOM     10  H4  UNL     1      23.558  -1.854  26.180  1.00  0.00     0.168 HD
ENDROOT
BRANCH   1  11
HETATM   11  S1  UNL     1      21.906  -1.260  24.347  1.00  0.00     0.304 S 
HETATM   12  O1  UNL     1      21.235  -2.144  25.358  1.00  0.00    -0.188 OA
HETATM   13  O2  UNL     1      22.435  -0.027  24.987  1.00  0.00    -0.188 OA
BRANCH  11  14
HETATM   14  N5  UNL     1      20.762  -0.929  23.102  1.00  0.00    -0.193 NA
HETATM   15  C10 UNL     1      19.477  -1.489  23.476  1.00  0.00     0.109 C 
HETATM   16  C11 UNL     1      18.723  -1.375  22.145  1.00  0.00     0.017 C 
HETATM   17  C12 UNL     1      19.778  -1.952  21.198  1.00  0.00     0.017 C 
HETATM   18  C13 UNL     1      21.076  -1.569  21.866  1.00  0.00     0.109 C 
ENDBRANCH  11  14
ENDBRANCH   1  11
BRANCH   5  19
HETATM   19  N2  UNL     1      27.374  -4.342  23.649  1.00  0.00    -0.367 N 
HETATM   20  C4  UNL     1      27.321  -5.762  23.548  1.00  0.00     0.124 C 
HETATM   21  C5  UNL     1      28.315  -6.385  22.641  1.00  0.00     0.020 C 
HETATM   22  C6  UNL     1      28.926  -5.426  21.674  1.00  0.00     0.003 C 
HETATM   23  C7  UNL     1      29.541  -4.296  22.510  1.00  0.00     0.020 C 
HETATM   24  C8  UNL     1      28.409  -3.510  23.079  1.00  0.00     0.124 C 
ENDBRANCH   5  19
TORSDOF 3
ENDMDL
MODEL 4
REMARK VINA RESULT: -6.795273690      2.606      3.403
REMARK  3 active torsions:
REMARK  status: ('A' for Active; 'I' for Inactive)
REMARK    1  A    between atoms: S1_2  and  N1_4 
REMARK    2  A    between atoms: S1_2  and  N5_20 
REMARK    3  A    between atoms: C3_8  and  N2_9 
ROOT
HETATM    1  N1  UNL     1      25.892  -5.794  21.909  1.00  0.00    -0.257 N 
ATOM      2  H1  UNL     1      24.923  -6.112  21.889  1.00  0.00     0.181 HD
HETATM    3  C1  UNL     1      26.172  -4.686  22.509  1.00  0.00     0.119 A 
HETATM    4  C2  UNL     1      25.145  -3.983  23.095  1.00  0.00     0.097 A 
HETATM    5  C3  UNL     1      25.355  -2.802  23.750  1.00  0.00     0.107 A 
HETATM    6  N3  UNL     1      26.631  -2.353  23.794  1.00  0.00    -0.339 N 
ATOM      7  H3  UNL     1      26.839  -1.476  24.271  1.00  0.00     0.168 HD
HETATM    8  C9  UNL     1      27.632  -3.045  23.218  1.00  0.00     0.183 A 
HETATM    9  N4  UNL     1      27.435  -4.205  22.574  1.00  0.00    -0.338 N 
ATOM     10  H4  UNL     1      28.212  -4.709  22.146  1.00  0.00     0.168 HD
ENDROOT
BRANCH   1  11
HETATM   11  S1  UNL     1      27.101  -6.757  21.140  1.00  0.00     0.304 S 
HETATM   12  O1  UNL     1      26.443  -7.815  20.303  1.00  0.00    -0.188 OA
HETATM   13  O2  UNL     1      27.933  -5.855  20.299  1.00  0.00    -0.188 OA
BRANCH  11  14
HETATM   14  N5  UNL     1      28.010  -7.553  22.367  1.00  0.00    -0.193 NA
HETATM   15  C10 UNL     1      28.674  -8.708  21.794  1.00  0.00     0.109 C 
HETATM   16  C11 UNL     1      29.138  -9.426  23.067  1.00  0.00     0.017 C 
HETATM   17  C12 UNL     1      27.842  -9.375  23.881  1.00  0.00     0.017 C 
HETATM   18  C13 UNL     1      27.196  -8.097  23.406  1.00  0.00     0.109 C 
ENDBRANCH  11  14
ENDBRANCH   1  11
BRANCH   5  19
HETATM   19  N2  UNL     1      24.265  -2.111  24.341  1.00  0.00    -0.367 N 
HETATM   20  C4  UNL     1      23.861  -0.863  23.786  1.00  0.00     0.124 C 
HETATM   21  C5  UNL     1      22.606  -0.287  24.329  1.00  0.00     0.020 C 
HETATM   22  C6  UNL     1      21.757  -1.279  25.053  1.00  0.00     0.003 C 
HETATM   23  C7  UNL     1      22.636  -1.883  26.156  1.00  0.00     0.020 C 
HETATM   24  C8  UNL     1      23.647  -2.748  25.482  1.00  0.00     0.124 C 
ENDBRANCH   5  19
TORSDOF 3
ENDMDL
MODEL 5
REMARK VINA RESULT: -6.738810961      2.654      3.776
REMARK  3 active torsions:
REMARK  status: ('A' for Active; 'I' for Inactive)
REMARK    1  A    between atoms: S1_2  and  N1_4 
REMARK    2  A    between atoms: S1_2  and  N5_20 
REMARK    3  A    between atoms: C3_8  and  N2_9 
ROOT
HETATM    1  N1  UNL     1      27.066  -5.776  21.501  1.00  0.00    -0.257 N 
ATOM      2  H1  UNL     1      26.330  -5.790  20.795  1.00  0.00     0.181 HD
HETATM    3  C1  UNL     1      26.919  -5.023  22.540  1.00  0.00     0.119 A 
HETATM    4  C2  UNL     1      25.772  -4.272  22.644  1.00  0.00     0.097 A 
HETATM    5  C3  UNL     1      25.537  -3.449  23.710  1.00  0.00     0.107 A 
HETATM    6  N3  UNL     1      26.496  -3.409  24.665  1.00  0.00    -0.339 N 
ATOM      7  H3  UNL     1      26.367  -2.810  25.481  1.00  0.00     0.168 HD
HETATM    8  C9  UNL     1      27.617  -4.146  24.557  1.00  0.00     0.183 A 
HETATM    9  N4  UNL     1      27.854  -4.956  23.515  1.00  0.00    -0.338 N 
ATOM     10  H4  UNL     1      28.713  -5.503  23.459  1.00  0.00     0.168 HD
ENDROOT
BRANCH   1  11
HETATM   11  S1  UNL     1      28.465  -6.760  21.267  1.00  0.00     0.304 S 
HETATM   12  O1  UNL     1      29.676  -5.885  21.123  1.00  0.00    -0.188 OA
HETATM   13  O2  UNL     1      28.593  -7.656  22.447  1.00  0.00    -0.188 OA
BRANCH  11  14
HETATM   14  N5  UNL     1      28.267  -7.625  19.791  1.00  0.00    -0.193 NA
HETATM   15  C10 UNL     1      27.285  -8.675  19.983  1.00  0.00     0.109 C 
HETATM   16  C11 UNL     1      27.494  -9.494  18.703  1.00  0.00     0.017 C 
HETATM   17  C12 UNL     1      29.021  -9.600  18.709  1.00  0.00     0.017 C 
HETATM   18  C13 UNL     1      29.445  -8.320  19.384  1.00  0.00     0.109 C 
ENDBRANCH  11  14
ENDBRANCH   1  11
BRANCH   5  19
HETATM   19  N2  UNL     1      24.337  -2.693  23.777  1.00  0.00    -0.367 N 
HETATM   20  C4  UNL     1      24.410  -1.323  24.161  1.00  0.00     0.124 C 
HETATM   21  C5  UNL     1      23.154  -0.545  24.030  1.00  0.00     0.020 C 
HETATM   22  C6  UNL     1      22.142  -1.189  23.143  1.00  0.00     0.003 C 
HETATM   23  C7  UNL     1      21.892  -2.592  23.712  1.00  0.00     0.020 C 
HETATM   24  C8  UNL     1      23.119  -3.395  23.444  1.00  0.00     0.124 C 
ENDBRANCH   5  19
TORSDOF 3
ENDMDL
