MODEL 1
REMARK VINA RESULT: -7.280473764      0.000      0.000
REMARK  3 active torsions:
REMARK  status: ('A' for Active; 'I' for Inactive)
REMARK    1  A    between atoms: C4_8  and  C5_9 
REMARK    2  A    between atoms: C5_9  and  C6_10 
REMARK    3  A    between atoms: C6_10  and  N3_11 
ROOT
HETATM    1  C6  UNL     1      22.246  -1.773  25.555  1.00  0.00     0.158 C 
ENDROOT
BRANCH   1   2
HETATM    2  C5  UNL     1      20.981  -2.461  25.277  1.00  0.00    -0.012 A 
HETATM    3  C15 UNL     1      20.410  -3.528  26.127  1.00  0.00     0.013 A 
HETATM    4  C16 UNL     1      19.836  -2.174  26.262  1.00  0.00     0.013 A 
BRANCH   2   5
HETATM    5  C4  UNL     1      20.478  -2.456  23.840  1.00  0.00     0.069 C 
HETATM    6  C1  UNL     1      21.003  -3.543  23.017  1.00  0.00     0.101 C 
HETATM    7  N1  UNL     1      21.298  -4.900  23.339  1.00  0.00    -0.087 NA
HETATM    8  N2  UNL     1      21.199  -3.102  21.797  1.00  0.00    -0.319 N 
HETATM    9  C2  UNL     1      20.851  -1.755  21.694  1.00  0.00     0.223 C 
ATOM     10  H2  UNL     1      21.558  -3.667  21.028  1.00  0.00     0.169 HD
HETATM   11  O1  UNL     1      20.527  -1.091  20.696  1.00  0.00    -0.273 OA
HETATM   12  C3  UNL     1      20.947  -1.230  23.098  1.00  0.00     0.115 C 
ENDBRANCH   2   5
ENDBRANCH   1   2
BRANCH   1  13
HETATM   13  N3  UNL     1      23.476  -2.392  25.229  1.00  0.00    -0.264 N 
HETATM   14  N4  UNL     1      23.818  -3.726  25.426  1.00  0.00    -0.136 NA
HETATM   15  C7  UNL     1      24.793  -4.211  24.486  1.00  0.00     0.145 C 
HETATM   16  C8  UNL     1      26.040  -3.425  24.389  1.00  0.00    -0.017 C 
HETATM   17  C9  UNL     1      26.535  -3.509  22.940  1.00  0.00     0.011 C 
HETATM   18  C12 UNL     1      27.147  -4.032  25.229  1.00  0.00     0.011 C 
HETATM   19  C13 UNL     1      25.927  -1.981  24.736  1.00  0.00     0.115 C 
HETATM   20  C10 UNL     1      27.513  -4.648  22.912  1.00  0.00     0.001 C 
HETATM   21  C11 UNL     1      28.005  -4.845  24.319  1.00  0.00     0.001 C 
HETATM   22  C14 UNL     1      24.492  -1.589  24.634  1.00  0.00     0.236 C 
HETATM   23  O2  UNL     1      24.211  -0.524  24.007  1.00  0.00    -0.272 OA
ENDBRANCH   1  13
TORSDOF 3
ENDMDL
MODEL 2
REMARK VINA RESULT: -7.198163565      2.463      6.429
REMARK  3 active torsions:
REMARK  status: ('A' for Active; 'I' for Inactive)
REMARK    1  A    between atoms: C4_8  and  C5_9 
REMARK    2  A    between atoms: C5_9  and  C6_10 
REMARK    3  A    between atoms: C6_10  and  N3_11 
ROOT
HETATM    1  C6  UNL     1      23.603  -2.504  25.762  1.00  0.00     0.158 C 
ENDROOT
BRANCH   1   2
HETATM    2  C5  UNL     1      24.990  -2.842  25.420  1.00  0.00    -0.012 A 
HETATM    3  C15 UNL     1      25.472  -3.079  24.043  1.00  0.00     0.013 A 
HETATM    4  C16 UNL     1      25.766  -1.764  24.646  1.00  0.00     0.013 A 
BRANCH   2   5
HETATM    5  C4  UNL     1      25.853  -3.458  26.512  1.00  0.00     0.069 C 
HETATM    6  C1  UNL     1      25.528  -4.849  26.820  1.00  0.00     0.101 C 
HETATM    7  N1  UNL     1      25.114  -5.920  25.976  1.00  0.00    -0.087 NA
HETATM    8  N2  UNL     1      25.674  -5.049  28.109  1.00  0.00    -0.319 N 
HETATM    9  C2  UNL     1      26.082  -3.879  28.749  1.00  0.00     0.223 C 
ATOM     10  H2  UNL     1      25.512  -5.939  28.579  1.00  0.00     0.169 HD
HETATM   11  O1  UNL     1      26.679  -3.729  29.828  1.00  0.00    -0.273 OA
HETATM   12  C3  UNL     1      25.637  -2.772  27.837  1.00  0.00     0.115 C 
ENDBRANCH   2   5
ENDBRANCH   1   2
BRANCH   1  13
HETATM   13  N3  UNL     1      22.647  -2.315  24.736  1.00  0.00    -0.264 N 
HETATM   14  N4  UNL     1      22.005  -3.305  24.000  1.00  0.00    -0.136 NA
HETATM   15  C7  UNL     1      20.706  -2.911  23.523  1.00  0.00     0.145 C 
HETATM   16  C8  UNL     1      20.660  -1.655  22.745  1.00  0.00    -0.017 C 
HETATM   17  C9  UNL     1      19.311  -0.982  23.022  1.00  0.00     0.011 C 
HETATM   18  C12 UNL     1      20.677  -1.924  21.252  1.00  0.00     0.011 C 
HETATM   19  C13 UNL     1      21.724  -0.660  23.054  1.00  0.00     0.115 C 
HETATM   20  C10 UNL     1      18.398  -1.437  21.920  1.00  0.00     0.001 C 
HETATM   21  C11 UNL     1      19.268  -1.862  20.770  1.00  0.00     0.001 C 
HETATM   22  C14 UNL     1      22.284  -0.979  24.399  1.00  0.00     0.236 C 
HETATM   23  O2  UNL     1      22.424  -0.027  25.224  1.00  0.00    -0.272 OA
ENDBRANCH   1  13
TORSDOF 3
ENDMDL
MODEL 3
REMARK VINA RESULT: -7.168593514      2.131      6.297
REMARK  3 active torsions:
REMARK  status: ('A' for Active; 'I' for Inactive)
REMARK    1  A    between atoms: C4_8  and  C5_9 
REMARK    2  A    between atoms: C5_9  and  C6_10 
REMARK    3  A    between atoms: C6_10  and  N3_11 
ROOT
HETATM    1  C6  UNL     1      24.978  -1.706  24.430  1.00  0.00     0.158 C 
ENDROOT
BRANCH   1   2
HETATM    2  C5  UNL     1      25.728  -2.962  24.321  1.00  0.00    -0.012 A 
HETATM    3  C15 UNL     1      25.820  -3.772  23.087  1.00  0.00     0.013 A 
HETATM    4  C16 UNL     1      26.976  -2.917  23.424  1.00  0.00     0.013 A 
BRANCH   2   5
HETATM    5  C4  UNL     1      26.007  -3.728  25.606  1.00  0.00     0.069 C 
HETATM    6  C1  UNL     1      24.877  -4.520  26.090  1.00  0.00     0.101 C 
HETATM    7  N1  UNL     1      23.885  -5.259  25.384  1.00  0.00    -0.087 NA
HETATM    8  N2  UNL     1      24.861  -4.488  27.402  1.00  0.00    -0.319 N 
HETATM    9  C2  UNL     1      25.912  -3.713  27.892  1.00  0.00     0.223 C 
ATOM     10  H2  UNL     1      24.173  -4.964  27.984  1.00  0.00     0.169 HD
HETATM   11  O1  UNL     1      26.466  -3.736  29.003  1.00  0.00    -0.273 OA
HETATM   12  C3  UNL     1      26.266  -2.793  26.759  1.00  0.00     0.115 C 
ENDBRANCH   2   5
ENDBRANCH   1   2
BRANCH   1  13
HETATM   13  N3  UNL     1      23.582  -1.691  24.197  1.00  0.00    -0.264 N 
HETATM   14  N4  UNL     1      22.924  -2.100  23.042  1.00  0.00    -0.136 NA
HETATM   15  C7  UNL     1      21.584  -2.569  23.283  1.00  0.00     0.145 C 
HETATM   16  C8  UNL     1      20.700  -1.638  24.014  1.00  0.00    -0.017 C 
HETATM   17  C9  UNL     1      19.738  -2.478  24.864  1.00  0.00     0.011 C 
HETATM   18  C12 UNL     1      19.817  -0.849  23.066  1.00  0.00     0.011 C 
HETATM   19  C13 UNL     1      21.378  -0.680  24.930  1.00  0.00     0.115 C 
HETATM   20  C10 UNL     1      18.501  -2.646  24.027  1.00  0.00     0.001 C 
HETATM   21  C11 UNL     1      18.488  -1.525  23.025  1.00  0.00     0.001 C 
HETATM   22  C14 UNL     1      22.736  -1.212  25.239  1.00  0.00     0.236 C 
HETATM   23  O2  UNL     1      23.107  -1.223  26.451  1.00  0.00    -0.272 OA
ENDBRANCH   1  13
TORSDOF 3
ENDMDL
MODEL 4
REMARK VINA RESULT: -7.148529807      1.633      1.714
REMARK  3 active torsions:
REMARK  status: ('A' for Active; 'I' for Inactive)
REMARK    1  A    between atoms: C4_8  and  C5_9 
REMARK    2  A    between atoms: C5_9  and  C6_10 
REMARK    3  A    between atoms: C6_10  and  N3_11 
ROOT
HETATM    1  C6  UNL     1      22.133  -2.132  23.550  1.00  0.00     0.158 C 
ENDROOT
BRANCH   1   2
HETATM    2  C5  UNL     1      21.114  -2.511  24.535  1.00  0.00    -0.012 A 
HETATM    3  C15 UNL     1      21.308  -3.541  25.578  1.00  0.00     0.013 A 
HETATM    4  C16 UNL     1      21.422  -2.128  25.992  1.00  0.00     0.013 A 
BRANCH   2   5
HETATM    5  C4  UNL     1      19.660  -2.221  24.191  1.00  0.00     0.069 C 
HETATM    6  C1  UNL     1      19.013  -3.263  23.397  1.00  0.00     0.101 C 
HETATM    7  N1  UNL     1      19.147  -4.681  23.428  1.00  0.00    -0.087 NA
HETATM    8  N2  UNL     1      18.187  -2.701  22.544  1.00  0.00    -0.319 N 
HETATM    9  C2  UNL     1      18.206  -1.313  22.675  1.00  0.00     0.223 C 
ATOM     10  H2  UNL     1      17.609  -3.212  21.876  1.00  0.00     0.169 HD
HETATM   11  O1  UNL     1      17.347  -0.472  22.362  1.00  0.00    -0.273 OA
HETATM   12  C3  UNL     1      19.536  -1.009  23.302  1.00  0.00     0.115 C 
ENDBRANCH   2   5
ENDBRANCH   1   2
BRANCH   1  13
HETATM   13  N3  UNL     1      23.465  -2.588  23.697  1.00  0.00    -0.264 N 
HETATM   14  N4  UNL     1      23.942  -3.870  23.446  1.00  0.00    -0.136 NA
HETATM   15  C7  UNL     1      25.330  -3.899  23.068  1.00  0.00     0.145 C 
HETATM   16  C8  UNL     1      26.264  -3.233  24.000  1.00  0.00    -0.017 C 
HETATM   17  C9  UNL     1      27.409  -2.641  23.170  1.00  0.00     0.011 C 
HETATM   18  C12 UNL     1      26.919  -4.230  24.937  1.00  0.00     0.011 C 
HETATM   19  C13 UNL     1      25.691  -2.128  24.817  1.00  0.00     0.115 C 
HETATM   20  C10 UNL     1      28.493  -3.681  23.176  1.00  0.00     0.001 C 
HETATM   21  C11 UNL     1      28.262  -4.555  24.378  1.00  0.00     0.001 C 
HETATM   22  C14 UNL     1      24.443  -1.656  24.151  1.00  0.00     0.236 C 
HETATM   23  O2  UNL     1      24.286  -0.407  24.004  1.00  0.00    -0.272 OA
ENDBRANCH   1  13
TORSDOF 3
ENDMDL
MODEL 5
REMARK VINA RESULT: -7.094914902      3.591      5.276
REMARK  3 active torsions:
REMARK  status: ('A' for Active; 'I' for Inactive)
REMARK    1  A    between atoms: C4_8  and  C5_9 
REMARK    2  A    between atoms: C5_9  and  C6_10 
REMARK    3  A    between atoms: C6_10  and  N3_11 
ROOT
HETATM    1  C6  UNL     1      24.266  -3.230  25.579  1.00  0.00     0.158 C 
ENDROOT
BRANCH   1   2
HETATM    2  C5  UNL     1      24.121  -3.569  24.158  1.00  0.00    -0.012 A 
HETATM    3  C15 UNL     1      22.937  -4.242  23.580  1.00  0.00     0.013 A 
HETATM    4  C16 UNL     1      23.045  -2.781  23.393  1.00  0.00     0.013 A 
BRANCH   2   5
HETATM    5  C4  UNL     1      25.393  -3.699  23.332  1.00  0.00     0.069 C 
HETATM    6  C1  UNL     1      26.070  -4.986  23.473  1.00  0.00     0.101 C 
HETATM    7  N1  UNL     1      25.549  -6.303  23.627  1.00  0.00    -0.087 NA
HETATM    8  N2  UNL     1      27.368  -4.795  23.436  1.00  0.00    -0.319 N 
HETATM    9  C2  UNL     1      27.666  -3.441  23.281  1.00  0.00     0.223 C 
ATOM     10  H2  UNL     1      28.065  -5.536  23.510  1.00  0.00     0.169 HD
HETATM   11  O1  UNL     1      28.688  -2.897  22.833  1.00  0.00    -0.273 OA
HETATM   12  C3  UNL     1      26.448  -2.724  23.790  1.00  0.00     0.115 C 
ENDBRANCH   2   5
ENDBRANCH   1   2
BRANCH   1  13
HETATM   13  N3  UNL     1      24.589  -4.239  26.517  1.00  0.00    -0.264 N 
HETATM   14  N4  UNL     1      23.992  -5.489  26.639  1.00  0.00    -0.136 NA
HETATM   15  C7  UNL     1      24.870  -6.490  27.186  1.00  0.00     0.145 C 
HETATM   16  C8  UNL     1      25.504  -6.154  28.477  1.00  0.00    -0.017 C 
HETATM   17  C9  UNL     1      26.890  -6.809  28.502  1.00  0.00     0.011 C 
HETATM   18  C12 UNL     1      24.750  -6.762  29.643  1.00  0.00     0.011 C 
HETATM   19  C13 UNL     1      25.696  -4.702  28.749  1.00  0.00     0.115 C 
HETATM   20  C10 UNL     1      26.701  -8.130  29.192  1.00  0.00     0.001 C 
HETATM   21  C11 UNL     1      25.454  -8.019  30.026  1.00  0.00     0.001 C 
HETATM   22  C14 UNL     1      25.634  -3.973  27.450  1.00  0.00     0.236 C 
HETATM   23  O2  UNL     1      26.535  -3.115  27.208  1.00  0.00    -0.272 OA
ENDBRANCH   1  13
TORSDOF 3
ENDMDL
