MODEL 1
REMARK VINA RESULT: -6.671310039      0.000      0.000
REMARK  3 active torsions:
REMARK  status: ('A' for Active; 'I' for Inactive)
REMARK    1  A    between atoms: N2_7  and  C6_8 
REMARK    2  A    between atoms: C6_8  and  C7_9 
REMARK    3  A    between atoms: C7_9  and  N3_10 
ROOT
HETATM    1  C1  UNL     1      23.048  -1.825  26.284  1.00  0.00     0.155 C 
HETATM    2  N1  UNL     1      24.247  -2.327  25.658  1.00  0.00    -0.329 N 
HETATM    3  C2  UNL     1      24.537  -2.484  24.259  1.00  0.00     0.166 C 
HETATM    4  C3  UNL     1      25.783  -3.363  24.203  1.00  0.00     0.095 C 
HETATM    5  C4  UNL     1      25.422  -4.762  23.896  1.00  0.00     0.061 C 
HETATM    6  C5  UNL     1      25.352  -5.122  22.439  1.00  0.00     0.127 C 
HETATM    7  N2  UNL     1      26.704  -5.536  22.024  1.00  0.00    -0.364 N 
HETATM    8  C11 UNL     1      27.854  -4.752  22.361  1.00  0.00     0.127 A 
HETATM    9  N4  UNL     1      29.104  -5.173  22.141  1.00  0.00    -0.337 N 
ATOM     10  H4  UNL     1      29.375  -6.063  21.724  1.00  0.00     0.168 HD
HETATM   11  C12 UNL     1      29.942  -4.202  22.573  1.00  0.00     0.182 A 
HETATM   12  N5  UNL     1      29.236  -3.162  23.070  1.00  0.00    -0.353 N 
ATOM     13  H5  UNL     1      29.611  -2.300  23.462  1.00  0.00     0.166 HD
HETATM   14  C13 UNL     1      27.935  -3.496  22.941  1.00  0.00     0.057 A 
HETATM   15  C14 UNL     1      26.762  -2.675  23.336  1.00  0.00     0.101 C 
HETATM   16  O1  UNL     1      26.295  -3.336  25.542  1.00  0.00    -0.290 OA
HETATM   17  C15 UNL     1      25.383  -2.766  26.408  1.00  0.00     0.363 C 
HETATM   18  O2  UNL     1      25.540  -2.659  27.648  1.00  0.00    -0.238 OA
ENDROOT
BRANCH   7  19
HETATM   19  C6  UNL     1      26.856  -6.746  21.274  1.00  0.00     0.152 C 
BRANCH  19  20
HETATM   20  C7  UNL     1      26.429  -7.935  22.062  1.00  0.00     0.255 C 
BRANCH  20  21
HETATM   21  N3  UNL     1      27.451  -8.640  22.749  1.00  0.00    -0.077 N 
HETATM   22  C8  UNL     1      26.995 -10.033  22.868  1.00  0.00     0.271 C 
HETATM   23  C9  UNL     1      27.686  -8.183  24.096  1.00  0.00     0.271 C 
HETATM   24  C10 UNL     1      28.727  -8.694  22.080  1.00  0.00     0.271 C 
ENDBRANCH  20  21
ENDBRANCH  19  20
ENDBRANCH   7  19
TORSDOF 3
ENDMDL
MODEL 2
REMARK VINA RESULT: -6.575067483      3.086      4.139
REMARK  3 active torsions:
REMARK  status: ('A' for Active; 'I' for Inactive)
REMARK    1  A    between atoms: N2_7  and  C6_8 
REMARK    2  A    between atoms: C6_8  and  C7_9 
REMARK    3  A    between atoms: C7_9  and  N3_10 
ROOT
HETATM    1  C1  UNL     1      21.943  -0.597  23.665  1.00  0.00     0.155 C 
HETATM    2  N1  UNL     1      23.206  -1.293  23.684  1.00  0.00    -0.329 N 
HETATM    3  C2  UNL     1      23.458  -2.707  23.610  1.00  0.00     0.166 C 
HETATM    4  C3  UNL     1      24.919  -2.876  24.017  1.00  0.00     0.095 C 
HETATM    5  C4  UNL     1      25.021  -3.317  25.424  1.00  0.00     0.061 C 
HETATM    6  C5  UNL     1      24.997  -4.801  25.654  1.00  0.00     0.127 C 
HETATM    7  N2  UNL     1      26.386  -5.282  25.558  1.00  0.00    -0.364 N 
HETATM    8  C11 UNL     1      27.232  -4.890  24.471  1.00  0.00     0.127 A 
HETATM    9  N4  UNL     1      28.537  -5.176  24.432  1.00  0.00    -0.337 N 
ATOM     10  H4  UNL     1      29.063  -5.686  25.141  1.00  0.00     0.168 HD
HETATM   11  C12 UNL     1      29.032  -4.665  23.282  1.00  0.00     0.182 A 
HETATM   12  N5  UNL     1      28.051  -4.051  22.583  1.00  0.00    -0.353 N 
ATOM     13  H5  UNL     1      28.142  -3.580  21.684  1.00  0.00     0.166 HD
HETATM   14  C13 UNL     1      26.927  -4.187  23.316  1.00  0.00     0.057 A 
HETATM   15  C14 UNL     1      25.572  -3.688  22.969  1.00  0.00     0.101 C 
HETATM   16  O1  UNL     1      25.463  -1.552  23.942  1.00  0.00    -0.290 OA
HETATM   17  C15 UNL     1      24.461  -0.615  23.787  1.00  0.00     0.363 C 
HETATM   18  O2  UNL     1      24.638   0.626  23.744  1.00  0.00    -0.238 OA
ENDROOT
BRANCH   7  19
HETATM   19  C6  UNL     1      26.888  -6.154  26.577  1.00  0.00     0.152 C 
BRANCH  19  20
HETATM   20  C7  UNL     1      25.793  -6.659  27.451  1.00  0.00     0.255 C 
BRANCH  20  21
HETATM   21  N3  UNL     1      25.905  -6.372  28.836  1.00  0.00    -0.077 N 
HETATM   22  C8  UNL     1      27.136  -7.026  29.305  1.00  0.00     0.271 C 
HETATM   23  C9  UNL     1      24.838  -6.911  29.642  1.00  0.00     0.271 C 
HETATM   24  C10 UNL     1      26.042  -4.977  29.173  1.00  0.00     0.271 C 
ENDBRANCH  20  21
ENDBRANCH  19  20
ENDBRANCH   7  19
TORSDOF 3
ENDMDL
MODEL 3
REMARK VINA RESULT: -6.441539437      2.207      2.976
REMARK  3 active torsions:
REMARK  status: ('A' for Active; 'I' for Inactive)
REMARK    1  A    between atoms: N2_7  and  C6_8 
REMARK    2  A    between atoms: C6_8  and  C7_9 
REMARK    3  A    between atoms: C7_9  and  N3_10 
ROOT
HETATM    1  C1  UNL     1      23.185  -0.290  23.732  1.00  0.00     0.155 C 
HETATM    2  N1  UNL     1      23.921  -1.474  24.104  1.00  0.00    -0.329 N 
HETATM    3  C2  UNL     1      25.329  -1.620  24.353  1.00  0.00     0.166 C 
HETATM    4  C3  UNL     1      25.581  -3.125  24.362  1.00  0.00     0.095 C 
HETATM    5  C4  UNL     1      26.150  -3.567  23.072  1.00  0.00     0.061 C 
HETATM    6  C5  UNL     1      27.648  -3.523  22.960  1.00  0.00     0.127 C 
HETATM    7  N2  UNL     1      28.162  -4.811  23.459  1.00  0.00    -0.364 N 
HETATM    8  C11 UNL     1      27.701  -5.363  24.697  1.00  0.00     0.127 A 
HETATM    9  N4  UNL     1      28.024  -6.594  25.104  1.00  0.00    -0.337 N 
ATOM     10  H4  UNL     1      28.613  -7.259  24.602  1.00  0.00     0.168 HD
HETATM   11  C12 UNL     1      27.428  -6.798  26.301  1.00  0.00     0.182 A 
HETATM   12  N5  UNL     1      26.723  -5.704  26.663  1.00  0.00    -0.353 N 
ATOM     13  H5  UNL     1      26.176  -5.582  27.515  1.00  0.00     0.166 HD
HETATM   14  C13 UNL     1      26.888  -4.805  25.671  1.00  0.00     0.057 A 
HETATM   15  C14 UNL     1      26.316  -3.435  25.606  1.00  0.00     0.101 C 
HETATM   16  O1  UNL     1      24.274  -3.702  24.475  1.00  0.00    -0.290 OA
HETATM   17  C15 UNL     1      23.295  -2.746  24.285  1.00  0.00     0.363 C 
HETATM   18  O2  UNL     1      22.061  -2.974  24.275  1.00  0.00    -0.238 OA
ENDROOT
BRANCH   7  19
HETATM   19  C6  UNL     1      29.138  -5.513  22.681  1.00  0.00     0.152 C 
BRANCH  19  20
HETATM   20  C7  UNL     1      28.581  -5.950  21.371  1.00  0.00     0.255 C 
BRANCH  20  21
HETATM   21  N3  UNL     1      28.348  -7.341  21.215  1.00  0.00    -0.077 N 
HETATM   22  C8  UNL     1      26.892  -7.536  21.288  1.00  0.00     0.271 C 
HETATM   23  C9  UNL     1      28.911  -8.158  22.260  1.00  0.00     0.271 C 
HETATM   24  C10 UNL     1      28.762  -7.902  19.953  1.00  0.00     0.271 C 
ENDBRANCH  20  21
ENDBRANCH  19  20
ENDBRANCH   7  19
TORSDOF 3
ENDMDL
MODEL 4
REMARK VINA RESULT: -6.428396815      3.115      3.900
REMARK  3 active torsions:
REMARK  status: ('A' for Active; 'I' for Inactive)
REMARK    1  A    between atoms: N2_7  and  C6_8 
REMARK    2  A    between atoms: C6_8  and  C7_9 
REMARK    3  A    between atoms: C7_9  and  N3_10 
ROOT
HETATM    1  C1  UNL     1      21.711  -1.077  23.688  1.00  0.00     0.155 C 
HETATM    2  N1  UNL     1      23.038  -1.642  23.716  1.00  0.00    -0.329 N 
HETATM    3  C2  UNL     1      23.434  -3.021  23.625  1.00  0.00     0.166 C 
HETATM    4  C3  UNL     1      24.899  -3.047  24.053  1.00  0.00     0.095 C 
HETATM    5  C4  UNL     1      25.026  -3.498  25.454  1.00  0.00     0.061 C 
HETATM    6  C5  UNL     1      25.150  -4.981  25.662  1.00  0.00     0.127 C 
HETATM    7  N2  UNL     1      26.582  -5.316  25.581  1.00  0.00    -0.364 N 
HETATM    8  C11 UNL     1      27.399  -4.823  24.513  1.00  0.00     0.127 A 
HETATM    9  N4  UNL     1      28.726  -4.974  24.490  1.00  0.00    -0.337 N 
ATOM     10  H4  UNL     1      29.292  -5.439  25.199  1.00  0.00     0.168 HD
HETATM   11  C12 UNL     1      29.183  -4.396  23.355  1.00  0.00     0.182 A 
HETATM   12  N5  UNL     1      28.154  -3.874  22.651  1.00  0.00    -0.353 N 
ATOM     13  H5  UNL     1      28.210  -3.382  21.760  1.00  0.00     0.166 HD
HETATM   14  C13 UNL     1      27.040  -4.136  23.364  1.00  0.00     0.057 A 
HETATM   15  C14 UNL     1      25.646  -3.772  23.003  1.00  0.00     0.101 C 
HETATM   16  O1  UNL     1      25.306  -1.674  24.006  1.00  0.00    -0.290 OA
HETATM   17  C15 UNL     1      24.215  -0.841  23.848  1.00  0.00     0.363 C 
HETATM   18  O2  UNL     1      24.266   0.412  23.827  1.00  0.00    -0.238 OA
ENDROOT
BRANCH   7  19
HETATM   19  C6  UNL     1      27.156  -6.150  26.594  1.00  0.00     0.152 C 
BRANCH  19  20
HETATM   20  C7  UNL     1      26.405  -6.046  27.876  1.00  0.00     0.255 C 
BRANCH  20  21
HETATM   21  N3  UNL     1      26.087  -7.267  28.525  1.00  0.00    -0.077 N 
HETATM   22  C8  UNL     1      24.976  -6.980  29.445  1.00  0.00     0.271 C 
HETATM   23  C9  UNL     1      27.150  -7.799  29.341  1.00  0.00     0.271 C 
HETATM   24  C10 UNL     1      25.628  -8.327  27.664  1.00  0.00     0.271 C 
ENDBRANCH  20  21
ENDBRANCH  19  20
ENDBRANCH   7  19
TORSDOF 3
ENDMDL
MODEL 5
REMARK VINA RESULT: -6.265126044      1.301      1.730
REMARK  3 active torsions:
REMARK  status: ('A' for Active; 'I' for Inactive)
REMARK    1  A    between atoms: N2_7  and  C6_8 
REMARK    2  A    between atoms: C6_8  and  C7_9 
REMARK    3  A    between atoms: C7_9  and  N3_10 
ROOT
HETATM    1  C1  UNL     1      22.997  -1.797  26.344  1.00  0.00     0.155 C 
HETATM    2  N1  UNL     1      24.180  -2.322  25.706  1.00  0.00    -0.329 N 
HETATM    3  C2  UNL     1      24.444  -2.503  24.305  1.00  0.00     0.166 C 
HETATM    4  C3  UNL     1      25.680  -3.396  24.241  1.00  0.00     0.095 C 
HETATM    5  C4  UNL     1      25.299  -4.796  23.962  1.00  0.00     0.061 C 
HETATM    6  C5  UNL     1      25.199  -5.177  22.512  1.00  0.00     0.127 C 
HETATM    7  N2  UNL     1      26.540  -5.613  22.081  1.00  0.00    -0.364 N 
HETATM    8  C11 UNL     1      27.704  -4.836  22.386  1.00  0.00     0.127 A 
HETATM    9  N4  UNL     1      28.945  -5.273  22.151  1.00  0.00    -0.337 N 
ATOM     10  H4  UNL     1      29.200  -6.173  21.744  1.00  0.00     0.168 HD
HETATM   11  C12 UNL     1      29.801  -4.305  22.553  1.00  0.00     0.182 A 
HETATM   12  N5  UNL     1      29.114  -3.250  23.046  1.00  0.00    -0.353 N 
ATOM     13  H5  UNL     1      29.505  -2.386  23.418  1.00  0.00     0.166 HD
HETATM   14  C13 UNL     1      27.808  -3.572  22.945  1.00  0.00     0.057 A 
HETATM   15  C14 UNL     1      26.651  -2.733  23.347  1.00  0.00     0.101 C 
HETATM   16  O1  UNL     1      26.215  -3.354  25.571  1.00  0.00    -0.290 OA
HETATM   17  C15 UNL     1      25.324  -2.761  26.443  1.00  0.00     0.363 C 
HETATM   18  O2  UNL     1      25.503  -2.636  27.678  1.00  0.00    -0.238 OA
ENDROOT
BRANCH   7  19
HETATM   19  C6  UNL     1      26.667  -6.836  21.348  1.00  0.00     0.152 C 
BRANCH  19  20
HETATM   20  C7  UNL     1      25.406  -7.177  20.633  1.00  0.00     0.255 C 
BRANCH  20  21
HETATM   21  N3  UNL     1      25.122  -8.558  20.472  1.00  0.00    -0.077 N 
HETATM   22  C8  UNL     1      23.923  -8.839  21.276  1.00  0.00     0.271 C 
HETATM   23  C9  UNL     1      26.150  -9.437  20.973  1.00  0.00     0.271 C 
HETATM   24  C10 UNL     1      24.810  -8.977  19.129  1.00  0.00     0.271 C 
ENDBRANCH  20  21
ENDBRANCH  19  20
ENDBRANCH   7  19
TORSDOF 3
ENDMDL
