MODEL 1
REMARK VINA RESULT: -6.706562592      0.000      0.000
REMARK  3 active torsions:
REMARK  status: ('A' for Active; 'I' for Inactive)
REMARK    1  A    between atoms: C2_2  and  N1_3 
REMARK    2  A    between atoms: C9_14  and  C10_15 
REMARK    3  A    between atoms: C10_15  and  N3_16 
ROOT
HETATM    1  N1  UNL     1      22.014  -1.939  25.117  1.00  0.00     0.091 N 
HETATM    2  C3  UNL     1      20.891  -2.325  25.921  1.00  0.00     0.280 C 
HETATM    3  C4  UNL     1      20.584  -3.799  25.731  1.00  0.00     0.112 C 
HETATM    4  C5  UNL     1      21.826  -4.499  25.355  1.00  0.00     0.166 C 
HETATM    5  O1  UNL     1      22.258  -5.405  26.016  1.00  0.00    -0.295 OA
HETATM    6  C6  UNL     1      22.536  -4.059  24.132  1.00  0.00     0.181 C 
HETATM    7  C7  UNL     1      22.034  -2.644  23.856  1.00  0.00     0.319 C 
HETATM    8  N2  UNL     1      22.290  -4.930  23.014  1.00  0.00    -0.336 N 
ATOM      9  H2  UNL     1      21.386  -5.344  22.783  1.00  0.00     0.164 HD
HETATM   10  C8  UNL     1      23.485  -5.128  22.282  1.00  0.00     0.232 C 
HETATM   11  O2  UNL     1      23.660  -5.793  21.221  1.00  0.00    -0.273 OA
HETATM   12  C9  UNL     1      24.581  -4.404  22.969  1.00  0.00     0.178 C 
HETATM   13  C16 UNL     1      23.999  -4.090  24.283  1.00  0.00     0.179 C 
HETATM   14  O3  UNL     1      24.613  -3.894  25.302  1.00  0.00    -0.294 OA
ENDROOT
BRANCH   1  15
HETATM   15  C2  UNL     1      21.956  -0.516  24.817  1.00  0.00     0.268 C 
HETATM   16  C1  UNL     1      22.942  -0.154  23.704  1.00  0.00     0.037 C 
ENDBRANCH   1  15
BRANCH  12  17
HETATM   17  C10 UNL     1      25.819  -5.271  23.101  1.00  0.00     0.294 C 
BRANCH  17  18
HETATM   18  N3  UNL     1      26.930  -4.810  22.338  1.00  0.00     0.089 N 
HETATM   19  C11 UNL     1      27.522  -3.625  22.906  1.00  0.00     0.272 C 
HETATM   20  C12 UNL     1      28.801  -4.026  23.611  1.00  0.00     0.030 C 
HETATM   21  C13 UNL     1      29.806  -4.409  22.562  1.00  0.00     0.003 C 
HETATM   22  C14 UNL     1      29.203  -5.423  21.652  1.00  0.00     0.030 C 
HETATM   23  C15 UNL     1      27.838  -5.885  22.102  1.00  0.00     0.272 C 
ENDBRANCH  17  18
ENDBRANCH  12  17
TORSDOF 3
ENDMDL
MODEL 2
REMARK VINA RESULT: -6.612238890      2.187      6.437
REMARK  3 active torsions:
REMARK  status: ('A' for Active; 'I' for Inactive)
REMARK    1  A    between atoms: C2_2  and  N1_3 
REMARK    2  A    between atoms: C9_14  and  C10_15 
REMARK    3  A    between atoms: C10_15  and  N3_16 
ROOT
HETATM    1  N1  UNL     1      25.672  -5.257  23.626  1.00  0.00     0.091 N 
HETATM    2  C3  UNL     1      26.986  -5.584  24.096  1.00  0.00     0.280 C 
HETATM    3  C4  UNL     1      27.620  -4.383  24.775  1.00  0.00     0.112 C 
HETATM    4  C5  UNL     1      26.552  -3.526  25.321  1.00  0.00     0.166 C 
HETATM    5  O1  UNL     1      26.500  -3.263  26.493  1.00  0.00    -0.295 OA
HETATM    6  C6  UNL     1      25.536  -2.990  24.386  1.00  0.00     0.181 C 
HETATM    7  C7  UNL     1      25.597  -3.893  23.157  1.00  0.00     0.319 C 
HETATM    8  N2  UNL     1      25.784  -1.616  24.040  1.00  0.00    -0.336 N 
ATOM      9  H2  UNL     1      26.704  -1.217  23.849  1.00  0.00     0.164 HD
HETATM   10  C8  UNL     1      24.565  -0.899  24.004  1.00  0.00     0.232 C 
HETATM   11  O2  UNL     1      24.370   0.314  23.703  1.00  0.00    -0.273 OA
HETATM   12  C9  UNL     1      23.468  -1.817  24.394  1.00  0.00     0.178 C 
HETATM   13  C16 UNL     1      24.186  -2.965  24.968  1.00  0.00     0.179 C 
HETATM   14  O3  UNL     1      23.744  -3.746  25.774  1.00  0.00    -0.294 OA
ENDROOT
BRANCH   1  15
HETATM   15  C2  UNL     1      25.305  -6.119  22.512  1.00  0.00     0.268 C 
HETATM   16  C1  UNL     1      26.387  -6.100  21.430  1.00  0.00     0.037 C 
ENDBRANCH   1  15
BRANCH  12  17
HETATM   17  C10 UNL     1      22.541  -1.174  25.409  1.00  0.00     0.294 C 
BRANCH  17  18
HETATM   18  N3  UNL     1      21.178  -1.136  25.002  1.00  0.00     0.089 N 
HETATM   19  C11 UNL     1      20.977  -0.277  23.862  1.00  0.00     0.272 C 
HETATM   20  C12 UNL     1      20.807  -1.149  22.635  1.00  0.00     0.030 C 
HETATM   21  C13 UNL     1      19.480  -1.844  22.743  1.00  0.00     0.003 C 
HETATM   22  C14 UNL     1      19.391  -2.529  24.064  1.00  0.00     0.030 C 
HETATM   23  C15 UNL     1      20.676  -2.464  24.853  1.00  0.00     0.272 C 
ENDBRANCH  17  18
ENDBRANCH  12  17
TORSDOF 3
ENDMDL
MODEL 3
REMARK VINA RESULT: -6.554709347      1.910      2.367
REMARK  3 active torsions:
REMARK  status: ('A' for Active; 'I' for Inactive)
REMARK    1  A    between atoms: C2_2  and  N1_3 
REMARK    2  A    between atoms: C9_14  and  C10_15 
REMARK    3  A    between atoms: C10_15  and  N3_16 
ROOT
HETATM    1  N1  UNL     1      20.901  -2.477  23.736  1.00  0.00     0.091 N 
HETATM    2  C3  UNL     1      20.080  -1.876  24.745  1.00  0.00     0.280 C 
HETATM    3  C4  UNL     1      20.682  -2.098  26.121  1.00  0.00     0.112 C 
HETATM    4  C5  UNL     1      22.142  -2.243  25.984  1.00  0.00     0.166 C 
HETATM    5  O1  UNL     1      22.901  -1.505  26.554  1.00  0.00    -0.295 OA
HETATM    6  C6  UNL     1      22.661  -3.330  25.120  1.00  0.00     0.181 C 
HETATM    7  C7  UNL     1      21.502  -3.707  24.200  1.00  0.00     0.319 C 
HETATM    8  N2  UNL     1      23.115  -4.462  25.881  1.00  0.00    -0.336 N 
ATOM      9  H2  UNL     1      22.645  -4.842  26.704  1.00  0.00     0.164 HD
HETATM   10  C8  UNL     1      24.311  -4.972  25.322  1.00  0.00     0.232 C 
HETATM   11  O2  UNL     1      24.986  -5.978  25.685  1.00  0.00    -0.273 OA
HETATM   12  C9  UNL     1      24.697  -4.115  24.176  1.00  0.00     0.178 C 
HETATM   13  C16 UNL     1      23.848  -2.926  24.352  1.00  0.00     0.179 C 
HETATM   14  O3  UNL     1      24.085  -1.819  23.938  1.00  0.00    -0.294 OA
ENDROOT
BRANCH   1  15
HETATM   15  C2  UNL     1      20.104  -2.801  22.562  1.00  0.00     0.268 C 
HETATM   16  C1  UNL     1      20.502  -1.921  21.375  1.00  0.00     0.037 C 
ENDBRANCH   1  15
BRANCH  12  17
HETATM   17  C10 UNL     1      26.171  -3.759  24.223  1.00  0.00     0.294 C 
BRANCH  17  18
HETATM   18  N3  UNL     1      26.846  -3.934  22.981  1.00  0.00     0.089 N 
HETATM   19  C11 UNL     1      28.179  -3.384  23.009  1.00  0.00     0.272 C 
HETATM   20  C12 UNL     1      29.161  -4.530  23.143  1.00  0.00     0.030 C 
HETATM   21  C13 UNL     1      29.161  -5.292  21.848  1.00  0.00     0.003 C 
HETATM   22  C14 UNL     1      27.760  -5.656  21.494  1.00  0.00     0.030 C 
HETATM   23  C15 UNL     1      26.764  -5.298  22.570  1.00  0.00     0.272 C 
ENDBRANCH  17  18
ENDBRANCH  12  17
TORSDOF 3
ENDMDL
MODEL 4
REMARK VINA RESULT: -6.532247756      4.429      6.898
REMARK  3 active torsions:
REMARK  status: ('A' for Active; 'I' for Inactive)
REMARK    1  A    between atoms: C2_2  and  N1_3 
REMARK    2  A    between atoms: C9_14  and  C10_15 
REMARK    3  A    between atoms: C10_15  and  N3_16 
ROOT
HETATM    1  N1  UNL     1      26.659  -7.989  27.426  1.00  0.00     0.091 N 
HETATM    2  C3  UNL     1      26.529  -8.868  28.551  1.00  0.00     0.280 C 
HETATM    3  C4  UNL     1      26.056  -8.100  29.772  1.00  0.00     0.112 C 
HETATM    4  C5  UNL     1      25.276  -6.931  29.327  1.00  0.00     0.166 C 
HETATM    5  O1  UNL     1      24.134  -6.775  29.669  1.00  0.00    -0.295 OA
HETATM    6  C6  UNL     1      25.935  -5.944  28.441  1.00  0.00     0.181 C 
HETATM    7  C7  UNL     1      27.122  -6.679  27.823  1.00  0.00     0.319 C 
HETATM    8  N2  UNL     1      26.360  -4.769  29.153  1.00  0.00    -0.336 N 
ATOM      9  H2  UNL     1      26.785  -4.769  30.081  1.00  0.00     0.164 HD
HETATM   10  C8  UNL     1      26.101  -3.614  28.379  1.00  0.00     0.232 C 
HETATM   11  O2  UNL     1      26.368  -2.407  28.647  1.00  0.00    -0.273 OA
HETATM   12  C9  UNL     1      25.430  -4.030  27.124  1.00  0.00     0.178 C 
HETATM   13  C16 UNL     1      25.032  -5.418  27.406  1.00  0.00     0.179 C 
HETATM   14  O3  UNL     1      24.125  -6.015  26.882  1.00  0.00    -0.294 OA
ENDROOT
BRANCH   1  15
HETATM   15  C2  UNL     1      27.628  -8.521  26.478  1.00  0.00     0.268 C 
HETATM   16  C1  UNL     1      28.813  -9.154  27.209  1.00  0.00     0.037 C 
ENDBRANCH   1  15
BRANCH  12  17
HETATM   17  C10 UNL     1      24.227  -3.155  26.823  1.00  0.00     0.294 C 
BRANCH  17  18
HETATM   18  N3  UNL     1      24.127  -2.761  25.459  1.00  0.00     0.089 N 
HETATM   19  C11 UNL     1      22.784  -2.375  25.105  1.00  0.00     0.272 C 
HETATM   20  C12 UNL     1      22.728  -0.863  25.034  1.00  0.00     0.030 C 
HETATM   21  C13 UNL     1      23.510  -0.427  23.828  1.00  0.00     0.003 C 
HETATM   22  C14 UNL     1      24.868  -1.041  23.875  1.00  0.00     0.030 C 
HETATM   23  C15 UNL     1      25.133  -1.795  25.156  1.00  0.00     0.272 C 
ENDBRANCH  17  18
ENDBRANCH  12  17
TORSDOF 3
ENDMDL
MODEL 5
REMARK VINA RESULT: -6.518455453      2.047      3.186
REMARK  3 active torsions:
REMARK  status: ('A' for Active; 'I' for Inactive)
REMARK    1  A    between atoms: C2_2  and  N1_3 
REMARK    2  A    between atoms: C9_14  and  C10_15 
REMARK    3  A    between atoms: C10_15  and  N3_16 
ROOT
HETATM    1  N1  UNL     1      21.084  -3.833  24.519  1.00  0.00     0.091 N 
HETATM    2  C3  UNL     1      20.152  -3.077  25.302  1.00  0.00     0.280 C 
HETATM    3  C4  UNL     1      20.885  -2.223  26.321  1.00  0.00     0.112 C 
HETATM    4  C5  UNL     1      22.231  -1.914  25.804  1.00  0.00     0.166 C 
HETATM    5  O1  UNL     1      22.596  -0.780  25.648  1.00  0.00    -0.295 OA
HETATM    6  C6  UNL     1      23.132  -3.044  25.478  1.00  0.00     0.181 C 
HETATM    7  C7  UNL     1      22.221  -4.256  25.305  1.00  0.00     0.319 C 
HETATM    8  N2  UNL     1      24.116  -3.270  26.502  1.00  0.00    -0.336 N 
ATOM      9  H2  UNL     1      23.937  -3.222  27.506  1.00  0.00     0.164 HD
HETATM   10  C8  UNL     1      25.368  -3.567  25.913  1.00  0.00     0.232 C 
HETATM   11  O2  UNL     1      26.458  -3.861  26.482  1.00  0.00    -0.273 OA
HETATM   12  C9  UNL     1      25.226  -3.484  24.441  1.00  0.00     0.178 C 
HETATM   13  C16 UNL     1      23.935  -2.799  24.271  1.00  0.00     0.179 C 
HETATM   14  O3  UNL     1      23.598  -2.150  23.311  1.00  0.00    -0.294 OA
ENDROOT
BRANCH   1  15
HETATM   15  C2  UNL     1      20.448  -5.034  23.997  1.00  0.00     0.268 C 
HETATM   16  C1  UNL     1      20.757  -6.242  24.883  1.00  0.00     0.037 C 
ENDBRANCH   1  15
BRANCH  12  17
HETATM   17  C10 UNL     1      26.362  -2.695  23.818  1.00  0.00     0.294 C 
BRANCH  17  18
HETATM   18  N3  UNL     1      27.076  -3.407  22.813  1.00  0.00     0.089 N 
HETATM   19  C11 UNL     1      28.496  -3.416  23.061  1.00  0.00     0.272 C 
HETATM   20  C12 UNL     1      28.875  -4.780  23.602  1.00  0.00     0.030 C 
HETATM   21  C13 UNL     1      28.745  -5.772  22.482  1.00  0.00     0.003 C 
HETATM   22  C14 UNL     1      27.389  -5.651  21.874  1.00  0.00     0.030 C 
HETATM   23  C15 UNL     1      26.490  -4.694  22.617  1.00  0.00     0.272 C 
ENDBRANCH  17  18
ENDBRANCH  12  17
TORSDOF 3
ENDMDL
