MODEL 1
REMARK VINA RESULT: -7.127212467      0.000      0.000
REMARK  3 active torsions:
REMARK  status: ('A' for Active; 'I' for Inactive)
REMARK    1  A    between atoms: N2_12  and  C9_13 
REMARK    2  A    between atoms: C9_13  and  C10_14 
REMARK    3  A    between atoms: C10_14  and  N3_15 
ROOT
HETATM    1  C1  UNL     1      29.754  -4.170  22.463  1.00  0.00     0.054 C 
HETATM    2  C2  UNL     1      28.268  -4.168  22.626  1.00  0.00     0.007 A 
HETATM    3  C3  UNL     1      27.574  -3.119  23.176  1.00  0.00     0.025 A 
HETATM    4  C4  UNL     1      26.176  -3.129  23.332  1.00  0.00    -0.014 A 
HETATM    5  C5  UNL     1      25.598  -4.309  22.872  1.00  0.00     0.034 A 
HETATM    6  N1  UNL     1      26.257  -5.321  22.343  1.00  0.00    -0.325 N 
ATOM      7  H1  UNL     1      25.738  -6.143  22.035  1.00  0.00     0.169 HD
HETATM    8  C6  UNL     1      27.607  -5.299  22.197  1.00  0.00     0.251 A 
HETATM    9  O1  UNL     1      28.171  -6.297  21.685  1.00  0.00    -0.268 OA
HETATM   10  C7  UNL     1      24.110  -4.575  22.947  1.00  0.00     0.162 C 
HETATM   11  C8  UNL     1      23.526  -3.612  23.842  1.00  0.00    -0.067 C 
HETATM   12  N2  UNL     1      23.382  -2.548  24.657  1.00  0.00    -0.347 N 
HETATM   13  C16 UNL     1      24.609  -1.812  24.917  1.00  0.00     0.160 C 
HETATM   14  C17 UNL     1      25.697  -1.899  23.931  1.00  0.00     0.007 C 
ENDROOT
BRANCH  12  15
HETATM   15  C9  UNL     1      22.198  -1.780  24.532  1.00  0.00     0.151 C 
BRANCH  15  16
HETATM   16  C10 UNL     1      22.009  -1.554  23.035  1.00  0.00     0.137 C 
BRANCH  16  17
HETATM   17  N3  UNL     1      20.675  -1.665  22.577  1.00  0.00    -0.407 N 
HETATM   18  C11 UNL     1      20.498  -1.589  21.156  1.00  0.00     0.147 C 
HETATM   19  C12 UNL     1      20.424  -2.948  20.498  1.00  0.00     0.291 C 
HETATM   20  N4  UNL     1      20.902  -3.950  21.399  1.00  0.00     0.087 N 
HETATM   21  C13 UNL     1      20.856  -5.239  20.753  1.00  0.00     0.310 C 
HETATM   22  C14 UNL     1      19.979  -4.011  22.522  1.00  0.00     0.291 C 
HETATM   23  C15 UNL     1      19.923  -2.672  23.231  1.00  0.00     0.147 C 
ENDBRANCH  16  17
ENDBRANCH  15  16
ENDBRANCH  12  15
TORSDOF 3
ENDMDL
MODEL 2
REMARK VINA RESULT: -7.117482612      1.429      1.826
REMARK  3 active torsions:
REMARK  status: ('A' for Active; 'I' for Inactive)
REMARK    1  A    between atoms: N2_12  and  C9_13 
REMARK    2  A    between atoms: C9_13  and  C10_14 
REMARK    3  A    between atoms: C10_14  and  N3_15 
ROOT
HETATM    1  C1  UNL     1      29.862  -4.541  22.403  1.00  0.00     0.054 C 
HETATM    2  C2  UNL     1      28.404  -4.297  22.626  1.00  0.00     0.007 A 
HETATM    3  C3  UNL     1      27.903  -3.100  23.070  1.00  0.00     0.025 A 
HETATM    4  C4  UNL     1      26.529  -2.882  23.285  1.00  0.00    -0.014 A 
HETATM    5  C5  UNL     1      25.761  -4.008  22.998  1.00  0.00     0.034 A 
HETATM    6  N1  UNL     1      26.235  -5.161  22.570  1.00  0.00    -0.325 N 
ATOM      7  H1  UNL     1      25.587  -5.926  22.387  1.00  0.00     0.169 HD
HETATM    8  C6  UNL     1      27.564  -5.358  22.367  1.00  0.00     0.251 A 
HETATM    9  O1  UNL     1      27.947  -6.482  21.958  1.00  0.00    -0.268 OA
HETATM   10  C7  UNL     1      24.257  -4.037  23.167  1.00  0.00     0.162 C 
HETATM   11  C8  UNL     1      23.872  -2.902  23.960  1.00  0.00    -0.067 C 
HETATM   12  N2  UNL     1      23.931  -1.741  24.643  1.00  0.00    -0.347 N 
HETATM   13  C16 UNL     1      25.264  -1.172  24.760  1.00  0.00     0.160 C 
HETATM   14  C17 UNL     1      26.268  -1.534  23.747  1.00  0.00     0.007 C 
ENDROOT
BRANCH  12  15
HETATM   15  C9  UNL     1      22.864  -0.824  24.474  1.00  0.00     0.151 C 
BRANCH  15  16
HETATM   16  C10 UNL     1      21.920  -1.471  23.464  1.00  0.00     0.137 C 
BRANCH  16  17
HETATM   17  N3  UNL     1      20.586  -1.628  23.908  1.00  0.00    -0.407 N 
HETATM   18  C11 UNL     1      19.780  -2.535  23.144  1.00  0.00     0.147 C 
HETATM   19  C12 UNL     1      19.729  -3.923  23.740  1.00  0.00     0.291 C 
HETATM   20  N4  UNL     1      20.771  -4.075  24.706  1.00  0.00     0.087 N 
HETATM   21  C13 UNL     1      20.734  -5.411  25.248  1.00  0.00     0.310 C 
HETATM   22  C14 UNL     1      20.489  -3.167  25.808  1.00  0.00     0.291 C 
HETATM   23  C15 UNL     1      20.455  -1.734  25.315  1.00  0.00     0.147 C 
ENDBRANCH  16  17
ENDBRANCH  15  16
ENDBRANCH  12  15
TORSDOF 3
ENDMDL
MODEL 3
REMARK VINA RESULT: -7.115275111      0.784      1.010
REMARK  3 active torsions:
REMARK  status: ('A' for Active; 'I' for Inactive)
REMARK    1  A    between atoms: N2_12  and  C9_13 
REMARK    2  A    between atoms: C9_13  and  C10_14 
REMARK    3  A    between atoms: C10_14  and  N3_15 
ROOT
HETATM    1  C1  UNL     1      29.733  -4.567  22.252  1.00  0.00     0.054 C 
HETATM    2  C2  UNL     1      28.269  -4.390  22.495  1.00  0.00     0.007 A 
HETATM    3  C3  UNL     1      27.733  -3.260  23.059  1.00  0.00     0.025 A 
HETATM    4  C4  UNL     1      26.354  -3.105  23.292  1.00  0.00    -0.014 A 
HETATM    5  C5  UNL     1      25.619  -4.216  22.888  1.00  0.00     0.034 A 
HETATM    6  N1  UNL     1      26.125  -5.305  22.345  1.00  0.00    -0.325 N 
ATOM      7  H1  UNL     1      25.499  -6.066  22.083  1.00  0.00     0.169 HD
HETATM    8  C6  UNL     1      27.459  -5.442  22.126  1.00  0.00     0.251 A 
HETATM    9  O1  UNL     1      27.874  -6.506  21.605  1.00  0.00    -0.268 OA
HETATM   10  C7  UNL     1      24.116  -4.306  23.049  1.00  0.00     0.162 C 
HETATM   11  C8  UNL     1      23.699  -3.270  23.954  1.00  0.00    -0.067 C 
HETATM   12  N2  UNL     1      23.725  -2.184  24.754  1.00  0.00    -0.347 N 
HETATM   13  C16 UNL     1      25.041  -1.592  24.931  1.00  0.00     0.160 C 
HETATM   14  C17 UNL     1      26.055  -1.819  23.890  1.00  0.00     0.007 C 
ENDROOT
BRANCH  12  15
HETATM   15  C9  UNL     1      22.632  -1.286  24.677  1.00  0.00     0.151 C 
BRANCH  15  16
HETATM   16  C10 UNL     1      21.389  -2.122  24.972  1.00  0.00     0.137 C 
BRANCH  16  17
HETATM   17  N3  UNL     1      20.226  -1.733  24.267  1.00  0.00    -0.407 N 
HETATM   18  C11 UNL     1      20.443  -0.889  23.128  1.00  0.00     0.147 C 
HETATM   19  C12 UNL     1      20.500  -1.657  21.829  1.00  0.00     0.291 C 
HETATM   20  N4  UNL     1      20.679  -3.050  22.095  1.00  0.00     0.087 N 
HETATM   21  C13 UNL     1      20.764  -3.771  20.849  1.00  0.00     0.310 C 
HETATM   22  C14 UNL     1      19.485  -3.526  22.776  1.00  0.00     0.291 C 
HETATM   23  C15 UNL     1      19.288  -2.778  24.080  1.00  0.00     0.147 C 
ENDBRANCH  16  17
ENDBRANCH  15  16
ENDBRANCH  12  15
TORSDOF 3
ENDMDL
MODEL 4
REMARK VINA RESULT: -7.037766498      1.717      3.162
REMARK  3 active torsions:
REMARK  status: ('A' for Active; 'I' for Inactive)
REMARK    1  A    between atoms: N2_12  and  C9_13 
REMARK    2  A    between atoms: C9_13  and  C10_14 
REMARK    3  A    between atoms: C10_14  and  N3_15 
ROOT
HETATM    1  C1  UNL     1      27.184  -8.302  20.428  1.00  0.00     0.054 C 
HETATM    2  C2  UNL     1      27.205  -7.009  21.177  1.00  0.00     0.007 A 
HETATM    3  C3  UNL     1      26.107  -6.496  21.820  1.00  0.00     0.025 A 
HETATM    4  C4  UNL     1      26.135  -5.273  22.516  1.00  0.00    -0.014 A 
HETATM    5  C5  UNL     1      27.385  -4.663  22.470  1.00  0.00     0.034 A 
HETATM    6  N1  UNL     1      28.445  -5.149  21.855  1.00  0.00    -0.325 N 
ATOM      7  H1  UNL     1      29.318  -4.623  21.881  1.00  0.00     0.169 HD
HETATM    8  C6  UNL     1      28.405  -6.331  21.186  1.00  0.00     0.251 A 
HETATM    9  O1  UNL     1      29.452  -6.736  20.622  1.00  0.00    -0.268 OA
HETATM   10  C7  UNL     1      27.669  -3.328  23.125  1.00  0.00     0.162 C 
HETATM   11  C8  UNL     1      26.412  -2.710  23.448  1.00  0.00    -0.067 C 
HETATM   12  N2  UNL     1      25.089  -2.521  23.625  1.00  0.00    -0.347 N 
HETATM   13  C16 UNL     1      24.253  -3.623  23.177  1.00  0.00     0.160 C 
HETATM   14  C17 UNL     1      24.847  -4.967  23.108  1.00  0.00     0.007 C 
ENDROOT
BRANCH  12  15
HETATM   15  C9  UNL     1      24.673  -1.849  24.801  1.00  0.00     0.151 C 
BRANCH  15  16
HETATM   16  C10 UNL     1      23.361  -2.511  25.213  1.00  0.00     0.137 C 
BRANCH  16  17
HETATM   17  N3  UNL     1      22.332  -1.616  25.591  1.00  0.00    -0.407 N 
HETATM   18  C11 UNL     1      22.291  -0.378  24.870  1.00  0.00     0.147 C 
HETATM   19  C12 UNL     1      21.313  -0.399  23.718  1.00  0.00     0.291 C 
HETATM   20  N4  UNL     1      20.943  -1.747  23.420  1.00  0.00     0.087 N 
HETATM   21  C13 UNL     1      20.034  -1.760  22.300  1.00  0.00     0.310 C 
HETATM   22  C14 UNL     1      20.208  -2.266  24.563  1.00  0.00     0.291 C 
HETATM   23  C15 UNL     1      21.077  -2.238  25.805  1.00  0.00     0.147 C 
ENDBRANCH  16  17
ENDBRANCH  15  16
ENDBRANCH  12  15
TORSDOF 3
ENDMDL
MODEL 5
REMARK VINA RESULT: -6.893215484      1.644      2.476
REMARK  3 active torsions:
REMARK  status: ('A' for Active; 'I' for Inactive)
REMARK    1  A    between atoms: N2_12  and  C9_13 
REMARK    2  A    between atoms: C9_13  and  C10_14 
REMARK    3  A    between atoms: C10_14  and  N3_15 
ROOT
HETATM    1  C1  UNL     1      28.808  -3.397  22.979  1.00  0.00     0.054 C 
HETATM    2  C2  UNL     1      27.319  -3.521  23.046  1.00  0.00     0.007 A 
HETATM    3  C3  UNL     1      26.502  -2.515  23.498  1.00  0.00     0.025 A 
HETATM    4  C4  UNL     1      25.103  -2.644  23.564  1.00  0.00    -0.014 A 
HETATM    5  C5  UNL     1      24.661  -3.890  23.125  1.00  0.00     0.034 A 
HETATM    6  N1  UNL     1      25.440  -4.860  22.689  1.00  0.00    -0.325 N 
ATOM      7  H1  UNL     1      25.017  -5.737  22.388  1.00  0.00     0.169 HD
HETATM    8  C6  UNL     1      26.790  -4.723  22.630  1.00  0.00     0.251 A 
HETATM    9  O1  UNL     1      27.472  -5.687  22.204  1.00  0.00    -0.268 OA
HETATM   10  C7  UNL     1      23.200  -4.284  23.117  1.00  0.00     0.162 C 
HETATM   11  C8  UNL     1      22.476  -3.341  23.925  1.00  0.00    -0.067 C 
HETATM   12  N2  UNL     1      22.185  -2.260  24.677  1.00  0.00    -0.347 N 
HETATM   13  C16 UNL     1      23.323  -1.407  24.980  1.00  0.00     0.160 C 
HETATM   14  C17 UNL     1      24.479  -1.437  24.071  1.00  0.00     0.007 C 
ENDROOT
BRANCH  12  15
HETATM   15  C9  UNL     1      20.950  -1.607  24.439  1.00  0.00     0.151 C 
BRANCH  15  16
HETATM   16  C10 UNL     1      20.803  -1.542  22.921  1.00  0.00     0.137 C 
BRANCH  16  17
HETATM   17  N3  UNL     1      19.827  -2.410  22.378  1.00  0.00    -0.407 N 
HETATM   18  C11 UNL     1      18.776  -2.801  23.272  1.00  0.00     0.147 C 
HETATM   19  C12 UNL     1      17.535  -1.951  23.130  1.00  0.00     0.291 C 
HETATM   20  N4  UNL     1      17.843  -0.760  22.401  1.00  0.00     0.087 N 
HETATM   21  C13 UNL     1      16.660   0.059  22.297  1.00  0.00     0.310 C 
HETATM   22  C14 UNL     1      18.204  -1.151  21.047  1.00  0.00     0.291 C 
HETATM   23  C15 UNL     1      19.414  -2.065  21.067  1.00  0.00     0.147 C 
ENDBRANCH  16  17
ENDBRANCH  15  16
ENDBRANCH  12  15
TORSDOF 3
ENDMDL
