MODEL 1
REMARK VINA RESULT: -7.815546518      0.000      0.000
REMARK  5 active torsions:
REMARK  status: ('A' for Active; 'I' for Inactive)
REMARK    1  A    between atoms: C2_2  and  C3_3 
REMARK    2  A    between atoms: C3_3  and  C5_5 
REMARK    3  A    between atoms: C5_5  and  N1_6 
REMARK    4  A    between atoms: C5_5  and  C14_16 
REMARK    5  A    between atoms: N1_6  and  C6_8 
REMARK       I    between atoms: C14_16  and  N2_18 
ROOT
HETATM    1  C14 UNL     1       9.553  24.827  -6.199  1.00  0.00     0.271 C 
HETATM    2  O1  UNL     1      10.651  25.077  -5.570  1.00  0.00    -0.266 OA
HETATM    3  N2  UNL     1       9.669  24.811  -7.594  1.00  0.00    -0.330 N 
HETATM    4  C15 UNL     1       8.789  24.307  -8.633  1.00  0.00     0.128 C 
HETATM    5  C16 UNL     1       9.780  23.326  -9.294  1.00  0.00     0.023 C 
HETATM    6  C17 UNL     1      11.100  24.108  -9.202  1.00  0.00     0.042 C 
HETATM    7  C18 UNL     1      10.714  25.382  -8.429  1.00  0.00     0.195 C 
HETATM    8  C19 UNL     1      11.807  26.015  -7.750  1.00  0.00     0.084 C 
HETATM    9  N3  UNL     1      12.663  26.541  -7.221  1.00  0.00    -0.195 NA
ENDROOT
BRANCH   1  10
HETATM   10  C5  UNL     1       8.316  24.589  -5.443  1.00  0.00     0.099 C 
BRANCH  10  11
HETATM   11  C3  UNL     1       8.189  25.353  -4.153  1.00  0.00    -0.052 C 
HETATM   12  C4  UNL     1       7.784  26.774  -4.406  1.00  0.00     0.046 C 
BRANCH  11  13
HETATM   13  C2  UNL     1       7.547  24.671  -3.018  1.00  0.00     0.031 C 
HETATM   14  C1  UNL     1       7.602  25.503  -1.728  1.00  0.00     0.010 C 
ENDBRANCH  11  13
ENDBRANCH  10  11
BRANCH  10  15
HETATM   15  N1  UNL     1       7.116  24.369  -6.064  1.00  0.00    -0.381 N 
ATOM     16  H1  UNL     1       6.638  25.214  -6.376  1.00  0.00     0.160 HD
BRANCH  15  17
HETATM   17  C6  UNL     1       6.446  23.198  -6.337  1.00  0.00     0.082 C 
HETATM   18  C7  UNL     1       7.234  21.918  -6.265  1.00  0.00     0.025 C 
HETATM   19  C8  UNL     1       6.237  20.772  -6.174  1.00  0.00     0.006 C 
HETATM   20  C9  UNL     1       5.488  20.799  -4.867  1.00  0.00    -0.015 C 
HETATM   21  C10 UNL     1       6.036  19.739  -3.952  1.00  0.00     0.010 C 
HETATM   22  C11 UNL     1       5.556  22.192  -4.262  1.00  0.00    -0.013 C 
HETATM   23  C12 UNL     1       4.557  22.302  -3.125  1.00  0.00     0.010 C 
HETATM   24  C13 UNL     1       5.238  23.140  -5.394  1.00  0.00     0.029 C 
ENDBRANCH  15  17
ENDBRANCH  10  15
ENDBRANCH   1  10
TORSDOF 5
ENDMDL
MODEL 2
REMARK VINA RESULT: -7.740039300      2.227      6.638
REMARK  5 active torsions:
REMARK  status: ('A' for Active; 'I' for Inactive)
REMARK    1  A    between atoms: C2_2  and  C3_3 
REMARK    2  A    between atoms: C3_3  and  C5_5 
REMARK    3  A    between atoms: C5_5  and  N1_6 
REMARK    4  A    between atoms: C5_5  and  C14_16 
REMARK    5  A    between atoms: N1_6  and  C6_8 
REMARK       I    between atoms: C14_16  and  N2_18 
ROOT
HETATM    1  C14 UNL     1       6.299  23.569  -5.633  1.00  0.00     0.271 C 
HETATM    2  O1  UNL     1       6.054  24.740  -5.150  1.00  0.00    -0.266 OA
HETATM    3  N2  UNL     1       5.900  22.504  -4.817  1.00  0.00    -0.330 N 
HETATM    4  C15 UNL     1       5.727  21.088  -5.089  1.00  0.00     0.128 C 
HETATM    5  C16 UNL     1       4.245  20.972  -4.676  1.00  0.00     0.023 C 
HETATM    6  C17 UNL     1       4.185  21.912  -3.462  1.00  0.00     0.042 C 
HETATM    7  C18 UNL     1       5.603  22.507  -3.394  1.00  0.00     0.195 C 
HETATM    8  C19 UNL     1       5.682  23.771  -2.722  1.00  0.00     0.084 C 
HETATM    9  N3  UNL     1       5.767  24.763  -2.177  1.00  0.00    -0.195 NA
ENDROOT
BRANCH   1  10
HETATM   10  C5  UNL     1       6.951  23.442  -6.944  1.00  0.00     0.099 C 
BRANCH  10  11
HETATM   11  C3  UNL     1       6.023  23.410  -8.128  1.00  0.00    -0.052 C 
HETATM   12  C4  UNL     1       6.779  23.586  -9.410  1.00  0.00     0.046 C 
BRANCH  11  13
HETATM   13  C2  UNL     1       4.947  22.407  -8.123  1.00  0.00     0.031 C 
HETATM   14  C1  UNL     1       5.376  21.085  -8.777  1.00  0.00     0.010 C 
ENDBRANCH  11  13
ENDBRANCH  10  11
BRANCH  10  15
HETATM   15  N1  UNL     1       8.158  24.029  -7.216  1.00  0.00    -0.381 N 
ATOM     16  H1  UNL     1       8.093  24.939  -7.673  1.00  0.00     0.160 HD
BRANCH  15  17
HETATM   17  C6  UNL     1       9.443  23.598  -6.976  1.00  0.00     0.082 C 
HETATM   18  C7  UNL     1      10.076  22.705  -8.009  1.00  0.00     0.025 C 
HETATM   19  C8  UNL     1      11.577  22.714  -7.762  1.00  0.00     0.006 C 
HETATM   20  C9  UNL     1      12.173  24.067  -8.053  1.00  0.00    -0.015 C 
HETATM   21  C10 UNL     1      12.891  24.027  -9.373  1.00  0.00     0.010 C 
HETATM   22  C11 UNL     1      11.087  25.130  -8.005  1.00  0.00    -0.013 C 
HETATM   23  C12 UNL     1      11.725  26.507  -7.986  1.00  0.00     0.010 C 
HETATM   24  C13 UNL     1      10.301  24.848  -6.746  1.00  0.00     0.029 C 
ENDBRANCH  15  17
ENDBRANCH  10  15
ENDBRANCH   1  10
TORSDOF 5
ENDMDL
MODEL 3
REMARK VINA RESULT: -7.576349742      2.165      6.067
REMARK  5 active torsions:
REMARK  status: ('A' for Active; 'I' for Inactive)
REMARK    1  A    between atoms: C2_2  and  C3_3 
REMARK    2  A    between atoms: C3_3  and  C5_5 
REMARK    3  A    between atoms: C5_5  and  N1_6 
REMARK    4  A    between atoms: C5_5  and  C14_16 
REMARK    5  A    between atoms: N1_6  and  C6_8 
REMARK       I    between atoms: C14_16  and  N2_18 
ROOT
HETATM    1  C14 UNL     1       6.854  24.090  -5.536  1.00  0.00     0.271 C 
HETATM    2  O1  UNL     1       7.094  25.357  -5.567  1.00  0.00    -0.266 OA
HETATM    3  N2  UNL     1       6.670  23.560  -4.254  1.00  0.00    -0.330 N 
HETATM    4  C15 UNL     1       6.114  22.298  -3.799  1.00  0.00     0.128 C 
HETATM    5  C16 UNL     1       4.995  22.868  -2.903  1.00  0.00     0.023 C 
HETATM    6  C17 UNL     1       5.683  24.095  -2.287  1.00  0.00     0.042 C 
HETATM    7  C18 UNL     1       7.063  24.118  -2.971  1.00  0.00     0.195 C 
HETATM    8  C19 UNL     1       7.688  25.409  -2.995  1.00  0.00     0.084 C 
HETATM    9  N3  UNL     1       8.208  26.418  -3.007  1.00  0.00    -0.195 NA
ENDROOT
BRANCH   1  10
HETATM   10  C5  UNL     1       6.796  23.327  -6.791  1.00  0.00     0.099 C 
BRANCH  10  11
HETATM   11  C3  UNL     1       5.677  22.325  -6.888  1.00  0.00    -0.052 C 
HETATM   12  C4  UNL     1       4.545  22.859  -7.714  1.00  0.00     0.046 C 
BRANCH  11  13
HETATM   13  C2  UNL     1       6.042  20.914  -7.092  1.00  0.00     0.031 C 
HETATM   14  C1  UNL     1       5.151  19.956  -6.288  1.00  0.00     0.010 C 
ENDBRANCH  11  13
ENDBRANCH  10  11
BRANCH  10  15
HETATM   15  N1  UNL     1       7.131  23.883  -7.996  1.00  0.00    -0.381 N 
ATOM     16  H1  UNL     1       6.653  24.758  -8.208  1.00  0.00     0.160 HD
BRANCH  15  17
HETATM   17  C6  UNL     1       8.008  23.459  -8.970  1.00  0.00     0.082 C 
HETATM   18  C7  UNL     1       8.661  24.516  -9.819  1.00  0.00     0.025 C 
HETATM   19  C8  UNL     1       9.864  23.878 -10.497  1.00  0.00     0.006 C 
HETATM   20  C9  UNL     1      10.932  23.519  -9.496  1.00  0.00    -0.015 C 
HETATM   21  C10 UNL     1      12.048  24.524  -9.570  1.00  0.00     0.010 C 
HETATM   22  C11 UNL     1      10.323  23.416  -8.107  1.00  0.00    -0.013 C 
HETATM   23  C12 UNL     1      11.315  22.759  -7.165  1.00  0.00     0.010 C 
HETATM   24  C13 UNL     1       9.067  22.594  -8.276  1.00  0.00     0.029 C 
ENDBRANCH  15  17
ENDBRANCH  10  15
ENDBRANCH   1  10
TORSDOF 5
ENDMDL
MODEL 4
REMARK VINA RESULT: -7.535075215      1.708      2.835
REMARK  5 active torsions:
REMARK  status: ('A' for Active; 'I' for Inactive)
REMARK    1  A    between atoms: C2_2  and  C3_3 
REMARK    2  A    between atoms: C3_3  and  C5_5 
REMARK    3  A    between atoms: C5_5  and  N1_6 
REMARK    4  A    between atoms: C5_5  and  C14_16 
REMARK    5  A    between atoms: N1_6  and  C6_8 
REMARK       I    between atoms: C14_16  and  N2_18 
ROOT
HETATM    1  C14 UNL     1       7.637  23.672  -5.020  1.00  0.00     0.271 C 
HETATM    2  O1  UNL     1       8.854  23.522  -4.619  1.00  0.00    -0.266 OA
HETATM    3  N2  UNL     1       7.459  23.561  -6.405  1.00  0.00    -0.330 N 
HETATM    4  C15 UNL     1       6.270  23.379  -7.216  1.00  0.00     0.128 C 
HETATM    5  C16 UNL     1       6.694  22.077  -7.927  1.00  0.00     0.023 C 
HETATM    6  C17 UNL     1       8.195  22.318  -8.148  1.00  0.00     0.042 C 
HETATM    7  C18 UNL     1       8.449  23.673  -7.463  1.00  0.00     0.195 C 
HETATM    8  C19 UNL     1       9.808  23.882  -7.054  1.00  0.00     0.084 C 
HETATM    9  N3  UNL     1      10.882  24.074  -6.740  1.00  0.00    -0.195 NA
ENDROOT
BRANCH   1  10
HETATM   10  C5  UNL     1       6.573  23.938  -4.042  1.00  0.00     0.099 C 
BRANCH  10  11
HETATM   11  C3  UNL     1       6.663  25.262  -3.332  1.00  0.00    -0.052 C 
HETATM   12  C4  UNL     1       7.163  25.088  -1.930  1.00  0.00     0.046 C 
BRANCH  11  13
HETATM   13  C2  UNL     1       7.192  26.407  -4.090  1.00  0.00     0.031 C 
HETATM   14  C1  UNL     1       8.455  27.000  -3.450  1.00  0.00     0.010 C 
ENDBRANCH  11  13
ENDBRANCH  10  11
BRANCH  10  15
HETATM   15  N1  UNL     1       5.287  23.511  -4.233  1.00  0.00    -0.381 N 
ATOM     16  H1  UNL     1       4.664  24.208  -4.640  1.00  0.00     0.160 HD
BRANCH  15  17
HETATM   17  C6  UNL     1       4.693  22.297  -3.969  1.00  0.00     0.082 C 
HETATM   18  C7  UNL     1       3.931  21.643  -5.089  1.00  0.00     0.025 C 
HETATM   19  C8  UNL     1       3.745  20.178  -4.721  1.00  0.00     0.006 C 
HETATM   20  C9  UNL     1       5.060  19.443  -4.712  1.00  0.00    -0.015 C 
HETATM   21  C10 UNL     1       5.174  18.603  -5.954  1.00  0.00     0.010 C 
HETATM   22  C11 UNL     1       6.203  20.433  -4.565  1.00  0.00    -0.013 C 
HETATM   23  C12 UNL     1       7.485  19.686  -4.245  1.00  0.00     0.010 C 
HETATM   24  C13 UNL     1       5.791  21.363  -3.447  1.00  0.00     0.029 C 
ENDBRANCH  15  17
ENDBRANCH  10  15
ENDBRANCH   1  10
TORSDOF 5
ENDMDL
MODEL 5
REMARK VINA RESULT: -7.467906271      6.077     10.377
REMARK  5 active torsions:
REMARK  status: ('A' for Active; 'I' for Inactive)
REMARK    1  A    between atoms: C2_2  and  C3_3 
REMARK    2  A    between atoms: C3_3  and  C5_5 
REMARK    3  A    between atoms: C5_5  and  N1_6 
REMARK    4  A    between atoms: C5_5  and  C14_16 
REMARK    5  A    between atoms: N1_6  and  C6_8 
REMARK       I    between atoms: C14_16  and  N2_18 
ROOT
HETATM    1  C14 UNL     1       3.486  15.976  -4.436  1.00  0.00     0.271 C 
HETATM    2  O1  UNL     1       2.495  16.733  -4.107  1.00  0.00    -0.266 OA
HETATM    3  N2  UNL     1       3.473  14.705  -3.848  1.00  0.00    -0.330 N 
HETATM    4  C15 UNL     1       4.203  13.488  -4.155  1.00  0.00     0.128 C 
HETATM    5  C16 UNL     1       2.989  12.565  -4.388  1.00  0.00     0.023 C 
HETATM    6  C17 UNL     1       2.008  13.062  -3.315  1.00  0.00     0.042 C 
HETATM    7  C18 UNL     1       2.746  14.252  -2.674  1.00  0.00     0.195 C 
HETATM    8  C19 UNL     1       1.885  15.207  -2.040  1.00  0.00     0.084 C 
HETATM    9  N3  UNL     1       1.222  15.966  -1.517  1.00  0.00    -0.195 NA
ENDROOT
BRANCH   1  10
HETATM   10  C5  UNL     1       4.512  16.477  -5.361  1.00  0.00     0.099 C 
BRANCH  10  11
HETATM   11  C3  UNL     1       4.156  16.409  -6.822  1.00  0.00    -0.052 C 
HETATM   12  C4  UNL     1       5.350  16.694  -7.682  1.00  0.00     0.046 C 
BRANCH  11  13
HETATM   13  C2  UNL     1       3.269  15.318  -7.256  1.00  0.00     0.031 C 
HETATM   14  C1  UNL     1       2.263  15.771  -8.324  1.00  0.00     0.010 C 
ENDBRANCH  11  13
ENDBRANCH  10  11
BRANCH  10  15
HETATM   15  N1  UNL     1       5.317  17.539  -5.048  1.00  0.00    -0.381 N 
ATOM     16  H1  UNL     1       6.311  17.383  -5.218  1.00  0.00     0.160 HD
BRANCH  15  17
HETATM   17  C6  UNL     1       5.010  18.782  -4.542  1.00  0.00     0.082 C 
HETATM   18  C7  UNL     1       5.979  19.387  -3.562  1.00  0.00     0.025 C 
HETATM   19  C8  UNL     1       5.676  20.876  -3.481  1.00  0.00     0.006 C 
HETATM   20  C9  UNL     1       6.002  21.574  -4.775  1.00  0.00    -0.015 C 
HETATM   21  C10 UNL     1       7.292  22.333  -4.626  1.00  0.00     0.010 C 
HETATM   22  C11 UNL     1       6.042  20.564  -5.910  1.00  0.00    -0.013 C 
HETATM   23  C12 UNL     1       6.058  21.294  -7.241  1.00  0.00     0.010 C 
HETATM   24  C13 UNL     1       4.802  19.716  -5.741  1.00  0.00     0.029 C 
ENDBRANCH  15  17
ENDBRANCH  10  15
ENDBRANCH   1  10
TORSDOF 5
ENDMDL
