MODEL 1
REMARK VINA RESULT: -8.100197302      0.000      0.000
REMARK  5 active torsions:
REMARK  status: ('A' for Active; 'I' for Inactive)
REMARK    1  A    between atoms: N1_2  and  C2_3 
REMARK    2  A    between atoms: N1_2  and  C15_20 
REMARK    3  A    between atoms: C5_6  and  C6_7 
REMARK       I    between atoms: C6_7  and  N2_9 
REMARK    4  A    between atoms: N2_9  and  C7_11 
REMARK    5  A    between atoms: C7_11  and  C8_12 
ROOT
HETATM    1  C2  UNL     1       5.881  21.495  -5.396  1.00  0.00     0.082 C 
HETATM    2  C3  UNL     1       5.973  20.967  -6.838  1.00  0.00     0.053 C 
HETATM    3  C4  UNL     1       5.223  19.686  -6.806  1.00  0.00    -0.012 C 
HETATM    4  C5  UNL     1       5.467  18.877  -5.807  1.00  0.00     0.006 C 
HETATM    5  C13 UNL     1       6.459  19.199  -4.739  1.00  0.00     0.046 C 
HETATM    6  C14 UNL     1       6.796  20.645  -4.589  1.00  0.00     0.030 C 
ENDROOT
BRANCH   4   7
HETATM    7  C6  UNL     1       4.778  17.614  -5.703  1.00  0.00     0.247 C 
HETATM    8  O1  UNL     1       4.460  17.026  -6.798  1.00  0.00    -0.268 OA
HETATM    9  N2  UNL     1       4.462  17.040  -4.461  1.00  0.00    -0.357 N 
ATOM     10  H2  UNL     1       4.711  17.505  -3.589  1.00  0.00     0.162 HD
BRANCH   9  11
HETATM   11  C7  UNL     1       3.767  15.758  -4.456  1.00  0.00     0.127 C 
BRANCH  11  12
HETATM   12  C8  UNL     1       2.383  15.924  -3.869  1.00  0.00     0.007 C 
HETATM   13  C9  UNL     1       2.287  15.290  -2.494  1.00  0.00     0.032 C 
HETATM   14  C10 UNL     1       0.893  15.538  -1.977  1.00  0.00     0.168 C 
HETATM   15  O2  UNL     1       0.124  16.287  -2.874  1.00  0.00    -0.391 OA
HETATM   16  C11 UNL     1      -0.026  15.586  -4.079  1.00  0.00     0.168 C 
HETATM   17  C12 UNL     1       1.312  15.312  -4.727  1.00  0.00     0.032 C 
ENDBRANCH  11  12
ENDBRANCH   9  11
ENDBRANCH   4   7
BRANCH   1  18
HETATM   18  N1  UNL     1       6.117  22.868  -5.383  1.00  0.00    -0.408 N 
HETATM   19  C1  UNL     1       6.444  23.413  -6.638  1.00  0.00     0.144 C 
BRANCH  18  20
HETATM   20  C15 UNL     1       5.780  23.700  -4.340  1.00  0.00     0.079 C 
HETATM   21  C16 UNL     1       5.216  23.005  -3.107  1.00  0.00     0.025 C 
HETATM   22  C17 UNL     1       5.547  23.917  -1.942  1.00  0.00     0.002 C 
HETATM   23  C18 UNL     1       6.510  24.962  -2.435  1.00  0.00     0.002 C 
HETATM   24  C19 UNL     1       7.045  24.305  -3.709  1.00  0.00     0.025 C 
ENDBRANCH  18  20
ENDBRANCH   1  18
TORSDOF 5
ENDMDL
MODEL 2
REMARK VINA RESULT: -8.011274923      6.306      9.157
REMARK  5 active torsions:
REMARK  status: ('A' for Active; 'I' for Inactive)
REMARK    1  A    between atoms: N1_2  and  C2_3 
REMARK    2  A    between atoms: N1_2  and  C15_20 
REMARK    3  A    between atoms: C5_6  and  C6_7 
REMARK       I    between atoms: C6_7  and  N2_9 
REMARK    4  A    between atoms: N2_9  and  C7_11 
REMARK    5  A    between atoms: C7_11  and  C8_12 
ROOT
HETATM    1  C2  UNL     1      12.323  24.135  -8.725  1.00  0.00     0.082 C 
HETATM    2  C3  UNL     1      11.012  24.612  -9.374  1.00  0.00     0.053 C 
HETATM    3  C4  UNL     1      10.229  25.170  -8.242  1.00  0.00    -0.012 C 
HETATM    4  C5  UNL     1      10.183  24.465  -7.142  1.00  0.00     0.006 C 
HETATM    5  C13 UNL     1      10.872  23.146  -7.006  1.00  0.00     0.046 C 
HETATM    6  C14 UNL     1      11.983  22.899  -7.972  1.00  0.00     0.030 C 
ENDROOT
BRANCH   4   7
HETATM    7  C6  UNL     1       9.446  24.939  -5.997  1.00  0.00     0.247 C 
HETATM    8  O1  UNL     1      10.125  25.322  -4.979  1.00  0.00    -0.268 OA
HETATM    9  N2  UNL     1       8.042  24.986  -5.985  1.00  0.00    -0.357 N 
ATOM     10  H2  UNL     1       7.499  24.680  -6.792  1.00  0.00     0.162 HD
BRANCH   9  11
HETATM   11  C7  UNL     1       7.384  25.484  -4.782  1.00  0.00     0.127 C 
BRANCH  11  12
HETATM   12  C8  UNL     1       6.458  24.427  -4.225  1.00  0.00     0.007 C 
HETATM   13  C9  UNL     1       6.295  24.571  -2.723  1.00  0.00     0.032 C 
HETATM   14  C10 UNL     1       5.332  23.506  -2.267  1.00  0.00     0.168 C 
HETATM   15  O2  UNL     1       4.855  22.735  -3.333  1.00  0.00    -0.391 OA
HETATM   16  C11 UNL     1       5.917  22.062  -3.951  1.00  0.00     0.168 C 
HETATM   17  C12 UNL     1       6.941  23.031  -4.498  1.00  0.00     0.032 C 
ENDBRANCH  11  12
ENDBRANCH   9  11
ENDBRANCH   4   7
BRANCH   1  18
HETATM   18  N1  UNL     1      13.316  24.029  -9.697  1.00  0.00    -0.408 N 
HETATM   19  C1  UNL     1      12.853  23.608 -10.956  1.00  0.00     0.144 C 
BRANCH  18  20
HETATM   20  C15 UNL     1      14.579  24.563  -9.573  1.00  0.00     0.079 C 
HETATM   21  C16 UNL     1      14.652  25.906  -8.857  1.00  0.00     0.025 C 
HETATM   22  C17 UNL     1      16.042  25.968  -8.256  1.00  0.00     0.002 C 
HETATM   23  C18 UNL     1      16.656  24.600  -8.376  1.00  0.00     0.002 C 
HETATM   24  C19 UNL     1      15.418  23.729  -8.592  1.00  0.00     0.025 C 
ENDBRANCH  18  20
ENDBRANCH   1  18
TORSDOF 5
ENDMDL
MODEL 3
REMARK VINA RESULT: -7.971062118      6.670      9.515
REMARK  5 active torsions:
REMARK  status: ('A' for Active; 'I' for Inactive)
REMARK    1  A    between atoms: N1_2  and  C2_3 
REMARK    2  A    between atoms: N1_2  and  C15_20 
REMARK    3  A    between atoms: C5_6  and  C6_7 
REMARK       I    between atoms: C6_7  and  N2_9 
REMARK    4  A    between atoms: N2_9  and  C7_11 
REMARK    5  A    between atoms: C7_11  and  C8_12 
ROOT
HETATM    1  C2  UNL     1      12.740  23.870  -8.396  1.00  0.00     0.082 C 
HETATM    2  C3  UNL     1      11.699  24.757  -9.101  1.00  0.00     0.053 C 
HETATM    3  C4  UNL     1      10.902  25.336  -7.990  1.00  0.00    -0.012 C 
HETATM    4  C5  UNL     1      10.516  24.519  -7.043  1.00  0.00     0.006 C 
HETATM    5  C13 UNL     1      10.842  23.062  -7.061  1.00  0.00     0.046 C 
HETATM    6  C14 UNL     1      12.001  22.672  -7.917  1.00  0.00     0.030 C 
ENDROOT
BRANCH   4   7
HETATM    7  C6  UNL     1       9.741  25.004  -5.929  1.00  0.00     0.247 C 
HETATM    8  O1  UNL     1      10.385  25.384  -4.887  1.00  0.00    -0.268 OA
HETATM    9  N2  UNL     1       8.338  25.063  -5.968  1.00  0.00    -0.357 N 
ATOM     10  H2  UNL     1       7.823  24.760  -6.794  1.00  0.00     0.162 HD
BRANCH   9  11
HETATM   11  C7  UNL     1       7.640  25.572  -4.793  1.00  0.00     0.127 C 
BRANCH  11  12
HETATM   12  C8  UNL     1       6.670  24.532  -4.279  1.00  0.00     0.007 C 
HETATM   13  C9  UNL     1       6.461  24.664  -2.783  1.00  0.00     0.032 C 
HETATM   14  C10 UNL     1       5.456  23.618  -2.371  1.00  0.00     0.168 C 
HETATM   15  O2  UNL     1       4.996  22.872  -3.462  1.00  0.00    -0.391 OA
HETATM   16  C11 UNL     1       6.062  22.178  -4.052  1.00  0.00     0.168 C 
HETATM   17  C12 UNL     1       7.127  23.127  -4.552  1.00  0.00     0.032 C 
ENDBRANCH  11  12
ENDBRANCH   9  11
ENDBRANCH   4   7
BRANCH   1  18
HETATM   18  N1  UNL     1      13.820  23.648  -9.248  1.00  0.00    -0.408 N 
HETATM   19  C1  UNL     1      13.519  23.784 -10.615  1.00  0.00     0.144 C 
BRANCH  18  20
HETATM   20  C15 UNL     1      15.132  23.599  -8.835  1.00  0.00     0.079 C 
HETATM   21  C16 UNL     1      16.155  23.366  -9.940  1.00  0.00     0.025 C 
HETATM   22  C17 UNL     1      17.440  23.994  -9.440  1.00  0.00     0.002 C 
HETATM   23  C18 UNL     1      17.110  24.807  -8.218  1.00  0.00     0.002 C 
HETATM   24  C19 UNL     1      15.599  24.990  -8.374  1.00  0.00     0.025 C 
ENDBRANCH  18  20
ENDBRANCH   1  18
TORSDOF 5
ENDMDL
MODEL 4
REMARK VINA RESULT: -7.831128614      6.310      8.826
REMARK  5 active torsions:
REMARK  status: ('A' for Active; 'I' for Inactive)
REMARK    1  A    between atoms: N1_2  and  C2_3 
REMARK    2  A    between atoms: N1_2  and  C15_20 
REMARK    3  A    between atoms: C5_6  and  C6_7 
REMARK       I    between atoms: C6_7  and  N2_9 
REMARK    4  A    between atoms: N2_9  and  C7_11 
REMARK    5  A    between atoms: C7_11  and  C8_12 
ROOT
HETATM    1  C2  UNL     1      12.308  24.578  -8.047  1.00  0.00     0.082 C 
HETATM    2  C3  UNL     1      11.223  25.470  -8.674  1.00  0.00     0.053 C 
HETATM    3  C4  UNL     1      10.255  25.695  -7.570  1.00  0.00    -0.012 C 
HETATM    4  C5  UNL     1       9.903  24.653  -6.863  1.00  0.00     0.006 C 
HETATM    5  C13 UNL     1      10.428  23.283  -7.140  1.00  0.00     0.046 C 
HETATM    6  C14 UNL     1      11.703  23.227  -7.914  1.00  0.00     0.030 C 
ENDROOT
BRANCH   4   7
HETATM    7  C6  UNL     1       8.969  24.788  -5.772  1.00  0.00     0.247 C 
HETATM    8  O1  UNL     1       9.422  25.257  -4.667  1.00  0.00    -0.268 OA
HETATM    9  N2  UNL     1       7.618  24.427  -5.900  1.00  0.00    -0.357 N 
ATOM     10  H2  UNL     1       7.256  24.053  -6.777  1.00  0.00     0.162 HD
BRANCH   9  11
HETATM   11  C7  UNL     1       6.749  24.604  -4.743  1.00  0.00     0.127 C 
BRANCH  11  12
HETATM   12  C8  UNL     1       5.679  23.535  -4.732  1.00  0.00     0.007 C 
HETATM   13  C9  UNL     1       5.386  23.061  -3.322  1.00  0.00     0.032 C 
HETATM   14  C10 UNL     1       4.289  22.032  -3.408  1.00  0.00     0.168 C 
HETATM   15  O2  UNL     1       3.848  21.840  -4.723  1.00  0.00    -0.391 OA
HETATM   16  C11 UNL     1       4.899  21.358  -5.515  1.00  0.00     0.168 C 
HETATM   17  C12 UNL     1       6.056  22.331  -5.547  1.00  0.00     0.032 C 
ENDBRANCH  11  12
ENDBRANCH   9  11
ENDBRANCH   4   7
BRANCH   1  18
HETATM   18  N1  UNL     1      13.482  24.674  -8.792  1.00  0.00    -0.408 N 
HETATM   19  C1  UNL     1      13.302  24.531 -10.180  1.00  0.00     0.144 C 
BRANCH  18  20
HETATM   20  C15 UNL     1      14.671  25.162  -8.301  1.00  0.00     0.079 C 
HETATM   21  C16 UNL     1      15.832  24.175  -8.303  1.00  0.00     0.025 C 
HETATM   22  C17 UNL     1      17.085  25.023  -8.388  1.00  0.00     0.002 C 
HETATM   23  C18 UNL     1      16.665  26.432  -8.708  1.00  0.00     0.002 C 
HETATM   24  C19 UNL     1      15.256  26.212  -9.261  1.00  0.00     0.025 C 
ENDBRANCH  18  20
ENDBRANCH   1  18
TORSDOF 5
ENDMDL
MODEL 5
REMARK VINA RESULT: -7.816324616      1.598      2.391
REMARK  5 active torsions:
REMARK  status: ('A' for Active; 'I' for Inactive)
REMARK    1  A    between atoms: N1_2  and  C2_3 
REMARK    2  A    between atoms: N1_2  and  C15_20 
REMARK    3  A    between atoms: C5_6  and  C6_7 
REMARK       I    between atoms: C6_7  and  N2_9 
REMARK    4  A    between atoms: N2_9  and  C7_11 
REMARK    5  A    between atoms: C7_11  and  C8_12 
ROOT
HETATM    1  C2  UNL     1       7.245  21.672  -5.339  1.00  0.00     0.082 C 
HETATM    2  C3  UNL     1       6.257  21.281  -4.226  1.00  0.00     0.053 C 
HETATM    3  C4  UNL     1       5.882  19.881  -4.550  1.00  0.00    -0.012 C 
HETATM    4  C5  UNL     1       5.586  19.615  -5.796  1.00  0.00     0.006 C 
HETATM    5  C13 UNL     1       5.609  20.657  -6.865  1.00  0.00     0.046 C 
HETATM    6  C14 UNL     1       6.427  21.869  -6.565  1.00  0.00     0.030 C 
ENDROOT
BRANCH   4   7
HETATM    7  C6  UNL     1       5.214  18.279  -6.191  1.00  0.00     0.247 C 
HETATM    8  O1  UNL     1       4.984  18.078  -7.437  1.00  0.00    -0.268 OA
HETATM    9  N2  UNL     1       5.103  17.232  -5.262  1.00  0.00    -0.357 N 
ATOM     10  H2  UNL     1       5.283  17.388  -4.271  1.00  0.00     0.162 HD
BRANCH   9  11
HETATM   11  C7  UNL     1       4.723  15.914  -5.757  1.00  0.00     0.127 C 
BRANCH  11  12
HETATM   12  C8  UNL     1       3.712  15.284  -4.825  1.00  0.00     0.007 C 
HETATM   13  C9  UNL     1       2.993  16.334  -4.001  1.00  0.00     0.032 C 
HETATM   14  C10 UNL     1       1.986  15.621  -3.136  1.00  0.00     0.168 C 
HETATM   15  O2  UNL     1       1.984  14.239  -3.361  1.00  0.00    -0.391 OA
HETATM   16  C11 UNL     1       3.234  13.698  -3.032  1.00  0.00     0.168 C 
HETATM   17  C12 UNL     1       4.335  14.305  -3.871  1.00  0.00     0.032 C 
ENDBRANCH  11  12
ENDBRANCH   9  11
ENDBRANCH   4   7
BRANCH   1  18
HETATM   18  N1  UNL     1       8.022  22.750  -4.918  1.00  0.00    -0.408 N 
HETATM   19  C1  UNL     1       9.406  22.502  -4.914  1.00  0.00     0.144 C 
BRANCH  18  20
HETATM   20  C15 UNL     1       7.556  24.040  -4.801  1.00  0.00     0.079 C 
HETATM   21  C16 UNL     1       7.392  24.547  -3.373  1.00  0.00     0.025 C 
HETATM   22  C17 UNL     1       7.541  26.052  -3.459  1.00  0.00     0.002 C 
HETATM   23  C18 UNL     1       8.051  26.386  -4.835  1.00  0.00     0.002 C 
HETATM   24  C19 UNL     1       8.620  25.039  -5.283  1.00  0.00     0.025 C 
ENDBRANCH  18  20
ENDBRANCH   1  18
TORSDOF 5
ENDMDL
