MODEL 1
REMARK VINA RESULT: -6.684921292      0.000      0.000
REMARK  7 active torsions:
REMARK  status: ('A' for Active; 'I' for Inactive)
REMARK    1  A    between atoms: C2_2  and  C3_3 
REMARK    2  A    between atoms: C8_8  and  N1_9 
REMARK    3  A    between atoms: N1_9  and  C9_11 
REMARK    4  A    between atoms: C9_11  and  S2_13 
REMARK    5  A    between atoms: S2_13  and  C10_14 
REMARK    6  A    between atoms: C10_14  and  C11_15 
REMARK    7  A    between atoms: C11_15  and  C12_16 
REMARK       I    between atoms: C12_16  and  N2_18 
ROOT
HETATM    1  C9  UNL     1       8.777  24.545  -5.400  1.00  0.00     0.134 C 
HETATM    2  S1  UNL     1       9.322  23.044  -4.971  1.00  0.00    -0.053 SA
ENDROOT
BRANCH   1   3
HETATM    3  N1  UNL     1       8.826  24.957  -6.734  1.00  0.00    -0.371 N 
ATOM      4  H1  UNL     1       8.231  25.732  -7.028  1.00  0.00     0.161 HD
BRANCH   3   5
HETATM    5  C8  UNL     1       9.681  24.335  -7.708  1.00  0.00     0.087 C 
HETATM    6  C3  UNL     1       8.861  23.816  -8.893  1.00  0.00     0.008 C 
HETATM    7  C4  UNL     1       9.518  24.081 -10.206  1.00  0.00     0.007 C 
HETATM    8  C5  UNL     1      11.008  23.991 -10.203  1.00  0.00     0.001 C 
HETATM    9  C6  UNL     1      11.655  24.820  -9.113  1.00  0.00     0.002 C 
HETATM   10  C7  UNL     1      10.615  25.443  -8.235  1.00  0.00     0.025 C 
BRANCH   6  11
HETATM   11  C2  UNL     1       8.477  22.369  -8.689  1.00  0.00     0.002 C 
HETATM   12  C1  UNL     1       7.109  22.190  -8.125  1.00  0.00     0.005 C 
ENDBRANCH   6  11
ENDBRANCH   3   5
ENDBRANCH   1   3
BRANCH   1  13
HETATM   13  S2  UNL     1       8.147  25.616  -4.139  1.00  0.00    -0.100 SA
BRANCH  13  14
HETATM   14  C10 UNL     1       6.416  25.292  -3.846  1.00  0.00     0.091 C 
BRANCH  14  15
HETATM   15  C11 UNL     1       6.109  23.883  -3.407  1.00  0.00     0.113 C 
BRANCH  15  16
HETATM   16  C12 UNL     1       5.486  23.172  -4.572  1.00  0.00     0.220 C 
HETATM   17  O1  UNL     1       5.207  23.859  -5.600  1.00  0.00    -0.273 OA
HETATM   18  N2  UNL     1       5.213  21.792  -4.545  1.00  0.00    -0.352 N 
HETATM   19  C13 UNL     1       4.626  21.023  -5.597  1.00  0.00     0.126 C 
HETATM   20  C16 UNL     1       5.475  20.902  -3.454  1.00  0.00     0.126 C 
HETATM   21  C14 UNL     1       5.531  19.783  -5.578  1.00  0.00     0.021 C 
HETATM   22  C15 UNL     1       6.122  19.721  -4.188  1.00  0.00     0.021 C 
ENDBRANCH  15  16
ENDBRANCH  14  15
ENDBRANCH  13  14
ENDBRANCH   1  13
TORSDOF 7
ENDMDL
MODEL 2
REMARK VINA RESULT: -6.517636427      2.861      7.636
REMARK  7 active torsions:
REMARK  status: ('A' for Active; 'I' for Inactive)
REMARK    1  A    between atoms: C2_2  and  C3_3 
REMARK    2  A    between atoms: C8_8  and  N1_9 
REMARK    3  A    between atoms: N1_9  and  C9_11 
REMARK    4  A    between atoms: C9_11  and  S2_13 
REMARK    5  A    between atoms: S2_13  and  C10_14 
REMARK    6  A    between atoms: C10_14  and  C11_15 
REMARK    7  A    between atoms: C11_15  and  C12_16 
REMARK       I    between atoms: C12_16  and  N2_18 
ROOT
HETATM    1  C9  UNL     1       8.144  24.563  -5.410  1.00  0.00     0.134 C 
HETATM    2  S1  UNL     1       8.296  26.063  -4.731  1.00  0.00    -0.053 SA
ENDROOT
BRANCH   1   3
HETATM    3  N1  UNL     1       6.929  23.878  -5.340  1.00  0.00    -0.371 N 
ATOM      4  H1  UNL     1       6.142  24.220  -5.892  1.00  0.00     0.161 HD
BRANCH   3   5
HETATM    5  C8  UNL     1       6.742  22.710  -4.524  1.00  0.00     0.087 C 
HETATM    6  C3  UNL     1       5.435  22.808  -3.732  1.00  0.00     0.008 C 
HETATM    7  C4  UNL     1       4.687  21.518  -3.696  1.00  0.00     0.007 C 
HETATM    8  C5  UNL     1       5.534  20.290  -3.633  1.00  0.00     0.001 C 
HETATM    9  C6  UNL     1       6.606  20.249  -4.702  1.00  0.00     0.002 C 
HETATM   10  C7  UNL     1       6.613  21.519  -5.494  1.00  0.00     0.025 C 
BRANCH   6  11
HETATM   11  C2  UNL     1       5.678  23.406  -2.365  1.00  0.00     0.002 C 
HETATM   12  C1  UNL     1       5.633  24.895  -2.349  1.00  0.00     0.005 C 
ENDBRANCH   6  11
ENDBRANCH   3   5
ENDBRANCH   1   3
BRANCH   1  13
HETATM   13  S2  UNL     1       9.549  23.844  -6.213  1.00  0.00    -0.100 SA
BRANCH  13  14
HETATM   14  C10 UNL     1      10.854  25.049  -6.396  1.00  0.00     0.091 C 
BRANCH  14  15
HETATM   15  C11 UNL     1      11.153  25.434  -7.822  1.00  0.00     0.113 C 
BRANCH  15  16
HETATM   16  C12 UNL     1      12.583  25.885  -7.878  1.00  0.00     0.220 C 
HETATM   17  O1  UNL     1      12.875  26.985  -7.320  1.00  0.00    -0.273 OA
HETATM   18  N2  UNL     1      13.579  25.129  -8.522  1.00  0.00    -0.352 N 
HETATM   19  C13 UNL     1      14.964  25.468  -8.630  1.00  0.00     0.126 C 
HETATM   20  C16 UNL     1      13.388  23.877  -9.190  1.00  0.00     0.126 C 
HETATM   21  C14 UNL     1      15.611  24.112  -8.312  1.00  0.00     0.021 C 
HETATM   22  C15 UNL     1      14.569  23.066  -8.639  1.00  0.00     0.021 C 
ENDBRANCH  15  16
ENDBRANCH  14  15
ENDBRANCH  13  14
ENDBRANCH   1  13
TORSDOF 7
ENDMDL
MODEL 3
REMARK VINA RESULT: -6.487067062      0.918      1.210
REMARK  7 active torsions:
REMARK  status: ('A' for Active; 'I' for Inactive)
REMARK    1  A    between atoms: C2_2  and  C3_3 
REMARK    2  A    between atoms: C8_8  and  N1_9 
REMARK    3  A    between atoms: N1_9  and  C9_11 
REMARK    4  A    between atoms: C9_11  and  S2_13 
REMARK    5  A    between atoms: S2_13  and  C10_14 
REMARK    6  A    between atoms: C10_14  and  C11_15 
REMARK    7  A    between atoms: C11_15  and  C12_16 
REMARK       I    between atoms: C12_16  and  N2_18 
ROOT
HETATM    1  C9  UNL     1       8.848  24.766  -5.482  1.00  0.00     0.134 C 
HETATM    2  S1  UNL     1       9.450  23.307  -4.987  1.00  0.00    -0.053 SA
ENDROOT
BRANCH   1   3
HETATM    3  N1  UNL     1       9.005  25.179  -6.807  1.00  0.00    -0.371 N 
ATOM      4  H1  UNL     1       8.537  26.033  -7.111  1.00  0.00     0.161 HD
BRANCH   3   5
HETATM    5  C8  UNL     1       9.798  24.451  -7.759  1.00  0.00     0.087 C 
HETATM    6  C3  UNL     1       8.923  23.925  -8.900  1.00  0.00     0.008 C 
HETATM    7  C4  UNL     1       9.570  24.075 -10.236  1.00  0.00     0.007 C 
HETATM    8  C5  UNL     1      11.052  23.887 -10.253  1.00  0.00     0.001 C 
HETATM    9  C6  UNL     1      11.771  24.729  -9.219  1.00  0.00     0.002 C 
HETATM   10  C7  UNL     1      10.792  25.465  -8.360  1.00  0.00     0.025 C 
BRANCH   6  11
HETATM   11  C2  UNL     1       8.450  22.519  -8.611  1.00  0.00     0.002 C 
HETATM   12  C1  UNL     1       7.224  22.136  -9.368  1.00  0.00     0.005 C 
ENDBRANCH   6  11
ENDBRANCH   3   5
ENDBRANCH   1   3
BRANCH   1  13
HETATM   13  S2  UNL     1       8.016  25.790  -4.301  1.00  0.00    -0.100 SA
BRANCH  13  14
HETATM   14  C10 UNL     1       6.465  25.054  -3.812  1.00  0.00     0.091 C 
BRANCH  14  15
HETATM   15  C11 UNL     1       5.952  23.994  -4.752  1.00  0.00     0.113 C 
BRANCH  15  16
HETATM   16  C12 UNL     1       5.671  22.765  -3.939  1.00  0.00     0.220 C 
HETATM   17  O1  UNL     1       5.223  22.927  -2.764  1.00  0.00    -0.273 OA
HETATM   18  N2  UNL     1       5.891  21.471  -4.443  1.00  0.00    -0.352 N 
HETATM   19  C13 UNL     1       5.656  20.240  -3.753  1.00  0.00     0.126 C 
HETATM   20  C16 UNL     1       6.393  21.146  -5.744  1.00  0.00     0.126 C 
HETATM   21  C14 UNL     1       4.973  19.424  -4.859  1.00  0.00     0.021 C 
HETATM   22  C15 UNL     1       5.420  20.038  -6.167  1.00  0.00     0.021 C 
ENDBRANCH  15  16
ENDBRANCH  14  15
ENDBRANCH  13  14
ENDBRANCH   1  13
TORSDOF 7
ENDMDL
MODEL 4
REMARK VINA RESULT: -6.475651019      1.656      2.672
REMARK  7 active torsions:
REMARK  status: ('A' for Active; 'I' for Inactive)
REMARK    1  A    between atoms: C2_2  and  C3_3 
REMARK    2  A    between atoms: C8_8  and  N1_9 
REMARK    3  A    between atoms: N1_9  and  C9_11 
REMARK    4  A    between atoms: C9_11  and  S2_13 
REMARK    5  A    between atoms: S2_13  and  C10_14 
REMARK    6  A    between atoms: C10_14  and  C11_15 
REMARK    7  A    between atoms: C11_15  and  C12_16 
REMARK       I    between atoms: C12_16  and  N2_18 
ROOT
HETATM    1  C9  UNL     1       8.091  25.132  -3.926  1.00  0.00     0.134 C 
HETATM    2  S1  UNL     1       8.044  26.602  -4.680  1.00  0.00    -0.053 SA
ENDROOT
BRANCH   1   3
HETATM    3  N1  UNL     1       8.757  24.057  -4.520  1.00  0.00    -0.371 N 
ATOM      4  H1  UNL     1       9.130  23.321  -3.920  1.00  0.00     0.161 HD
BRANCH   3   5
HETATM    5  C8  UNL     1       8.936  23.944  -5.941  1.00  0.00     0.087 C 
HETATM    6  C3  UNL     1      10.424  23.853  -6.292  1.00  0.00     0.008 C 
HETATM    7  C4  UNL     1      10.702  22.845  -7.356  1.00  0.00     0.007 C 
HETATM    8  C5  UNL     1       9.654  22.725  -8.413  1.00  0.00     0.001 C 
HETATM    9  C6  UNL     1       8.261  22.531  -7.852  1.00  0.00     0.002 C 
HETATM   10  C7  UNL     1       8.274  22.616  -6.358  1.00  0.00     0.025 C 
BRANCH   6  11
HETATM   11  C2  UNL     1      10.992  25.221  -6.591  1.00  0.00     0.002 C 
HETATM   12  C1  UNL     1      10.278  25.935  -7.687  1.00  0.00     0.005 C 
ENDBRANCH   6  11
ENDBRANCH   3   5
ENDBRANCH   1   3
BRANCH   1  13
HETATM   13  S2  UNL     1       7.276  24.947  -2.365  1.00  0.00    -0.100 SA
BRANCH  13  14
HETATM   14  C10 UNL     1       5.593  24.397  -2.595  1.00  0.00     0.091 C 
BRANCH  14  15
HETATM   15  C11 UNL     1       5.459  22.956  -3.013  1.00  0.00     0.113 C 
BRANCH  15  16
HETATM   16  C12 UNL     1       5.234  22.934  -4.496  1.00  0.00     0.220 C 
HETATM   17  O1  UNL     1       5.385  24.021  -5.131  1.00  0.00    -0.273 OA
HETATM   18  N2  UNL     1       4.869  21.759  -5.178  1.00  0.00    -0.352 N 
HETATM   19  C13 UNL     1       4.634  21.632  -6.583  1.00  0.00     0.126 C 
HETATM   20  C16 UNL     1       4.665  20.471  -4.589  1.00  0.00     0.126 C 
HETATM   21  C14 UNL     1       5.382  20.324  -6.876  1.00  0.00     0.021 C 
HETATM   22  C15 UNL     1       5.440  19.575  -5.564  1.00  0.00     0.021 C 
ENDBRANCH  15  16
ENDBRANCH  14  15
ENDBRANCH  13  14
ENDBRANCH   1  13
TORSDOF 7
ENDMDL
MODEL 5
REMARK VINA RESULT: -6.423398448      2.288      6.259
REMARK  7 active torsions:
REMARK  status: ('A' for Active; 'I' for Inactive)
REMARK    1  A    between atoms: C2_2  and  C3_3 
REMARK    2  A    between atoms: C8_8  and  N1_9 
REMARK    3  A    between atoms: N1_9  and  C9_11 
REMARK    4  A    between atoms: C9_11  and  S2_13 
REMARK    5  A    between atoms: S2_13  and  C10_14 
REMARK    6  A    between atoms: C10_14  and  C11_15 
REMARK    7  A    between atoms: C11_15  and  C12_16 
REMARK       I    between atoms: C12_16  and  N2_18 
ROOT
HETATM    1  C9  UNL     1       7.922  24.647  -4.251  1.00  0.00     0.134 C 
HETATM    2  S1  UNL     1       7.399  25.668  -3.060  1.00  0.00    -0.053 SA
ENDROOT
BRANCH   1   3
HETATM    3  N1  UNL     1       7.610  23.286  -4.199  1.00  0.00    -0.371 N 
ATOM      4  H1  UNL     1       8.286  22.645  -3.785  1.00  0.00     0.161 HD
BRANCH   3   5
HETATM    5  C8  UNL     1       6.374  22.754  -4.705  1.00  0.00     0.087 C 
HETATM    6  C3  UNL     1       6.626  21.477  -5.512  1.00  0.00     0.008 C 
HETATM    7  C4  UNL     1       5.616  20.415  -5.238  1.00  0.00     0.007 C 
HETATM    8  C5  UNL     1       4.227  20.904  -4.986  1.00  0.00     0.001 C 
HETATM    9  C6  UNL     1       4.158  21.985  -3.927  1.00  0.00     0.002 C 
HETATM   10  C7  UNL     1       5.532  22.369  -3.472  1.00  0.00     0.025 C 
BRANCH   6  11
HETATM   11  C2  UNL     1       6.789  21.793  -6.981  1.00  0.00     0.002 C 
HETATM   12  C1  UNL     1       6.139  23.070  -7.391  1.00  0.00     0.005 C 
ENDBRANCH   6  11
ENDBRANCH   3   5
ENDBRANCH   1   3
BRANCH   1  13
HETATM   13  S2  UNL     1       8.891  25.308  -5.577  1.00  0.00    -0.100 SA
BRANCH  13  14
HETATM   14  C10 UNL     1      10.366  24.335  -5.826  1.00  0.00     0.091 C 
BRANCH  14  15
HETATM   15  C11 UNL     1      10.151  23.062  -6.603  1.00  0.00     0.113 C 
BRANCH  15  16
HETATM   16  C12 UNL     1      10.973  23.152  -7.856  1.00  0.00     0.220 C 
HETATM   17  O1  UNL     1      12.152  22.687  -7.821  1.00  0.00    -0.273 OA
HETATM   18  N2  UNL     1      10.471  23.729  -9.037  1.00  0.00    -0.352 N 
HETATM   19  C13 UNL     1      11.169  23.862 -10.278  1.00  0.00     0.126 C 
HETATM   20  C16 UNL     1       9.166  24.290  -9.213  1.00  0.00     0.126 C 
HETATM   21  C14 UNL     1      10.073  23.430 -11.263  1.00  0.00     0.021 C 
HETATM   22  C15 UNL     1       8.758  23.671 -10.556  1.00  0.00     0.021 C 
ENDBRANCH  15  16
ENDBRANCH  14  15
ENDBRANCH  13  14
ENDBRANCH   1  13
TORSDOF 7
ENDMDL
