MODEL 1
REMARK VINA RESULT: -7.695781132      0.000      0.000
REMARK  5 active torsions:
REMARK  status: ('A' for Active; 'I' for Inactive)
REMARK    1  A    between atoms: C4_4  and  C5_5 
REMARK    2  A    between atoms: C5_5  and  C6_6 
REMARK    3  A    between atoms: N1_16  and  C15_17 
REMARK    4  A    between atoms: C15_17  and  C16_18 
REMARK    5  A    between atoms: C16_18  and  C18_20 
ROOT
HETATM    1  C6  UNL     1       6.754  22.023  -7.036  1.00  0.00     0.020 C 
HETATM    2  C7  UNL     1       7.942  22.255  -7.885  1.00  0.00     0.040 C 
HETATM    3  C8  UNL     1       8.981  22.901  -6.960  1.00  0.00     0.156 C 
HETATM    4  O1  UNL     1      10.210  22.977  -7.538  1.00  0.00    -0.373 OA
HETATM    5  C9  UNL     1      10.644  24.142  -8.056  1.00  0.00     0.054 C 
HETATM    6  C10 UNL     1      10.248  24.323  -9.516  1.00  0.00     0.045 C 
HETATM    7  C11 UNL     1      12.183  24.080  -8.080  1.00  0.00     0.045 C 
HETATM    8  C12 UNL     1      10.311  25.379  -7.258  1.00  0.00     0.039 C 
HETATM    9  C13 UNL     1       9.483  25.052  -6.032  1.00  0.00     0.041 C 
HETATM   10  C14 UNL     1       8.373  24.161  -6.509  1.00  0.00     0.252 C 
HETATM   11  N1  UNL     1       7.298  23.967  -5.538  1.00  0.00     0.096 N 
HETATM   12  C19 UNL     1       6.700  22.667  -5.699  1.00  0.00     0.278 C 
ENDROOT
BRANCH  11  13
HETATM   13  C15 UNL     1       7.778  24.101  -4.202  1.00  0.00     0.286 C 
BRANCH  13  14
HETATM   14  C16 UNL     1       6.974  24.997  -3.332  1.00  0.00     0.099 C 
HETATM   15  C17 UNL     1       6.010  24.407  -2.367  1.00  0.00     0.021 C 
BRANCH  14  16
HETATM   16  C18 UNL     1       7.881  25.886  -2.518  1.00  0.00     0.236 C 
HETATM   17  N2  UNL     1       8.635  26.897  -3.104  1.00  0.00    -0.062 NA
HETATM   18  O2  UNL     1       7.950  25.692  -1.273  1.00  0.00    -0.276 OA
ENDBRANCH  14  16
ENDBRANCH  13  14
ENDBRANCH  11  13
BRANCH   1  19
HETATM   19  C5  UNL     1       5.454  22.159  -7.832  1.00  0.00     0.033 C 
BRANCH  19  20
HETATM   20  C4  UNL     1       5.643  23.136  -8.940  1.00  0.00    -0.024 C 
HETATM   21  C2  UNL     1       4.766  23.403  -9.859  1.00  0.00    -0.091 C 
HETATM   22  C1  UNL     1       3.449  22.728  -9.879  1.00  0.00     0.042 C 
HETATM   23  C3  UNL     1       5.072  24.394 -10.921  1.00  0.00     0.042 C 
ENDBRANCH  19  20
ENDBRANCH   1  19
TORSDOF 5
ENDMDL
MODEL 2
REMARK VINA RESULT: -7.627630662      2.654      5.916
REMARK  5 active torsions:
REMARK  status: ('A' for Active; 'I' for Inactive)
REMARK    1  A    between atoms: C4_4  and  C5_5 
REMARK    2  A    between atoms: C5_5  and  C6_6 
REMARK    3  A    between atoms: N1_16  and  C15_17 
REMARK    4  A    between atoms: C15_17  and  C16_18 
REMARK    5  A    between atoms: C16_18  and  C18_20 
ROOT
HETATM    1  C6  UNL     1       9.181  23.018  -6.717  1.00  0.00     0.020 C 
HETATM    2  C7  UNL     1       9.369  23.950  -5.585  1.00  0.00     0.040 C 
HETATM    3  C8  UNL     1       8.191  23.685  -4.640  1.00  0.00     0.156 C 
HETATM    4  O1  UNL     1       8.338  24.311  -3.442  1.00  0.00    -0.373 OA
HETATM    5  C9  UNL     1       7.670  25.453  -3.188  1.00  0.00     0.054 C 
HETATM    6  C10 UNL     1       8.436  26.695  -3.623  1.00  0.00     0.045 C 
HETATM    7  C11 UNL     1       7.564  25.583  -1.656  1.00  0.00     0.045 C 
HETATM    8  C12 UNL     1       6.247  25.504  -3.687  1.00  0.00     0.039 C 
HETATM    9  C13 UNL     1       5.870  24.247  -4.445  1.00  0.00     0.041 C 
HETATM   10  C14 UNL     1       6.986  24.003  -5.419  1.00  0.00     0.252 C 
HETATM   11  N1  UNL     1       6.682  23.005  -6.443  1.00  0.00     0.096 N 
HETATM   12  C19 UNL     1       7.880  22.315  -6.848  1.00  0.00     0.278 C 
ENDROOT
BRANCH  11  13
HETATM   13  C15 UNL     1       5.728  22.055  -5.972  1.00  0.00     0.286 C 
BRANCH  13  14
HETATM   14  C16 UNL     1       6.266  20.691  -5.734  1.00  0.00     0.099 C 
HETATM   15  C17 UNL     1       6.352  20.172  -4.344  1.00  0.00     0.021 C 
BRANCH  14  16
HETATM   16  C18 UNL     1       5.464  19.673  -6.506  1.00  0.00     0.236 C 
HETATM   17  N2  UNL     1       5.104  18.449  -5.952  1.00  0.00    -0.062 NA
HETATM   18  O2  UNL     1       5.121  19.953  -7.688  1.00  0.00    -0.276 OA
ENDBRANCH  14  16
ENDBRANCH  13  14
ENDBRANCH  11  13
BRANCH   1  19
HETATM   19  C5  UNL     1       9.688  23.614  -8.032  1.00  0.00     0.033 C 
BRANCH  19  20
HETATM   20  C4  UNL     1      11.077  23.146  -8.293  1.00  0.00    -0.024 C 
HETATM   21  C2  UNL     1      12.142  23.884  -8.212  1.00  0.00    -0.091 C 
HETATM   22  C1  UNL     1      12.055  25.313  -7.836  1.00  0.00     0.042 C 
HETATM   23  C3  UNL     1      13.479  23.307  -8.503  1.00  0.00     0.042 C 
ENDBRANCH  19  20
ENDBRANCH   1  19
TORSDOF 5
ENDMDL
MODEL 3
REMARK VINA RESULT: -7.534497720      1.157      1.551
REMARK  5 active torsions:
REMARK  status: ('A' for Active; 'I' for Inactive)
REMARK    1  A    between atoms: C4_4  and  C5_5 
REMARK    2  A    between atoms: C5_5  and  C6_6 
REMARK    3  A    between atoms: N1_16  and  C15_17 
REMARK    4  A    between atoms: C15_17  and  C16_18 
REMARK    5  A    between atoms: C16_18  and  C18_20 
ROOT
HETATM    1  C6  UNL     1       6.804  21.946  -7.047  1.00  0.00     0.020 C 
HETATM    2  C7  UNL     1       7.977  22.221  -7.903  1.00  0.00     0.040 C 
HETATM    3  C8  UNL     1       8.995  22.911  -6.987  1.00  0.00     0.156 C 
HETATM    4  O1  UNL     1      10.217  23.033  -7.573  1.00  0.00    -0.373 OA
HETATM    5  C9  UNL     1      10.601  24.212  -8.097  1.00  0.00     0.054 C 
HETATM    6  C10 UNL     1      10.189  24.374  -9.554  1.00  0.00     0.045 C 
HETATM    7  C11 UNL     1      12.142  24.210  -8.130  1.00  0.00     0.045 C 
HETATM    8  C12 UNL     1      10.225  25.438  -7.301  1.00  0.00     0.039 C 
HETATM    9  C13 UNL     1       9.418  25.083  -6.068  1.00  0.00     0.041 C 
HETATM   10  C14 UNL     1       8.341  24.148  -6.536  1.00  0.00     0.252 C 
HETATM   11  N1  UNL     1       7.280  23.915  -5.558  1.00  0.00     0.096 N 
HETATM   12  C19 UNL     1       6.732  22.591  -5.712  1.00  0.00     0.278 C 
ENDROOT
BRANCH  11  13
HETATM   13  C15 UNL     1       7.762  24.072  -4.225  1.00  0.00     0.286 C 
BRANCH  13  14
HETATM   14  C16 UNL     1       6.948  24.967  -3.364  1.00  0.00     0.099 C 
HETATM   15  C17 UNL     1       5.969  24.377  -2.414  1.00  0.00     0.021 C 
BRANCH  14  16
HETATM   16  C18 UNL     1       7.847  25.850  -2.534  1.00  0.00     0.236 C 
HETATM   17  N2  UNL     1       8.581  26.888  -3.100  1.00  0.00    -0.062 NA
HETATM   18  O2  UNL     1       7.928  25.627  -1.295  1.00  0.00    -0.276 OA
ENDBRANCH  14  16
ENDBRANCH  13  14
ENDBRANCH  11  13
BRANCH   1  19
HETATM   19  C5  UNL     1       5.494  22.029  -7.836  1.00  0.00     0.033 C 
BRANCH  19  20
HETATM   20  C4  UNL     1       5.110  20.672  -8.316  1.00  0.00    -0.024 C 
HETATM   21  C2  UNL     1       5.126  20.286  -9.555  1.00  0.00    -0.091 C 
HETATM   22  C1  UNL     1       5.548  21.205 -10.637  1.00  0.00     0.042 C 
HETATM   23  C3  UNL     1       4.713  18.907  -9.916  1.00  0.00     0.042 C 
ENDBRANCH  19  20
ENDBRANCH   1  19
TORSDOF 5
ENDMDL
MODEL 4
REMARK VINA RESULT: -7.518815873      1.687      2.496
REMARK  5 active torsions:
REMARK  status: ('A' for Active; 'I' for Inactive)
REMARK    1  A    between atoms: C4_4  and  C5_5 
REMARK    2  A    between atoms: C5_5  and  C6_6 
REMARK    3  A    between atoms: N1_16  and  C15_17 
REMARK    4  A    between atoms: C15_17  and  C16_18 
REMARK    5  A    between atoms: C16_18  and  C18_20 
ROOT
HETATM    1  C6  UNL     1       6.958  21.786  -6.557  1.00  0.00     0.020 C 
HETATM    2  C7  UNL     1       7.983  22.101  -7.575  1.00  0.00     0.040 C 
HETATM    3  C8  UNL     1       8.996  23.008  -6.864  1.00  0.00     0.156 C 
HETATM    4  O1  UNL     1      10.118  23.207  -7.605  1.00  0.00    -0.373 OA
HETATM    5  C9  UNL     1      10.284  24.357  -8.287  1.00  0.00     0.054 C 
HETATM    6  C10 UNL     1       9.696  24.301  -9.691  1.00  0.00     0.045 C 
HETATM    7  C11 UNL     1      11.798  24.535  -8.510  1.00  0.00     0.045 C 
HETATM    8  C12 UNL     1       9.840  25.611  -7.575  1.00  0.00     0.039 C 
HETATM    9  C13 UNL     1       9.226  25.305  -6.223  1.00  0.00     0.041 C 
HETATM   10  C14 UNL     1       8.238  24.200  -6.460  1.00  0.00     0.252 C 
HETATM   11  N1  UNL     1       7.331  23.955  -5.340  1.00  0.00     0.096 N 
HETATM   12  C19 UNL     1       6.949  22.566  -5.293  1.00  0.00     0.278 C 
ENDROOT
BRANCH  11  13
HETATM   13  C15 UNL     1       7.932  24.319  -4.099  1.00  0.00     0.286 C 
BRANCH  13  14
HETATM   14  C16 UNL     1       7.103  25.193  -3.231  1.00  0.00     0.099 C 
HETATM   15  C17 UNL     1       6.080  24.582  -2.342  1.00  0.00     0.021 C 
BRANCH  14  16
HETATM   16  C18 UNL     1       7.985  26.025  -2.334  1.00  0.00     0.236 C 
HETATM   17  N2  UNL     1       8.029  25.827  -0.959  1.00  0.00    -0.062 NA
HETATM   18  O2  UNL     1       8.695  26.926  -2.862  1.00  0.00    -0.276 OA
ENDBRANCH  14  16
ENDBRANCH  13  14
ENDBRANCH  11  13
BRANCH   1  19
HETATM   19  C5  UNL     1       5.570  21.622  -7.181  1.00  0.00     0.033 C 
BRANCH  19  20
HETATM   20  C4  UNL     1       5.361  20.201  -7.573  1.00  0.00    -0.024 C 
HETATM   21  C2  UNL     1       5.167  19.219  -6.746  1.00  0.00    -0.091 C 
HETATM   22  C1  UNL     1       5.136  19.445  -5.283  1.00  0.00     0.042 C 
HETATM   23  C3  UNL     1       4.977  17.837  -7.255  1.00  0.00     0.042 C 
ENDBRANCH  19  20
ENDBRANCH   1  19
TORSDOF 5
ENDMDL
MODEL 5
REMARK VINA RESULT: -7.490091107      2.651      4.636
REMARK  5 active torsions:
REMARK  status: ('A' for Active; 'I' for Inactive)
REMARK    1  A    between atoms: C4_4  and  C5_5 
REMARK    2  A    between atoms: C5_5  and  C6_6 
REMARK    3  A    between atoms: N1_16  and  C15_17 
REMARK    4  A    between atoms: C15_17  and  C16_18 
REMARK    5  A    between atoms: C16_18  and  C18_20 
ROOT
HETATM    1  C6  UNL     1       5.642  23.061  -7.632  1.00  0.00     0.020 C 
HETATM    2  C7  UNL     1       5.024  21.741  -7.384  1.00  0.00     0.040 C 
HETATM    3  C8  UNL     1       5.299  21.434  -5.907  1.00  0.00     0.156 C 
HETATM    4  O1  UNL     1       4.604  20.351  -5.467  1.00  0.00    -0.373 OA
HETATM    5  C9  UNL     1       5.217  19.159  -5.338  1.00  0.00     0.054 C 
HETATM    6  C10 UNL     1       5.170  18.329  -6.614  1.00  0.00     0.045 C 
HETATM    7  C11 UNL     1       4.405  18.341  -4.316  1.00  0.00     0.045 C 
HETATM    8  C12 UNL     1       6.621  19.201  -4.784  1.00  0.00     0.039 C 
HETATM    9  C13 UNL     1       7.086  20.621  -4.533  1.00  0.00     0.041 C 
HETATM   10  C14 UNL     1       6.763  21.387  -5.784  1.00  0.00     0.252 C 
HETATM   11  N1  UNL     1       7.390  22.705  -5.860  1.00  0.00     0.096 N 
HETATM   12  C19 UNL     1       6.562  23.617  -6.607  1.00  0.00     0.278 C 
ENDROOT
BRANCH  11  13
HETATM   13  C15 UNL     1       7.625  23.242  -4.560  1.00  0.00     0.286 C 
BRANCH  13  14
HETATM   14  C16 UNL     1       6.577  24.170  -4.064  1.00  0.00     0.099 C 
HETATM   15  C17 UNL     1       5.692  23.744  -2.948  1.00  0.00     0.021 C 
BRANCH  14  16
HETATM   16  C18 UNL     1       7.199  25.472  -3.623  1.00  0.00     0.236 C 
HETATM   17  N2  UNL     1       7.908  25.580  -2.432  1.00  0.00    -0.062 NA
HETATM   18  O2  UNL     1       7.060  26.482  -4.366  1.00  0.00    -0.276 OA
ENDBRANCH  14  16
ENDBRANCH  13  14
ENDBRANCH  11  13
BRANCH   1  19
HETATM   19  C5  UNL     1       6.179  23.177  -9.060  1.00  0.00     0.033 C 
BRANCH  19  20
HETATM   20  C4  UNL     1       7.567  23.715  -9.033  1.00  0.00    -0.024 C 
HETATM   21  C2  UNL     1       8.345  23.827 -10.066  1.00  0.00    -0.091 C 
HETATM   22  C1  UNL     1       7.893  23.412 -11.414  1.00  0.00     0.042 C 
HETATM   23  C3  UNL     1       9.718  24.372  -9.915  1.00  0.00     0.042 C 
ENDBRANCH  19  20
ENDBRANCH   1  19
TORSDOF 5
ENDMDL
