MODEL 1
REMARK VINA RESULT: -8.096332460      0.000      0.000
REMARK  4 active torsions:
REMARK  status: ('A' for Active; 'I' for Inactive)
REMARK    1  A    between atoms: C2_2  and  C3_3 
REMARK    2  A    between atoms: C2_2  and  N3_20 
REMARK       I    between atoms: C3_3  and  N1_5 
REMARK    3  A    between atoms: N1_5  and  C4_7 
REMARK    4  A    between atoms: N2_10  and  C7_11 
ROOT
HETATM    1  C4  UNL     1       8.153  24.255  -6.376  1.00  0.00     0.087 C 
HETATM    2  C5  UNL     1       9.343  24.253  -5.451  1.00  0.00     0.045 C 
HETATM    3  C6  UNL     1      10.661  24.297  -6.184  1.00  0.00     0.124 C 
HETATM    4  N2  UNL     1      10.740  23.282  -7.213  1.00  0.00    -0.390 N 
HETATM    5  C14 UNL     1       9.533  22.807  -7.868  1.00  0.00     0.124 C 
HETATM    6  C15 UNL     1       8.519  23.926  -7.804  1.00  0.00     0.045 C 
ENDROOT
BRANCH   1   7
HETATM    7  N1  UNL     1       7.199  23.305  -5.849  1.00  0.00    -0.354 N 
HETATM    8  C3  UNL     1       6.167  23.724  -4.971  1.00  0.00     0.251 C 
HETATM    9  O1  UNL     1       6.095  24.928  -4.661  1.00  0.00    -0.271 OA
ATOM     10  H1  UNL     1       7.269  22.322  -6.112  1.00  0.00     0.162 HD
BRANCH   8  11
HETATM   11  C2  UNL     1       5.231  22.686  -4.477  1.00  0.00     0.310 C 
HETATM   12  C1  UNL     1       5.078  22.871  -2.984  1.00  0.00     0.053 C 
BRANCH  11  13
HETATM   13  N3  UNL     1       5.715  21.345  -4.732  1.00  0.00     0.101 N 
HETATM   14  C16 UNL     1       4.973  20.660  -5.742  1.00  0.00     0.273 C 
HETATM   15  C17 UNL     1       4.523  19.270  -5.276  1.00  0.00     0.030 C 
HETATM   16  C18 UNL     1       5.809  18.566  -4.822  1.00  0.00     0.003 C 
HETATM   17  C19 UNL     1       6.239  19.252  -3.551  1.00  0.00     0.030 C 
HETATM   18  C20 UNL     1       5.729  20.656  -3.462  1.00  0.00     0.273 C 
ENDBRANCH  11  13
ENDBRANCH   8  11
ENDBRANCH   1   7
BRANCH   4  19
HETATM   19  C7  UNL     1      11.990  22.762  -7.571  1.00  0.00     0.088 C 
HETATM   20  C8  UNL     1      12.885  23.414  -8.294  1.00  0.00    -0.065 C 
HETATM   21  C9  UNL     1      12.534  24.782  -8.752  1.00  0.00     0.035 C 
HETATM   22  C13 UNL     1      14.187  22.859  -8.661  1.00  0.00     0.035 C 
HETATM   23  C10 UNL     1      13.648  25.692  -8.218  1.00  0.00     0.004 C 
HETATM   24  C11 UNL     1      14.914  25.253  -8.904  1.00  0.00     0.001 C 
HETATM   25  C12 UNL     1      15.311  23.849  -8.619  1.00  0.00     0.004 C 
ENDBRANCH   4  19
TORSDOF 4
ENDMDL
MODEL 2
REMARK VINA RESULT: -8.022631046      1.529      1.992
REMARK  4 active torsions:
REMARK  status: ('A' for Active; 'I' for Inactive)
REMARK    1  A    between atoms: C2_2  and  C3_3 
REMARK    2  A    between atoms: C2_2  and  N3_20 
REMARK       I    between atoms: C3_3  and  N1_5 
REMARK    3  A    between atoms: N1_5  and  C4_7 
REMARK    4  A    between atoms: N2_10  and  C7_11 
ROOT
HETATM    1  C4  UNL     1       9.673  24.116  -5.518  1.00  0.00     0.087 C 
HETATM    2  C5  UNL     1      10.297  22.832  -6.002  1.00  0.00     0.045 C 
HETATM    3  C6  UNL     1      11.296  23.044  -7.113  1.00  0.00     0.124 C 
HETATM    4  N2  UNL     1      10.748  23.847  -8.185  1.00  0.00    -0.390 N 
HETATM    5  C14 UNL     1       9.714  24.830  -7.909  1.00  0.00     0.124 C 
HETATM    6  C15 UNL     1       9.885  25.267  -6.472  1.00  0.00     0.045 C 
ENDROOT
BRANCH   1   7
HETATM    7  N1  UNL     1       8.265  23.858  -5.314  1.00  0.00    -0.354 N 
HETATM    8  C3  UNL     1       7.602  24.327  -4.152  1.00  0.00     0.251 C 
HETATM    9  O1  UNL     1       8.255  24.967  -3.306  1.00  0.00    -0.271 OA
ATOM     10  H1  UNL     1       7.743  23.332  -6.016  1.00  0.00     0.162 HD
BRANCH   8  11
HETATM   11  C2  UNL     1       6.158  24.019  -4.022  1.00  0.00     0.310 C 
HETATM   12  C1  UNL     1       5.789  24.133  -2.560  1.00  0.00     0.053 C 
BRANCH  11  13
HETATM   13  N3  UNL     1       5.839  22.682  -4.480  1.00  0.00     0.101 N 
HETATM   14  C16 UNL     1       4.683  22.633  -5.316  1.00  0.00     0.273 C 
HETATM   15  C17 UNL     1       3.683  21.568  -4.847  1.00  0.00     0.030 C 
HETATM   16  C18 UNL     1       4.492  20.266  -4.776  1.00  0.00     0.003 C 
HETATM   17  C19 UNL     1       5.434  20.417  -3.609  1.00  0.00     0.030 C 
HETATM   18  C20 UNL     1       5.733  21.850  -3.302  1.00  0.00     0.273 C 
ENDBRANCH  11  13
ENDBRANCH   8  11
ENDBRANCH   1   7
BRANCH   4  19
HETATM   19  C7  UNL     1      11.222  23.669  -9.491  1.00  0.00     0.088 C 
HETATM   20  C8  UNL     1      12.473  23.882  -9.860  1.00  0.00    -0.065 C 
HETATM   21  C9  UNL     1      13.428  24.341  -8.821  1.00  0.00     0.035 C 
HETATM   22  C13 UNL     1      12.956  23.692 -11.227  1.00  0.00     0.035 C 
HETATM   23  C10 UNL     1      14.566  23.311  -8.824  1.00  0.00     0.004 C 
HETATM   24  C11 UNL     1      15.222  23.415 -10.175  1.00  0.00     0.001 C 
HETATM   25  C12 UNL     1      14.326  23.093 -11.317  1.00  0.00     0.004 C 
ENDBRANCH   4  19
TORSDOF 4
ENDMDL
MODEL 3
REMARK VINA RESULT: -7.914460906      1.862      3.502
REMARK  4 active torsions:
REMARK  status: ('A' for Active; 'I' for Inactive)
REMARK    1  A    between atoms: C2_2  and  C3_3 
REMARK    2  A    between atoms: C2_2  and  N3_20 
REMARK       I    between atoms: C3_3  and  N1_5 
REMARK    3  A    between atoms: N1_5  and  C4_7 
REMARK    4  A    between atoms: N2_10  and  C7_11 
ROOT
HETATM    1  C4  UNL     1       5.866  23.102  -4.661  1.00  0.00     0.087 C 
HETATM    2  C5  UNL     1       6.868  23.838  -3.809  1.00  0.00     0.045 C 
HETATM    3  C6  UNL     1       7.521  24.992  -4.530  1.00  0.00     0.124 C 
HETATM    4  N2  UNL     1       8.054  24.593  -5.815  1.00  0.00    -0.390 N 
HETATM    5  C14 UNL     1       7.450  23.496  -6.551  1.00  0.00     0.124 C 
HETATM    6  C15 UNL     1       5.999  23.423  -6.132  1.00  0.00     0.045 C 
ENDROOT
BRANCH   1   7
HETATM    7  N1  UNL     1       6.051  21.689  -4.416  1.00  0.00    -0.354 N 
HETATM    8  C3  UNL     1       4.942  20.806  -4.389  1.00  0.00     0.251 C 
HETATM    9  O1  UNL     1       3.802  21.269  -4.581  1.00  0.00    -0.271 OA
ATOM     10  H1  UNL     1       6.991  21.324  -4.260  1.00  0.00     0.162 HD
BRANCH   8  11
HETATM   11  C2  UNL     1       5.220  19.373  -4.131  1.00  0.00     0.310 C 
HETATM   12  C1  UNL     1       6.718  19.172  -4.189  1.00  0.00     0.053 C 
BRANCH  11  13
HETATM   13  N3  UNL     1       4.596  18.509  -5.111  1.00  0.00     0.101 N 
HETATM   14  C16 UNL     1       4.371  17.182  -4.632  1.00  0.00     0.273 C 
HETATM   15  C17 UNL     1       4.913  16.125  -5.603  1.00  0.00     0.030 C 
HETATM   16  C18 UNL     1       4.258  16.450  -6.952  1.00  0.00     0.003 C 
HETATM   17  C19 UNL     1       4.887  17.735  -7.427  1.00  0.00     0.030 C 
HETATM   18  C20 UNL     1       5.419  18.560  -6.299  1.00  0.00     0.273 C 
ENDBRANCH  11  13
ENDBRANCH   8  11
ENDBRANCH   1   7
BRANCH   4  19
HETATM   19  C7  UNL     1       9.158  25.274  -6.343  1.00  0.00     0.088 C 
HETATM   20  C8  UNL     1      10.317  24.703  -6.622  1.00  0.00    -0.065 C 
HETATM   21  C9  UNL     1      10.448  23.248  -6.356  1.00  0.00     0.035 C 
HETATM   22  C13 UNL     1      11.463  25.425  -7.173  1.00  0.00     0.035 C 
HETATM   23  C10 UNL     1      10.855  22.620  -7.696  1.00  0.00     0.004 C 
HETATM   24  C11 UNL     1      12.211  23.183  -8.029  1.00  0.00     0.001 C 
HETATM   25  C12 UNL     1      12.234  24.659  -8.204  1.00  0.00     0.004 C 
ENDBRANCH   4  19
TORSDOF 4
ENDMDL
MODEL 4
REMARK VINA RESULT: -7.696352945      2.116      8.578
REMARK  4 active torsions:
REMARK  status: ('A' for Active; 'I' for Inactive)
REMARK    1  A    between atoms: C2_2  and  C3_3 
REMARK    2  A    between atoms: C2_2  and  N3_20 
REMARK       I    between atoms: C3_3  and  N1_5 
REMARK    3  A    between atoms: N1_5  and  C4_7 
REMARK    4  A    between atoms: N2_10  and  C7_11 
ROOT
HETATM    1  C4  UNL     1       9.729  25.380  -6.651  1.00  0.00     0.087 C 
HETATM    2  C5  UNL     1       9.360  24.266  -7.597  1.00  0.00     0.045 C 
HETATM    3  C6  UNL     1       8.228  23.409  -7.087  1.00  0.00     0.124 C 
HETATM    4  N2  UNL     1       8.466  22.950  -5.735  1.00  0.00    -0.390 N 
HETATM    5  C14 UNL     1       9.276  23.740  -4.824  1.00  0.00     0.124 C 
HETATM    6  C15 UNL     1       9.165  25.182  -5.264  1.00  0.00     0.045 C 
ENDROOT
BRANCH   1   7
HETATM    7  N1  UNL     1      11.172  25.458  -6.622  1.00  0.00    -0.354 N 
HETATM    8  C3  UNL     1      11.868  26.352  -7.475  1.00  0.00     0.251 C 
HETATM    9  O1  UNL     1      11.213  27.072  -8.253  1.00  0.00    -0.271 OA
ATOM     10  H1  UNL     1      11.696  24.862  -5.980  1.00  0.00     0.162 HD
BRANCH   8  11
HETATM   11  C2  UNL     1      13.347  26.369  -7.382  1.00  0.00     0.310 C 
HETATM   12  C1  UNL     1      13.801  27.809  -7.461  1.00  0.00     0.053 C 
BRANCH  11  13
HETATM   13  N3  UNL     1      13.973  25.624  -8.455  1.00  0.00     0.101 N 
HETATM   14  C16 UNL     1      13.503  24.280  -8.557  1.00  0.00     0.273 C 
HETATM   15  C17 UNL     1      14.661  23.274  -8.609  1.00  0.00     0.030 C 
HETATM   16  C18 UNL     1      15.547  23.745  -9.770  1.00  0.00     0.003 C 
HETATM   17  C19 UNL     1      16.199  25.023  -9.310  1.00  0.00     0.030 C 
HETATM   18  C20 UNL     1      15.402  25.722  -8.256  1.00  0.00     0.273 C 
ENDBRANCH  11  13
ENDBRANCH   8  11
ENDBRANCH   1   7
BRANCH   4  19
HETATM   19  C7  UNL     1       7.908  21.737  -5.312  1.00  0.00     0.088 C 
HETATM   20  C8  UNL     1       6.704  21.621  -4.778  1.00  0.00    -0.065 C 
HETATM   21  C9  UNL     1       5.900  22.858  -4.619  1.00  0.00     0.035 C 
HETATM   22  C13 UNL     1       6.133  20.347  -4.341  1.00  0.00     0.035 C 
HETATM   23  C10 UNL     1       4.590  22.598  -5.374  1.00  0.00     0.004 C 
HETATM   24  C11 UNL     1       3.905  21.470  -4.650  1.00  0.00     0.001 C 
HETATM   25  C12 UNL     1       4.672  20.196  -4.635  1.00  0.00     0.004 C 
ENDBRANCH   4  19
TORSDOF 4
ENDMDL
MODEL 5
REMARK VINA RESULT: -7.672163515      4.732      7.420
REMARK  4 active torsions:
REMARK  status: ('A' for Active; 'I' for Inactive)
REMARK    1  A    between atoms: C2_2  and  C3_3 
REMARK    2  A    between atoms: C2_2  and  N3_20 
REMARK       I    between atoms: C3_3  and  N1_5 
REMARK    3  A    between atoms: N1_5  and  C4_7 
REMARK    4  A    between atoms: N2_10  and  C7_11 
ROOT
HETATM    1  C4  UNL     1       5.708  18.543  -5.431  1.00  0.00     0.087 C 
HETATM    2  C5  UNL     1       4.960  19.697  -6.048  1.00  0.00     0.045 C 
HETATM    3  C6  UNL     1       5.429  21.041  -5.547  1.00  0.00     0.124 C 
HETATM    4  N2  UNL     1       5.463  21.095  -4.101  1.00  0.00    -0.390 N 
HETATM    5  C14 UNL     1       5.688  19.886  -3.327  1.00  0.00     0.124 C 
HETATM    6  C15 UNL     1       6.484  18.940  -4.197  1.00  0.00     0.045 C 
ENDROOT
BRANCH   1   7
HETATM    7  N1  UNL     1       4.738  17.514  -5.129  1.00  0.00    -0.354 N 
HETATM    8  C3  UNL     1       4.711  16.303  -5.866  1.00  0.00     0.251 C 
HETATM    9  O1  UNL     1       5.542  16.139  -6.781  1.00  0.00    -0.271 OA
ATOM     10  H1  UNL     1       4.064  17.662  -4.378  1.00  0.00     0.162 HD
BRANCH   8  11
HETATM   11  C2  UNL     1       3.684  15.302  -5.493  1.00  0.00     0.310 C 
HETATM   12  C1  UNL     1       2.571  15.375  -6.514  1.00  0.00     0.053 C 
BRANCH  11  13
HETATM   13  N3  UNL     1       3.128  15.551  -4.179  1.00  0.00     0.101 N 
HETATM   14  C16 UNL     1       3.499  14.566  -3.214  1.00  0.00     0.273 C 
HETATM   15  C17 UNL     1       2.280  14.015  -2.463  1.00  0.00     0.030 C 
HETATM   16  C18 UNL     1       1.570  15.252  -1.894  1.00  0.00     0.003 C 
HETATM   17  C19 UNL     1       0.973  15.975  -3.073  1.00  0.00     0.030 C 
HETATM   18  C20 UNL     1       1.698  15.682  -4.347  1.00  0.00     0.273 C 
ENDBRANCH  11  13
ENDBRANCH   8  11
ENDBRANCH   1   7
BRANCH   4  19
HETATM   19  C7  UNL     1       5.276  22.323  -3.454  1.00  0.00     0.088 C 
HETATM   20  C8  UNL     1       6.144  23.319  -3.490  1.00  0.00    -0.065 C 
HETATM   21  C9  UNL     1       7.393  23.115  -4.266  1.00  0.00     0.035 C 
HETATM   22  C13 UNL     1       5.937  24.597  -2.810  1.00  0.00     0.035 C 
HETATM   23  C10 UNL     1       7.430  24.254  -5.293  1.00  0.00     0.004 C 
HETATM   24  C11 UNL     1       7.546  25.530  -4.502  1.00  0.00     0.001 C 
HETATM   25  C12 UNL     1       6.402  25.790  -3.589  1.00  0.00     0.004 C 
ENDBRANCH   4  19
TORSDOF 4
ENDMDL
