MODEL 1
REMARK VINA RESULT: -7.326459625      0.000      0.000
REMARK  5 active torsions:
REMARK  status: ('A' for Active; 'I' for Inactive)
REMARK    1  A    between atoms: C2_2  and  C3_3 
REMARK    2  A    between atoms: C3_3  and  C4_4 
REMARK    3  A    between atoms: C4_4  and  N1_5 
REMARK       I    between atoms: N1_5  and  C5_6 
REMARK       I    between atoms: C5_6  and  N3_8 
REMARK    4  A    between atoms: N3_8  and  C6_10 
REMARK    5  A    between atoms: C8_12  and  C9_13 
ROOT
HETATM    1  C6  UNL     1       9.320   9.266   1.528  1.00  0.00     0.125 A 
HETATM    2  C7  UNL     1       9.296   9.525   2.884  1.00  0.00     0.077 A 
HETATM    3  C8  UNL     1       7.975   9.530   3.269  1.00  0.00     0.039 A 
HETATM    4  N4  UNL     1       7.206   9.284   2.195  1.00  0.00    -0.298 N 
HETATM    5  C13 UNL     1       5.755   9.192   2.155  1.00  0.00     0.177 C 
HETATM    6  N5  UNL     1       8.038   9.128   1.159  1.00  0.00    -0.283 N 
ATOM      7  H5  UNL     1       7.735   8.929   0.207  1.00  0.00     0.188 HD
ENDROOT
BRANCH   1   8
HETATM    8  N3  UNL     1      10.400   9.182   0.789  1.00  0.00    -0.304 N 
HETATM    9  C5  UNL     1      10.663  10.153  -0.197  1.00  0.00     0.263 C 
HETATM   10  N1  UNL     1      11.629  10.841  -0.267  1.00  0.00    -0.418 NA
HETATM   11  N2  UNL     1       9.624  10.279  -1.212  1.00  0.00    -0.049 NA
ATOM     12  H3  UNL     1      11.051   8.410   0.928  1.00  0.00     0.171 HD
BRANCH  10  13
HETATM   13  C4  UNL     1      12.789  11.490  -0.128  1.00  0.00     0.221 C 
BRANCH  13  14
HETATM   14  C3  UNL     1      12.627  12.716   0.788  1.00  0.00     0.033 C 
BRANCH  14  15
HETATM   15  C2  UNL     1      12.741  13.950  -0.071  1.00  0.00    -0.002 C 
HETATM   16  C1  UNL     1      14.044  13.845  -0.860  1.00  0.00     0.005 C 
ENDBRANCH  14  15
ENDBRANCH  13  14
ENDBRANCH  10  13
ENDBRANCH   1   8
BRANCH   3  17
HETATM   17  C9  UNL     1       7.559   9.768   4.669  1.00  0.00    -0.007 C 
HETATM   18  C10 UNL     1       8.537  10.785   5.282  1.00  0.00     0.021 C 
HETATM   19  C11 UNL     1       6.208  10.406   4.822  1.00  0.00     0.021 C 
HETATM   20  C12 UNL     1       7.691   8.515   5.517  1.00  0.00     0.021 C 
ENDBRANCH   3  17
TORSDOF 5
ENDMDL
MODEL 2
REMARK VINA RESULT: -7.025471218      2.908      4.298
REMARK  5 active torsions:
REMARK  status: ('A' for Active; 'I' for Inactive)
REMARK    1  A    between atoms: C2_2  and  C3_3 
REMARK    2  A    between atoms: C3_3  and  C4_4 
REMARK    3  A    between atoms: C4_4  and  N1_5 
REMARK       I    between atoms: N1_5  and  C5_6 
REMARK       I    between atoms: C5_6  and  N3_8 
REMARK    4  A    between atoms: N3_8  and  C6_10 
REMARK    5  A    between atoms: C8_12  and  C9_13 
ROOT
HETATM    1  C6  UNL     1      12.009  10.315   1.034  1.00  0.00     0.125 A 
HETATM    2  C7  UNL     1      10.697  10.060   1.383  1.00  0.00     0.077 A 
HETATM    3  C8  UNL     1      10.690   9.755   2.726  1.00  0.00     0.039 A 
HETATM    4  N4  UNL     1      11.947   9.820   3.194  1.00  0.00    -0.298 N 
HETATM    5  C13 UNL     1      12.390   9.581   4.560  1.00  0.00     0.177 C 
HETATM    6  N5  UNL     1      12.723  10.159   2.159  1.00  0.00    -0.283 N 
ATOM      7  H5  UNL     1      13.733  10.283   2.217  1.00  0.00     0.188 HD
ENDROOT
BRANCH   1   8
HETATM    8  N3  UNL     1      12.427  10.641  -0.165  1.00  0.00    -0.304 N 
HETATM    9  C5  UNL     1      13.582  11.432  -0.324  1.00  0.00     0.263 C 
HETATM   10  N1  UNL     1      14.560  11.136  -0.927  1.00  0.00    -0.418 NA
HETATM   11  N2  UNL     1      13.513  12.735   0.326  1.00  0.00    -0.049 NA
ATOM     12  H3  UNL     1      11.913  10.321  -0.986  1.00  0.00     0.171 HD
BRANCH  10  13
HETATM   13  C4  UNL     1      15.534  10.577  -1.653  1.00  0.00     0.221 C 
BRANCH  13  14
HETATM   14  C3  UNL     1      15.046  10.263  -3.078  1.00  0.00     0.033 C 
BRANCH  14  15
HETATM   15  C2  UNL     1      15.712   8.984  -3.520  1.00  0.00    -0.002 C 
HETATM   16  C1  UNL     1      16.074   9.136  -4.995  1.00  0.00     0.005 C 
ENDBRANCH  14  15
ENDBRANCH  13  14
ENDBRANCH  10  13
ENDBRANCH   1   8
BRANCH   3  17
HETATM   17  C9  UNL     1       9.445   9.432   3.457  1.00  0.00    -0.007 C 
HETATM   18  C10 UNL     1       8.273   9.574   2.473  1.00  0.00     0.021 C 
HETATM   19  C11 UNL     1       9.357   8.014   3.947  1.00  0.00     0.021 C 
HETATM   20  C12 UNL     1       9.167  10.430   4.567  1.00  0.00     0.021 C 
ENDBRANCH   3  17
TORSDOF 5
ENDMDL
MODEL 3
REMARK VINA RESULT: -6.932677329      4.132      7.283
REMARK  5 active torsions:
REMARK  status: ('A' for Active; 'I' for Inactive)
REMARK    1  A    between atoms: C2_2  and  C3_3 
REMARK    2  A    between atoms: C3_3  and  C4_4 
REMARK    3  A    between atoms: C4_4  and  N1_5 
REMARK       I    between atoms: N1_5  and  C5_6 
REMARK       I    between atoms: C5_6  and  N3_8 
REMARK    4  A    between atoms: N3_8  and  C6_10 
REMARK    5  A    between atoms: C8_12  and  C9_13 
ROOT
HETATM    1  C6  UNL     1      12.418   8.395   2.315  1.00  0.00     0.125 A 
HETATM    2  C7  UNL     1      13.308   8.446   3.370  1.00  0.00     0.077 A 
HETATM    3  C8  UNL     1      14.490   7.898   2.926  1.00  0.00     0.039 A 
HETATM    4  N4  UNL     1      14.342   7.522   1.645  1.00  0.00    -0.298 N 
HETATM    5  C13 UNL     1      15.345   6.908   0.789  1.00  0.00     0.177 C 
HETATM    6  N5  UNL     1      13.088   7.831   1.299  1.00  0.00    -0.283 N 
ATOM      7  H5  UNL     1      12.690   7.660   0.377  1.00  0.00     0.188 HD
ENDROOT
BRANCH   1   8
HETATM    8  N3  UNL     1      11.179   8.823   2.344  1.00  0.00    -0.304 N 
HETATM    9  C5  UNL     1      10.127   7.932   2.637  1.00  0.00     0.263 C 
HETATM   10  N1  UNL     1       9.346   8.033   3.526  1.00  0.00    -0.418 NA
HETATM   11  N2  UNL     1      10.025   6.800   1.724  1.00  0.00    -0.049 NA
ATOM     12  H3  UNL     1      10.976   9.804   2.153  1.00  0.00     0.171 HD
BRANCH  10  13
HETATM   13  C4  UNL     1       8.601   8.365   4.585  1.00  0.00     0.221 C 
BRANCH  13  14
HETATM   14  C3  UNL     1       7.295   9.050   4.145  1.00  0.00     0.033 C 
BRANCH  14  15
HETATM   15  C2  UNL     1       6.865   9.974   5.257  1.00  0.00    -0.002 C 
HETATM   16  C1  UNL     1       5.338   9.991   5.279  1.00  0.00     0.005 C 
ENDBRANCH  14  15
ENDBRANCH  13  14
ENDBRANCH  10  13
ENDBRANCH   1   8
BRANCH   3  17
HETATM   17  C9  UNL     1      15.686   7.791   3.791  1.00  0.00    -0.007 C 
HETATM   18  C10 UNL     1      15.336   8.409   5.154  1.00  0.00     0.021 C 
HETATM   19  C11 UNL     1      16.104   6.384   4.111  1.00  0.00     0.021 C 
HETATM   20  C12 UNL     1      16.844   8.615   3.256  1.00  0.00     0.021 C 
ENDBRANCH   3  17
TORSDOF 5
ENDMDL
MODEL 4
REMARK VINA RESULT: -6.797031334      2.389      6.792
REMARK  5 active torsions:
REMARK  status: ('A' for Active; 'I' for Inactive)
REMARK    1  A    between atoms: C2_2  and  C3_3 
REMARK    2  A    between atoms: C3_3  and  C4_4 
REMARK    3  A    between atoms: C4_4  and  N1_5 
REMARK       I    between atoms: N1_5  and  C5_6 
REMARK       I    between atoms: C5_6  and  N3_8 
REMARK    4  A    between atoms: N3_8  and  C6_10 
REMARK    5  A    between atoms: C8_12  and  C9_13 
ROOT
HETATM    1  C6  UNL     1       9.473   8.749   2.797  1.00  0.00     0.125 A 
HETATM    2  C7  UNL     1      10.047   9.482   1.777  1.00  0.00     0.077 A 
HETATM    3  C8  UNL     1      11.278   9.902   2.227  1.00  0.00     0.039 A 
HETATM    4  N4  UNL     1      11.464   9.448   3.477  1.00  0.00    -0.298 N 
HETATM    5  C13 UNL     1      12.631   9.653   4.322  1.00  0.00     0.177 C 
HETATM    6  N5  UNL     1      10.366   8.757   3.799  1.00  0.00    -0.283 N 
ATOM      7  H5  UNL     1      10.223   8.293   4.695  1.00  0.00     0.188 HD
ENDROOT
BRANCH   1   8
HETATM    8  N3  UNL     1       8.294   8.178   2.754  1.00  0.00    -0.304 N 
HETATM    9  C5  UNL     1       7.175   8.817   3.322  1.00  0.00     0.263 C 
HETATM   10  N1  UNL     1       6.173   9.116   2.758  1.00  0.00    -0.418 NA
HETATM   11  N2  UNL     1       7.305   9.109   4.744  1.00  0.00    -0.049 NA
ATOM     12  H3  UNL     1       8.187   7.268   2.307  1.00  0.00     0.171 HD
BRANCH  10  13
HETATM   13  C4  UNL     1       5.163   9.348   1.913  1.00  0.00     0.221 C 
BRANCH  13  14
HETATM   14  C3  UNL     1       3.899   9.785   2.675  1.00  0.00     0.033 C 
BRANCH  14  15
HETATM   15  C2  UNL     1       3.762   8.897   3.886  1.00  0.00    -0.002 C 
HETATM   16  C1  UNL     1       3.748   9.797   5.120  1.00  0.00     0.005 C 
ENDBRANCH  14  15
ENDBRANCH  13  14
ENDBRANCH  10  13
ENDBRANCH   1   8
BRANCH   3  17
HETATM   17  C9  UNL     1      12.190  10.714   1.391  1.00  0.00    -0.007 C 
HETATM   18  C10 UNL     1      11.541  10.873   0.006  1.00  0.00     0.021 C 
HETATM   19  C11 UNL     1      12.397  12.121   1.874  1.00  0.00     0.021 C 
HETATM   20  C12 UNL     1      13.510  10.004   1.143  1.00  0.00     0.021 C 
ENDBRANCH   3  17
TORSDOF 5
ENDMDL
MODEL 5
REMARK VINA RESULT: -6.779254981      1.269      1.801
REMARK  5 active torsions:
REMARK  status: ('A' for Active; 'I' for Inactive)
REMARK    1  A    between atoms: C2_2  and  C3_3 
REMARK    2  A    between atoms: C3_3  and  C4_4 
REMARK    3  A    between atoms: C4_4  and  N1_5 
REMARK       I    between atoms: N1_5  and  C5_6 
REMARK       I    between atoms: C5_6  and  N3_8 
REMARK    4  A    between atoms: N3_8  and  C6_10 
REMARK    5  A    between atoms: C8_12  and  C9_13 
ROOT
HETATM    1  C6  UNL     1       8.474   9.089   1.482  1.00  0.00     0.125 A 
HETATM    2  C7  UNL     1       8.689   9.327   2.826  1.00  0.00     0.077 A 
HETATM    3  C8  UNL     1       7.451   9.416   3.421  1.00  0.00     0.039 A 
HETATM    4  N4  UNL     1       6.503   9.240   2.485  1.00  0.00    -0.298 N 
HETATM    5  C13 UNL     1       5.061   9.247   2.682  1.00  0.00     0.177 C 
HETATM    6  N5  UNL     1       7.142   9.045   1.327  1.00  0.00    -0.283 N 
ATOM      7  H5  UNL     1       6.675   8.883   0.435  1.00  0.00     0.188 HD
ENDROOT
BRANCH   1   8
HETATM    8  N3  UNL     1       9.411   8.944   0.577  1.00  0.00    -0.304 N 
HETATM    9  C5  UNL     1       9.748  10.015  -0.275  1.00  0.00     0.263 C 
HETATM   10  N1  UNL     1      10.820  10.512  -0.390  1.00  0.00    -0.418 NA
HETATM   11  N2  UNL     1       8.640  10.516  -1.079  1.00  0.00    -0.049 NA
ATOM     12  H3  UNL     1       9.897   8.052   0.488  1.00  0.00     0.171 HD
BRANCH  10  13
HETATM   13  C4  UNL     1      12.099  10.897  -0.338  1.00  0.00     0.221 C 
BRANCH  13  14
HETATM   14  C3  UNL     1      12.427  11.532   1.025  1.00  0.00     0.033 C 
BRANCH  14  15
HETATM   15  C2  UNL     1      12.448  10.428   2.052  1.00  0.00    -0.002 C 
HETATM   16  C1  UNL     1      11.736  10.945   3.301  1.00  0.00     0.005 C 
ENDBRANCH  14  15
ENDBRANCH  13  14
ENDBRANCH  10  13
ENDBRANCH   1   8
BRANCH   3  17
HETATM   17  C9  UNL     1       7.286   9.658   4.871  1.00  0.00    -0.007 C 
HETATM   18  C10 UNL     1       8.287  10.751   5.281  1.00  0.00     0.021 C 
HETATM   19  C11 UNL     1       5.945  10.208   5.266  1.00  0.00     0.021 C 
HETATM   20  C12 UNL     1       7.659   8.437   5.693  1.00  0.00     0.021 C 
ENDBRANCH   3  17
TORSDOF 5
ENDMDL
