MODEL 1
REMARK VINA RESULT: -6.702057646      0.000      0.000
REMARK  6 active torsions:
REMARK  status: ('A' for Active; 'I' for Inactive)
REMARK    1  A    between atoms: C2_2  and  N1_3 
REMARK       I    between atoms: N1_3  and  C3_5 
REMARK       I    between atoms: C3_5  and  N2_6 
REMARK    2  A    between atoms: N2_6  and  O1_8 
REMARK    3  A    between atoms: N3_10  and  C4_12 
REMARK    4  A    between atoms: C4_12  and  N4_14 
REMARK       I    between atoms: N4_14  and  C5_16 
REMARK    5  A    between atoms: C5_16  and  C6_18 
REMARK    6  A    between atoms: C6_18  and  C9_21 
ROOT
HETATM    1  N1  UNL     1      12.921   9.990   1.847  1.00  0.00    -0.225 N 
ATOM      2  H1  UNL     1      12.799  10.359   2.791  1.00  0.00     0.177 HD
HETATM    3  C3  UNL     1      12.373   8.738   1.540  1.00  0.00     0.700 C 
HETATM    4  N2  UNL     1      13.225   7.575   1.570  1.00  0.00    -0.099 N 
ATOM      5  H2  UNL     1      13.733   7.297   0.731  1.00  0.00     0.213 HD
HETATM    6  N3  UNL     1      11.147   8.510   1.223  1.00  0.00    -0.165 N 
ATOM      7  H3  UNL     1      10.888   7.543   1.024  1.00  0.00     0.186 HD
ENDROOT
BRANCH   6   8
HETATM    8  C4  UNL     1      10.132   9.480   1.127  1.00  0.00     0.193 C 
HETATM    9  S1  UNL     1       9.764  10.107  -0.323  1.00  0.00    -0.040 SA
BRANCH   8  10
HETATM   10  N4  UNL     1       9.430   9.919   2.267  1.00  0.00    -0.303 N 
HETATM   11  C5  UNL     1       8.754   9.039   3.150  1.00  0.00     0.231 C 
HETATM   12  O2  UNL     1       8.761   7.800   2.937  1.00  0.00    -0.272 OA
ATOM     13  H4  UNL     1       9.406  10.919   2.467  1.00  0.00     0.171 HD
BRANCH  11  14
HETATM   14  C6  UNL     1       8.028   9.530   4.336  1.00  0.00     0.034 C 
HETATM   15  C7  UNL     1       8.006   8.369   5.341  1.00  0.00     0.025 C 
HETATM   16  C8  UNL     1       8.765  10.663   4.958  1.00  0.00     0.025 C 
BRANCH  14  17
HETATM   17  C9  UNL     1       6.583   9.843   4.045  1.00  0.00     0.014 C 
HETATM   18  C10 UNL     1       5.755  10.122   5.253  1.00  0.00     0.006 C 
ENDBRANCH  14  17
ENDBRANCH  11  14
ENDBRANCH   8  10
ENDBRANCH   6   8
BRANCH   1  19
HETATM   19  C2  UNL     1      13.652  10.781   0.882  1.00  0.00     0.134 C 
HETATM   20  C1  UNL     1      12.932  12.086   0.645  1.00  0.00     0.027 C 
ENDBRANCH   1  19
BRANCH   4  21
HETATM   21  O1  UNL     1      13.344   6.914   2.606  1.00  0.00    -0.276 OA
ATOM     22  H1  UNL     1      13.940   7.196   3.291  1.00  0.00     0.245 HD
ENDBRANCH   4  21
TORSDOF 6
ENDMDL
MODEL 2
REMARK VINA RESULT: -6.570459808      1.078      1.219
REMARK  6 active torsions:
REMARK  status: ('A' for Active; 'I' for Inactive)
REMARK    1  A    between atoms: C2_2  and  N1_3 
REMARK       I    between atoms: N1_3  and  C3_5 
REMARK       I    between atoms: C3_5  and  N2_6 
REMARK    2  A    between atoms: N2_6  and  O1_8 
REMARK    3  A    between atoms: N3_10  and  C4_12 
REMARK    4  A    between atoms: C4_12  and  N4_14 
REMARK       I    between atoms: N4_14  and  C5_16 
REMARK    5  A    between atoms: C5_16  and  C6_18 
REMARK    6  A    between atoms: C6_18  and  C9_21 
ROOT
HETATM    1  N1  UNL     1      13.009  11.542   1.385  1.00  0.00    -0.225 N 
ATOM      2  H1  UNL     1      12.836  12.017   2.271  1.00  0.00     0.177 HD
HETATM    3  C3  UNL     1      13.010  10.141   1.364  1.00  0.00     0.700 C 
HETATM    4  N2  UNL     1      14.270   9.442   1.416  1.00  0.00    -0.099 N 
ATOM      5  H2  UNL     1      14.763   9.221   0.551  1.00  0.00     0.213 HD
HETATM    6  N3  UNL     1      11.968   9.388   1.299  1.00  0.00    -0.165 N 
ATOM      7  H3  UNL     1      12.120   8.380   1.292  1.00  0.00     0.186 HD
ENDROOT
BRANCH   6   8
HETATM    8  C4  UNL     1      10.636   9.838   1.239  1.00  0.00     0.193 C 
HETATM    9  S1  UNL     1       9.929  10.041  -0.207  1.00  0.00    -0.040 SA
BRANCH   8  10
HETATM   10  N4  UNL     1       9.904  10.116   2.410  1.00  0.00    -0.303 N 
HETATM   11  C5  UNL     1       8.951   9.222   2.961  1.00  0.00     0.231 C 
HETATM   12  O2  UNL     1       8.721   8.119   2.405  1.00  0.00    -0.272 OA
ATOM     13  H4  UNL     1      10.068  11.003   2.885  1.00  0.00     0.171 HD
BRANCH  11  14
HETATM   14  C6  UNL     1       8.202   9.543   4.191  1.00  0.00     0.034 C 
HETATM   15  C7  UNL     1       8.227   8.274   5.056  1.00  0.00     0.025 C 
HETATM   16  C8  UNL     1       8.888  10.627   4.944  1.00  0.00     0.025 C 
BRANCH  14  17
HETATM   17  C9  UNL     1       6.745   9.826   3.928  1.00  0.00     0.014 C 
HETATM   18  C10 UNL     1       5.955  10.185   5.139  1.00  0.00     0.006 C 
ENDBRANCH  14  17
ENDBRANCH  11  14
ENDBRANCH   8  10
ENDBRANCH   6   8
BRANCH   1  19
HETATM   19  C2  UNL     1      13.244  12.341   0.203  1.00  0.00     0.134 C 
HETATM   20  C1  UNL     1      12.574  13.685   0.357  1.00  0.00     0.027 C 
ENDBRANCH   1  19
BRANCH   4  21
HETATM   21  O1  UNL     1      14.754   9.108   2.501  1.00  0.00    -0.276 OA
ATOM     22  H1  UNL     1      14.877   9.750   3.191  1.00  0.00     0.245 HD
ENDBRANCH   4  21
TORSDOF 6
ENDMDL
MODEL 3
REMARK VINA RESULT: -6.500230734      2.260      2.446
REMARK  6 active torsions:
REMARK  status: ('A' for Active; 'I' for Inactive)
REMARK    1  A    between atoms: C2_2  and  N1_3 
REMARK       I    between atoms: N1_3  and  C3_5 
REMARK       I    between atoms: C3_5  and  N2_6 
REMARK    2  A    between atoms: N2_6  and  O1_8 
REMARK    3  A    between atoms: N3_10  and  C4_12 
REMARK    4  A    between atoms: C4_12  and  N4_14 
REMARK       I    between atoms: N4_14  and  C5_16 
REMARK    5  A    between atoms: C5_16  and  C6_18 
REMARK    6  A    between atoms: C6_18  and  C9_21 
ROOT
HETATM    1  N1  UNL     1      13.135   9.931   1.947  1.00  0.00    -0.225 N 
ATOM      2  H1  UNL     1      14.005  10.383   2.228  1.00  0.00     0.177 HD
HETATM    3  C3  UNL     1      12.958   8.573   2.242  1.00  0.00     0.700 C 
HETATM    4  N2  UNL     1      13.218   7.595   1.216  1.00  0.00    -0.099 N 
ATOM      5  H2  UNL     1      12.469   7.313   0.583  1.00  0.00     0.213 HD
HETATM    6  N3  UNL     1      12.575   8.092   3.373  1.00  0.00    -0.165 N 
ATOM      7  H3  UNL     1      12.490   7.077   3.444  1.00  0.00     0.186 HD
ENDROOT
BRANCH   6   8
HETATM    8  C4  UNL     1      12.263   8.845   4.519  1.00  0.00     0.193 C 
HETATM    9  S1  UNL     1      13.376   9.020   5.686  1.00  0.00    -0.040 SA
BRANCH   8  10
HETATM   10  N4  UNL     1      11.000   9.451   4.675  1.00  0.00    -0.303 N 
HETATM   11  C5  UNL     1       9.793   8.857   4.226  1.00  0.00     0.231 C 
HETATM   12  O2  UNL     1       9.811   7.736   3.658  1.00  0.00    -0.272 OA
ATOM     13  H4  UNL     1      10.951  10.361   5.132  1.00  0.00     0.171 HD
BRANCH  11  14
HETATM   14  C6  UNL     1       8.486   9.517   4.405  1.00  0.00     0.034 C 
HETATM   15  C7  UNL     1       7.678   8.625   5.359  1.00  0.00     0.025 C 
HETATM   16  C8  UNL     1       8.664  10.843   5.056  1.00  0.00     0.025 C 
BRANCH  14  17
HETATM   17  C9  UNL     1       7.685   9.578   3.130  1.00  0.00     0.014 C 
HETATM   18  C10 UNL     1       6.283   9.089   3.255  1.00  0.00     0.006 C 
ENDBRANCH  14  17
ENDBRANCH  11  14
ENDBRANCH   8  10
ENDBRANCH   6   8
BRANCH   1  19
HETATM   19  C2  UNL     1      12.134  10.717   1.261  1.00  0.00     0.134 C 
HETATM   20  C1  UNL     1      12.735  11.334   0.021  1.00  0.00     0.027 C 
ENDBRANCH   1  19
BRANCH   4  21
HETATM   21  O1  UNL     1      14.341   7.096   1.098  1.00  0.00    -0.276 OA
ATOM     22  H1  UNL     1      14.488   6.382   0.488  1.00  0.00     0.245 HD
ENDBRANCH   4  21
TORSDOF 6
ENDMDL
MODEL 4
REMARK VINA RESULT: -6.425653833      2.305      2.625
REMARK  6 active torsions:
REMARK  status: ('A' for Active; 'I' for Inactive)
REMARK    1  A    between atoms: C2_2  and  N1_3 
REMARK       I    between atoms: N1_3  and  C3_5 
REMARK       I    between atoms: C3_5  and  N2_6 
REMARK    2  A    between atoms: N2_6  and  O1_8 
REMARK    3  A    between atoms: N3_10  and  C4_12 
REMARK    4  A    between atoms: C4_12  and  N4_14 
REMARK       I    between atoms: N4_14  and  C5_16 
REMARK    5  A    between atoms: C5_16  and  C6_18 
REMARK    6  A    between atoms: C6_18  and  C9_21 
ROOT
HETATM    1  N1  UNL     1      13.636   9.606   1.986  1.00  0.00    -0.225 N 
ATOM      2  H1  UNL     1      14.517   9.984   2.335  1.00  0.00     0.177 HD
HETATM    3  C3  UNL     1      13.303   8.282   2.300  1.00  0.00     0.700 C 
HETATM    4  N2  UNL     1      13.560   7.248   1.329  1.00  0.00    -0.099 N 
ATOM      5  H2  UNL     1      12.849   7.015   0.636  1.00  0.00     0.213 HD
HETATM    6  N3  UNL     1      12.773   7.880   3.401  1.00  0.00    -0.165 N 
ATOM      7  H3  UNL     1      12.584   6.881   3.491  1.00  0.00     0.186 HD
ENDROOT
BRANCH   6   8
HETATM    8  C4  UNL     1      12.431   8.700   4.492  1.00  0.00     0.193 C 
HETATM    9  S1  UNL     1      13.485   8.883   5.712  1.00  0.00    -0.040 SA
BRANCH   8  10
HETATM   10  N4  UNL     1      11.190   9.365   4.546  1.00  0.00    -0.303 N 
HETATM   11  C5  UNL     1       9.979   8.790   4.085  1.00  0.00     0.231 C 
HETATM   12  O2  UNL     1       9.974   7.631   3.599  1.00  0.00    -0.272 OA
ATOM     13  H4  UNL     1      11.162  10.307   4.936  1.00  0.00     0.171 HD
BRANCH  11  14
HETATM   14  C6  UNL     1       8.696   9.513   4.157  1.00  0.00     0.034 C 
HETATM   15  C7  UNL     1       8.995  10.857   4.839  1.00  0.00     0.025 C 
HETATM   16  C8  UNL     1       8.186   9.796   2.788  1.00  0.00     0.025 C 
BRANCH  14  17
HETATM   17  C9  UNL     1       7.689   8.825   5.042  1.00  0.00     0.014 C 
HETATM   18  C10 UNL     1       6.413   9.574   5.226  1.00  0.00     0.006 C 
ENDBRANCH  14  17
ENDBRANCH  11  14
ENDBRANCH   8  10
ENDBRANCH   6   8
BRANCH   1  19
HETATM   19  C2  UNL     1      12.783  10.458   1.187  1.00  0.00     0.134 C 
HETATM   20  C1  UNL     1      12.213  11.558   2.050  1.00  0.00     0.027 C 
ENDBRANCH   1  19
BRANCH   4  21
HETATM   21  O1  UNL     1      14.635   6.642   1.331  1.00  0.00    -0.276 OA
ATOM     22  H1  UNL     1      14.944   6.215   2.122  1.00  0.00     0.245 HD
ENDBRANCH   4  21
TORSDOF 6
ENDMDL
MODEL 5
REMARK VINA RESULT: -6.424235493      2.758      3.392
REMARK  6 active torsions:
REMARK  status: ('A' for Active; 'I' for Inactive)
REMARK    1  A    between atoms: C2_2  and  N1_3 
REMARK       I    between atoms: N1_3  and  C3_5 
REMARK       I    between atoms: C3_5  and  N2_6 
REMARK    2  A    between atoms: N2_6  and  O1_8 
REMARK    3  A    between atoms: N3_10  and  C4_12 
REMARK    4  A    between atoms: C4_12  and  N4_14 
REMARK       I    between atoms: N4_14  and  C5_16 
REMARK    5  A    between atoms: C5_16  and  C6_18 
REMARK    6  A    between atoms: C6_18  and  C9_21 
ROOT
HETATM    1  N1  UNL     1      13.584   7.776   1.477  1.00  0.00    -0.225 N 
ATOM      2  H1  UNL     1      12.772   7.255   1.146  1.00  0.00     0.177 HD
HETATM    3  C3  UNL     1      13.437   9.141   1.756  1.00  0.00     0.700 C 
HETATM    4  N2  UNL     1      13.843  10.105   0.764  1.00  0.00    -0.099 N 
ATOM      5  H2  UNL     1      14.803  10.450   0.755  1.00  0.00     0.213 HD
HETATM    6  N3  UNL     1      12.963   9.640   2.843  1.00  0.00    -0.165 N 
ATOM      7  H3  UNL     1      12.915  10.657   2.908  1.00  0.00     0.186 HD
ENDROOT
BRANCH   6   8
HETATM    8  C4  UNL     1      12.504   8.903   3.950  1.00  0.00     0.193 C 
HETATM    9  S1  UNL     1      13.575   8.326   5.023  1.00  0.00    -0.040 SA
BRANCH   8  10
HETATM   10  N4  UNL     1      11.130   8.656   4.146  1.00  0.00    -0.303 N 
HETATM   11  C5  UNL     1      10.147   9.677   4.128  1.00  0.00     0.231 C 
HETATM   12  O2  UNL     1      10.479  10.873   3.931  1.00  0.00    -0.272 OA
ATOM     13  H4  UNL     1      10.829   7.696   4.308  1.00  0.00     0.171 HD
BRANCH  11  14
HETATM   14  C6  UNL     1       8.716   9.385   4.335  1.00  0.00     0.034 C 
HETATM   15  C7  UNL     1       8.012   9.712   3.010  1.00  0.00     0.025 C 
HETATM   16  C8  UNL     1       8.521   7.936   4.613  1.00  0.00     0.025 C 
BRANCH  14  17
HETATM   17  C9  UNL     1       8.081  10.283   5.365  1.00  0.00     0.014 C 
HETATM   18  C10 UNL     1       6.591  10.280   5.355  1.00  0.00     0.006 C 
ENDBRANCH  14  17
ENDBRANCH  11  14
ENDBRANCH   8  10
ENDBRANCH   6   8
BRANCH   1  19
HETATM   19  C2  UNL     1      14.840   7.076   1.638  1.00  0.00     0.134 C 
HETATM   20  C1  UNL     1      15.536   6.970   0.303  1.00  0.00     0.027 C 
ENDBRANCH   1  19
BRANCH   4  21
HETATM   21  O1  UNL     1      13.036  10.516  -0.075  1.00  0.00    -0.276 OA
ATOM     22  H1  UNL     1      13.073  11.416  -0.377  1.00  0.00     0.245 HD
ENDBRANCH   4  21
TORSDOF 6
ENDMDL
