MODEL 1
REMARK VINA RESULT: -7.191258458      0.000      0.000
REMARK  4 active torsions:
REMARK  status: ('A' for Active; 'I' for Inactive)
REMARK    1  A    between atoms: C2_2  and  C3_3 
REMARK    2  A    between atoms: C4_6  and  N2_7 
REMARK       I    between atoms: N2_7  and  C5_9 
REMARK    3  A    between atoms: C5_9  and  C6_11 
REMARK    4  A    between atoms: C11_18  and  C12_19 
ROOT
HETATM    1  C3  UNL     1       7.103   9.438   4.535  1.00  0.00     0.079 A 
HETATM    2  N1  UNL     1       8.156   8.706   4.990  1.00  0.00    -0.189 N 
ATOM      3  H1  UNL     1       8.434   8.631   5.968  1.00  0.00     0.184 HD
HETATM    4  C4  UNL     1       8.778   8.096   3.966  1.00  0.00     0.686 A 
HETATM    5  N3  UNL     1       8.115   8.444   2.877  1.00  0.00    -0.186 N 
ATOM      6  H3  UNL     1       8.355   8.132   1.935  1.00  0.00     0.184 HD
HETATM    7  C11 UNL     1       7.067   9.275   3.168  1.00  0.00     0.121 A 
ENDROOT
BRANCH   4   8
HETATM    8  N2  UNL     1       9.814   7.334   4.104  1.00  0.00    -0.159 N 
HETATM    9  C5  UNL     1      11.047   7.621   3.511  1.00  0.00     0.240 C 
HETATM   10  O1  UNL     1      11.457   6.898   2.574  1.00  0.00    -0.272 OA
ATOM     11  H2  UNL     1       9.728   6.490   4.670  1.00  0.00     0.187 HD
BRANCH   9  12
HETATM   12  C6  UNL     1      11.862   8.751   3.965  1.00  0.00     0.087 A 
HETATM   13  C7  UNL     1      13.250   8.957   3.490  1.00  0.00     0.024 A 
HETATM   14  C8  UNL     1      13.011   8.407   4.866  1.00  0.00    -0.035 A 
HETATM   15  C9  UNL     1      13.165   9.335   6.056  1.00  0.00     0.015 C 
HETATM   16  C10 UNL     1      13.365   6.968   5.147  1.00  0.00     0.015 C 
ENDBRANCH   9  12
ENDBRANCH   4   8
BRANCH   1  17
HETATM   17  C2  UNL     1       6.199  10.233   5.346  1.00  0.00     0.022 C 
HETATM   18  C1  UNL     1       4.939   9.862   5.446  1.00  0.00     0.013 C 
ENDBRANCH   1  17
BRANCH   7  19
HETATM   19  C12 UNL     1       6.149   9.833   2.186  1.00  0.00     0.174 C 
HETATM   20  C13 UNL     1       4.772   9.327   1.992  1.00  0.00     0.098 C 
HETATM   21  O2  UNL     1       6.508  10.779   1.461  1.00  0.00    -0.291 OA
ENDBRANCH   7  19
TORSDOF 4
ENDMDL
MODEL 2
REMARK VINA RESULT: -7.182541653      1.289      1.650
REMARK  4 active torsions:
REMARK  status: ('A' for Active; 'I' for Inactive)
REMARK    1  A    between atoms: C2_2  and  C3_3 
REMARK    2  A    between atoms: C4_6  and  N2_7 
REMARK       I    between atoms: N2_7  and  C5_9 
REMARK    3  A    between atoms: C5_9  and  C6_11 
REMARK    4  A    between atoms: C11_18  and  C12_19 
ROOT
HETATM    1  C3  UNL     1       6.267   9.526   4.501  1.00  0.00     0.079 A 
HETATM    2  N1  UNL     1       7.463   8.954   4.811  1.00  0.00    -0.189 N 
ATOM      3  H1  UNL     1       7.870   8.927   5.745  1.00  0.00     0.184 HD
HETATM    4  C4  UNL     1       8.030   8.430   3.710  1.00  0.00     0.686 A 
HETATM    5  N3  UNL     1       7.191   8.672   2.718  1.00  0.00    -0.186 N 
ATOM      6  H3  UNL     1       7.351   8.390   1.750  1.00  0.00     0.184 HD
HETATM    7  C11 UNL     1       6.081   9.348   3.148  1.00  0.00     0.121 A 
ENDROOT
BRANCH   4   8
HETATM    8  N2  UNL     1       9.172   7.825   3.708  1.00  0.00    -0.159 N 
HETATM    9  C5  UNL     1      10.009   7.794   2.587  1.00  0.00     0.240 C 
HETATM   10  O1  UNL     1      10.174   6.712   1.980  1.00  0.00    -0.272 OA
ATOM     11  H2  UNL     1       9.476   7.352   4.559  1.00  0.00     0.187 HD
BRANCH   9  12
HETATM   12  C6  UNL     1      10.688   9.002   2.115  1.00  0.00     0.087 A 
HETATM   13  C7  UNL     1      12.079   8.971   1.605  1.00  0.00     0.024 A 
HETATM   14  C8  UNL     1      11.806   9.503   2.981  1.00  0.00    -0.035 A 
HETATM   15  C9  UNL     1      11.803  11.006   3.191  1.00  0.00     0.015 C 
HETATM   16  C10 UNL     1      12.271   8.708   4.176  1.00  0.00     0.015 C 
ENDBRANCH   9  12
ENDBRANCH   4   8
BRANCH   1  17
HETATM   17  C2  UNL     1       5.369  10.190   5.428  1.00  0.00     0.022 C 
HETATM   18  C1  UNL     1       4.136   9.746   5.551  1.00  0.00     0.013 C 
ENDBRANCH   1  17
BRANCH   7  19
HETATM   19  C12 UNL     1       4.976   9.762   2.297  1.00  0.00     0.174 C 
HETATM   20  C13 UNL     1       3.799   8.905   2.031  1.00  0.00     0.098 C 
HETATM   21  O2  UNL     1       4.991  10.881   1.752  1.00  0.00    -0.291 OA
ENDBRANCH   7  19
TORSDOF 4
ENDMDL
MODEL 3
REMARK VINA RESULT: -7.155162572      6.032      8.973
REMARK  4 active torsions:
REMARK  status: ('A' for Active; 'I' for Inactive)
REMARK    1  A    between atoms: C2_2  and  C3_3 
REMARK    2  A    between atoms: C4_6  and  N2_7 
REMARK       I    between atoms: N2_7  and  C5_9 
REMARK    3  A    between atoms: C5_9  and  C6_11 
REMARK    4  A    between atoms: C11_18  and  C12_19 
ROOT
HETATM    1  C3  UNL     1      14.179   8.599   1.753  1.00  0.00     0.079 A 
HETATM    2  N1  UNL     1      14.098   9.456   0.698  1.00  0.00    -0.189 N 
ATOM      3  H1  UNL     1      13.246   9.926   0.395  1.00  0.00     0.184 HD
HETATM    4  C4  UNL     1      15.300   9.592   0.114  1.00  0.00     0.686 A 
HETATM    5  N3  UNL     1      16.129   8.826   0.801  1.00  0.00    -0.186 N 
ATOM      6  H3  UNL     1      17.123   8.724   0.591  1.00  0.00     0.184 HD
HETATM    7  C11 UNL     1      15.490   8.186   1.830  1.00  0.00     0.121 A 
ENDROOT
BRANCH   4   8
HETATM    8  N2  UNL     1      15.519  10.345  -0.915  1.00  0.00    -0.159 N 
HETATM    9  C5  UNL     1      16.669  10.232  -1.703  1.00  0.00     0.240 C 
HETATM   10  O1  UNL     1      17.521  11.149  -1.673  1.00  0.00    -0.272 OA
ATOM     11  H2  UNL     1      14.824  11.049  -1.162  1.00  0.00     0.187 HD
BRANCH   9  12
HETATM   12  C6  UNL     1      16.890   9.063  -2.556  1.00  0.00     0.087 A 
HETATM   13  C7  UNL     1      17.455   9.184  -3.921  1.00  0.00     0.024 A 
HETATM   14  C8  UNL     1      15.984   8.941  -3.746  1.00  0.00    -0.035 A 
HETATM   15  C9  UNL     1      15.447   7.540  -3.975  1.00  0.00     0.015 C 
HETATM   16  C10 UNL     1      15.016  10.044  -4.093  1.00  0.00     0.015 C 
ENDBRANCH   9  12
ENDBRANCH   4   8
BRANCH   1  17
HETATM   17  C2  UNL     1      13.086   8.207   2.624  1.00  0.00     0.022 C 
HETATM   18  C1  UNL     1      11.914   7.929   2.091  1.00  0.00     0.013 C 
ENDBRANCH   1  17
BRANCH   7  19
HETATM   19  C12 UNL     1      16.128   7.273   2.766  1.00  0.00     0.174 C 
HETATM   20  C13 UNL     1      17.134   7.710   3.758  1.00  0.00     0.098 C 
HETATM   21  O2  UNL     1      15.835   6.063   2.757  1.00  0.00    -0.291 OA
ENDBRANCH   7  19
TORSDOF 4
ENDMDL
MODEL 4
REMARK VINA RESULT: -7.132193379      4.473      6.962
REMARK  4 active torsions:
REMARK  status: ('A' for Active; 'I' for Inactive)
REMARK    1  A    between atoms: C2_2  and  C3_3 
REMARK    2  A    between atoms: C4_6  and  N2_7 
REMARK       I    between atoms: N2_7  and  C5_9 
REMARK    3  A    between atoms: C5_9  and  C6_11 
REMARK    4  A    between atoms: C11_18  and  C12_19 
ROOT
HETATM    1  C3  UNL     1      13.470  12.006   0.287  1.00  0.00     0.079 A 
HETATM    2  N1  UNL     1      12.933  11.510   1.435  1.00  0.00    -0.189 N 
ATOM      3  H1  UNL     1      12.439  12.065   2.133  1.00  0.00     0.184 HD
HETATM    4  C4  UNL     1      13.145  10.185   1.516  1.00  0.00     0.686 A 
HETATM    5  N3  UNL     1      13.811   9.855   0.422  1.00  0.00    -0.186 N 
ATOM      6  H3  UNL     1      14.116   8.907   0.202  1.00  0.00     0.184 HD
HETATM    7  C11 UNL     1      14.040  10.943  -0.377  1.00  0.00     0.121 A 
ENDROOT
BRANCH   4   8
HETATM    8  N2  UNL     1      12.745   9.451   2.502  1.00  0.00    -0.159 N 
HETATM    9  C5  UNL     1      12.010   9.964   3.576  1.00  0.00     0.240 C 
HETATM   10  O1  UNL     1      12.547  10.036   4.704  1.00  0.00    -0.272 OA
ATOM     11  H2  UNL     1      12.974   8.458   2.497  1.00  0.00     0.187 HD
BRANCH   9  12
HETATM   12  C6  UNL     1      10.629  10.418   3.400  1.00  0.00     0.087 A 
HETATM   13  C7  UNL     1       9.649  10.398   4.512  1.00  0.00     0.024 A 
HETATM   14  C8  UNL     1       9.578   9.347   3.442  1.00  0.00    -0.035 A 
HETATM   15  C9  UNL     1       8.517   9.477   2.366  1.00  0.00     0.015 C 
HETATM   16  C10 UNL     1       9.942   7.925   3.792  1.00  0.00     0.015 C 
ENDBRANCH   9  12
ENDBRANCH   4   8
BRANCH   1  17
HETATM   17  C2  UNL     1      13.439  13.392  -0.145  1.00  0.00     0.022 C 
HETATM   18  C1  UNL     1      12.348  14.100   0.063  1.00  0.00     0.013 C 
ENDBRANCH   1  17
BRANCH   7  19
HETATM   19  C12 UNL     1      14.749  10.908  -1.647  1.00  0.00     0.174 C 
HETATM   20  C13 UNL     1      16.219  11.023  -1.753  1.00  0.00     0.098 C 
HETATM   21  O2  UNL     1      14.116  10.775  -2.712  1.00  0.00    -0.291 OA
ENDBRANCH   7  19
TORSDOF 4
ENDMDL
MODEL 5
REMARK VINA RESULT: -7.106408465      3.384      7.481
REMARK  4 active torsions:
REMARK  status: ('A' for Active; 'I' for Inactive)
REMARK    1  A    between atoms: C2_2  and  C3_3 
REMARK    2  A    between atoms: C4_6  and  N2_7 
REMARK       I    between atoms: N2_7  and  C5_9 
REMARK    3  A    between atoms: C5_9  and  C6_11 
REMARK    4  A    between atoms: C11_18  and  C12_19 
ROOT
HETATM    1  C3  UNL     1      14.921   6.947   2.823  1.00  0.00     0.079 A 
HETATM    2  N1  UNL     1      13.563   7.027   2.779  1.00  0.00    -0.189 N 
ATOM      3  H1  UNL     1      12.935   6.680   3.504  1.00  0.00     0.184 HD
HETATM    4  C4  UNL     1      13.166   7.629   1.644  1.00  0.00     0.686 A 
HETATM    5  N3  UNL     1      14.272   7.925   0.983  1.00  0.00    -0.186 N 
ATOM      6  H3  UNL     1      14.290   8.393   0.077  1.00  0.00     0.184 HD
HETATM    7  C11 UNL     1      15.390   7.527   1.666  1.00  0.00     0.121 A 
ENDROOT
BRANCH   4   8
HETATM    8  N2  UNL     1      11.928   7.839   1.336  1.00  0.00    -0.159 N 
HETATM    9  C5  UNL     1      10.868   7.452   2.161  1.00  0.00     0.240 C 
HETATM   10  O1  UNL     1      10.118   6.519   1.794  1.00  0.00    -0.272 OA
ATOM     11  H2  UNL     1      11.717   8.306   0.454  1.00  0.00     0.187 HD
BRANCH   9  12
HETATM   12  C6  UNL     1      10.623   8.118   3.442  1.00  0.00     0.087 A 
HETATM   13  C7  UNL     1       9.328   8.000   4.153  1.00  0.00     0.024 A 
HETATM   14  C8  UNL     1       9.654   9.262   3.410  1.00  0.00    -0.035 A 
HETATM   15  C9  UNL     1      10.101  10.477   4.202  1.00  0.00     0.015 C 
HETATM   16  C10 UNL     1       8.887   9.586   2.152  1.00  0.00     0.015 C 
ENDBRANCH   9  12
ENDBRANCH   4   8
BRANCH   1  17
HETATM   17  C2  UNL     1      15.710   6.362   3.892  1.00  0.00     0.022 C 
HETATM   18  C1  UNL     1      16.287   7.159   4.768  1.00  0.00     0.013 C 
ENDBRANCH   1  17
BRANCH   7  19
HETATM   19  C12 UNL     1      16.757   7.708   1.202  1.00  0.00     0.174 C 
HETATM   20  C13 UNL     1      17.500   8.978   1.361  1.00  0.00     0.098 C 
HETATM   21  O2  UNL     1      17.357   6.772   0.641  1.00  0.00    -0.291 OA
ENDBRANCH   7  19
TORSDOF 4
ENDMDL
