MODEL 1
REMARK VINA RESULT: -8.246176708      0.000      0.000
REMARK  3 active torsions:
REMARK  status: ('A' for Active; 'I' for Inactive)
REMARK    1  A    between atoms: C1_2  and  C2_3 
REMARK       I    between atoms: C1_2  and  N1_6 
REMARK    2  A    between atoms: C11_13  and  O2_14 
REMARK       I    between atoms: N2_16  and  C12_17 
REMARK    3  A    between atoms: C12_17  and  C13_19 
ROOT
HETATM    1  O1  UNL     1      15.152   9.180   4.722  1.00  0.00    -0.273 OA
HETATM    2  C1  UNL     1      14.619   8.195   4.104  1.00  0.00     0.226 C 
HETATM    3  N1  UNL     1      13.543   8.476   3.243  1.00  0.00    -0.321 N 
HETATM    4  C5  UNL     1      13.093   9.842   3.082  1.00  0.00     0.153 C 
HETATM    5  C6  UNL     1      11.618   9.959   2.762  1.00  0.00     0.106 C 
HETATM    6  C7  UNL     1      11.346  10.078   1.305  1.00  0.00     0.027 C 
HETATM    7  C8  UNL     1      10.787   8.926   0.589  1.00  0.00     0.004 C 
HETATM    8  C9  UNL     1      10.747   7.622   1.255  1.00  0.00     0.030 C 
HETATM    9  C10 UNL     1      11.349   7.560   2.626  1.00  0.00     0.136 C 
HETATM   10  C11 UNL     1      12.847   7.458   2.492  1.00  0.00     0.245 C 
HETATM   11  N2  UNL     1      10.938   8.810   3.286  1.00  0.00    -0.337 N 
HETATM   12  C12 UNL     1       9.970   8.803   4.319  1.00  0.00     0.225 C 
HETATM   13  O3  UNL     1       9.480   7.683   4.624  1.00  0.00    -0.273 OA
ENDROOT
BRANCH  12  14
HETATM   14  C13 UNL     1       9.505  10.004   5.053  1.00  0.00     0.078 C 
HETATM   15  C14 UNL     1       8.870   9.548   6.325  1.00  0.00     0.014 C 
HETATM   16  C15 UNL     1       7.453  10.120   6.459  1.00  0.00     0.001 C 
HETATM   17  C16 UNL     1       6.712   9.629   5.255  1.00  0.00     0.000 C 
HETATM   18  C17 UNL     1       7.215  10.403   4.069  1.00  0.00     0.001 C 
HETATM   19  C18 UNL     1       8.632  10.839   4.177  1.00  0.00     0.014 C 
ENDBRANCH  12  14
BRANCH  10  20
HETATM   20  O2  UNL     1      13.231   7.634   1.150  1.00  0.00    -0.374 OA
ATOM     21  H2  UNL     1      14.165   7.805   1.164  1.00  0.00     0.212 HD
ENDBRANCH  10  20
BRANCH   2  22
HETATM   22  C2  UNL     1      15.217   6.882   4.388  1.00  0.00     0.078 A 
HETATM   23  C3  UNL     1      16.104   6.251   3.316  1.00  0.00     0.015 A 
HETATM   24  C4  UNL     1      16.704   6.832   4.519  1.00  0.00     0.015 A 
ENDBRANCH   2  22
TORSDOF 3
ENDMDL
MODEL 2
REMARK VINA RESULT: -7.861566807      3.902      5.896
REMARK  3 active torsions:
REMARK  status: ('A' for Active; 'I' for Inactive)
REMARK    1  A    between atoms: C1_2  and  C2_3 
REMARK       I    between atoms: C1_2  and  N1_6 
REMARK    2  A    between atoms: C11_13  and  O2_14 
REMARK       I    between atoms: N2_16  and  C12_17 
REMARK    3  A    between atoms: C12_17  and  C13_19 
ROOT
HETATM    1  O1  UNL     1      16.383   7.577  -2.575  1.00  0.00    -0.273 OA
HETATM    2  C1  UNL     1      16.844   8.488  -1.805  1.00  0.00     0.226 C 
HETATM    3  N1  UNL     1      16.738   8.280  -0.419  1.00  0.00    -0.321 N 
HETATM    4  C5  UNL     1      16.133   7.063   0.078  1.00  0.00     0.153 C 
HETATM    5  C6  UNL     1      15.449   7.231   1.418  1.00  0.00     0.106 C 
HETATM    6  C7  UNL     1      16.311   6.843   2.565  1.00  0.00     0.027 C 
HETATM    7  C8  UNL     1      16.884   7.895   3.412  1.00  0.00     0.004 C 
HETATM    8  C9  UNL     1      16.808   9.290   2.969  1.00  0.00     0.030 C 
HETATM    9  C10 UNL     1      16.185   9.524   1.626  1.00  0.00     0.136 C 
HETATM   10  C11 UNL     1      17.211   9.230   0.561  1.00  0.00     0.245 C 
HETATM   11  N2  UNL     1      15.043   8.599   1.562  1.00  0.00    -0.337 N 
HETATM   12  C12 UNL     1      13.713   9.079   1.641  1.00  0.00     0.225 C 
HETATM   13  O3  UNL     1      13.571  10.323   1.781  1.00  0.00    -0.273 OA
ENDROOT
BRANCH  12  14
HETATM   14  C13 UNL     1      12.499   8.230   1.569  1.00  0.00     0.078 C 
HETATM   15  C14 UNL     1      11.387   9.064   1.026  1.00  0.00     0.014 C 
HETATM   16  C15 UNL     1      10.171   9.021   1.960  1.00  0.00     0.001 C 
HETATM   17  C16 UNL     1      10.665   9.533   3.277  1.00  0.00     0.000 C 
HETATM   18  C17 UNL     1      11.524   8.460   3.886  1.00  0.00     0.001 C 
HETATM   19  C18 UNL     1      12.228   7.603   2.895  1.00  0.00     0.014 C 
ENDBRANCH  12  14
BRANCH  10  20
HETATM   20  O2  UNL     1      18.361   8.659   1.134  1.00  0.00    -0.374 OA
ATOM     21  H2  UNL     1      18.077   8.253   1.945  1.00  0.00     0.212 HD
ENDBRANCH  10  20
BRANCH   2  22
HETATM   22  C2  UNL     1      17.431   9.649  -2.492  1.00  0.00     0.078 A 
HETATM   23  C3  UNL     1      18.941   9.660  -2.721  1.00  0.00     0.015 A 
HETATM   24  C4  UNL     1      18.030   9.404  -3.838  1.00  0.00     0.015 A 
ENDBRANCH   2  22
TORSDOF 3
ENDMDL
MODEL 3
REMARK VINA RESULT: -7.772349616      1.721      6.295
REMARK  3 active torsions:
REMARK  status: ('A' for Active; 'I' for Inactive)
REMARK    1  A    between atoms: C1_2  and  C2_3 
REMARK       I    between atoms: C1_2  and  N1_6 
REMARK    2  A    between atoms: C11_13  and  O2_14 
REMARK       I    between atoms: N2_16  and  C12_17 
REMARK    3  A    between atoms: C12_17  and  C13_19 
ROOT
HETATM    1  O1  UNL     1       7.612   8.306   5.691  1.00  0.00    -0.273 OA
HETATM    2  C1  UNL     1       7.816   9.294   4.905  1.00  0.00     0.226 C 
HETATM    3  N1  UNL     1       8.645   9.075   3.791  1.00  0.00    -0.321 N 
HETATM    4  C5  UNL     1       9.221   7.765   3.573  1.00  0.00     0.153 C 
HETATM    5  C6  UNL     1      10.555   7.802   2.859  1.00  0.00     0.106 C 
HETATM    6  C7  UNL     1      10.435   7.597   1.391  1.00  0.00     0.027 C 
HETATM    7  C8  UNL     1      10.614   8.745   0.496  1.00  0.00     0.004 C 
HETATM    8  C9  UNL     1      10.651  10.095   1.064  1.00  0.00     0.030 C 
HETATM    9  C10 UNL     1      10.440  10.196   2.544  1.00  0.00     0.136 C 
HETATM   10  C11 UNL     1       8.963  10.104   2.830  1.00  0.00     0.245 C 
HETATM   11  N2  UNL     1      11.185   9.064   3.119  1.00  0.00    -0.337 N 
HETATM   12  C12 UNL     1      12.386   9.274   3.839  1.00  0.00     0.225 C 
HETATM   13  O3  UNL     1      12.779  10.466   3.942  1.00  0.00    -0.273 OA
ENDROOT
BRANCH  12  14
HETATM   14  C13 UNL     1      13.195   8.203   4.467  1.00  0.00     0.078 C 
HETATM   15  C14 UNL     1      14.253   8.852   5.297  1.00  0.00     0.014 C 
HETATM   16  C15 UNL     1      15.642   8.328   4.912  1.00  0.00     0.001 C 
HETATM   17  C16 UNL     1      15.797   8.646   3.458  1.00  0.00     0.000 C 
HETATM   18  C17 UNL     1      14.918   7.696   2.693  1.00  0.00     0.001 C 
HETATM   19  C18 UNL     1      13.701   7.259   3.428  1.00  0.00     0.014 C 
ENDBRANCH  12  14
BRANCH  10  20
HETATM   20  O2  UNL     1       8.258   9.773   1.658  1.00  0.00    -0.374 OA
ATOM     21  H2  UNL     1       8.723   9.041   1.270  1.00  0.00     0.212 HD
ENDBRANCH  10  20
BRANCH   2  22
HETATM   22  C2  UNL     1       7.139  10.544   5.284  1.00  0.00     0.078 A 
HETATM   23  C3  UNL     1       5.805  10.869   4.616  1.00  0.00     0.015 A 
HETATM   24  C4  UNL     1       5.840  10.415   6.007  1.00  0.00     0.015 A 
ENDBRANCH   2  22
TORSDOF 3
ENDMDL
MODEL 4
REMARK VINA RESULT: -7.634938009      2.203      6.345
REMARK  3 active torsions:
REMARK  status: ('A' for Active; 'I' for Inactive)
REMARK    1  A    between atoms: C1_2  and  C2_3 
REMARK       I    between atoms: C1_2  and  N1_6 
REMARK    2  A    between atoms: C11_13  and  O2_14 
REMARK       I    between atoms: N2_16  and  C12_17 
REMARK    3  A    between atoms: C12_17  and  C13_19 
ROOT
HETATM    1  O1  UNL     1       9.019  11.566   5.401  1.00  0.00    -0.273 OA
HETATM    2  C1  UNL     1       8.794  10.520   4.701  1.00  0.00     0.226 C 
HETATM    3  N1  UNL     1       9.902   9.732   4.341  1.00  0.00    -0.321 N 
HETATM    4  C5  UNL     1      11.228  10.119   4.774  1.00  0.00     0.153 C 
HETATM    5  C6  UNL     1      12.324   9.689   3.824  1.00  0.00     0.106 C 
HETATM    6  C7  UNL     1      12.963   8.405   4.214  1.00  0.00     0.027 C 
HETATM    7  C8  UNL     1      12.659   7.196   3.442  1.00  0.00     0.004 C 
HETATM    8  C9  UNL     1      11.554   7.221   2.479  1.00  0.00     0.030 C 
HETATM    9  C10 UNL     1      10.772   8.497   2.404  1.00  0.00     0.136 C 
HETATM   10  C11 UNL     1       9.791   8.530   3.548  1.00  0.00     0.245 C 
HETATM   11  N2  UNL     1      11.773   9.571   2.504  1.00  0.00    -0.337 N 
HETATM   12  C12 UNL     1      12.106  10.363   1.378  1.00  0.00     0.225 C 
HETATM   13  O3  UNL     1      11.514  10.086   0.301  1.00  0.00    -0.273 OA
ENDROOT
BRANCH  12  14
HETATM   14  C13 UNL     1      13.086  11.475   1.384  1.00  0.00     0.078 C 
HETATM   15  C14 UNL     1      12.659  12.469   0.356  1.00  0.00     0.014 C 
HETATM   16  C15 UNL     1      13.804  12.764  -0.621  1.00  0.00     0.001 C 
HETATM   17  C16 UNL     1      14.155  11.443  -1.230  1.00  0.00     0.000 C 
HETATM   18  C17 UNL     1      14.880  10.642  -0.184  1.00  0.00     0.001 C 
HETATM   19  C18 UNL     1      14.470  10.945   1.213  1.00  0.00     0.014 C 
ENDBRANCH  12  14
BRANCH  10  20
HETATM   20  O2  UNL     1      10.029   7.459   4.428  1.00  0.00    -0.374 OA
ATOM     21  H2  UNL     1       9.692   6.683   3.995  1.00  0.00     0.212 HD
ENDBRANCH  10  20
BRANCH   2  22
HETATM   22  C2  UNL     1       7.382  10.285   4.364  1.00  0.00     0.078 A 
HETATM   23  C3  UNL     1       6.545   9.446   5.327  1.00  0.00     0.015 A 
HETATM   24  C4  UNL     1       6.363  10.897   5.266  1.00  0.00     0.015 A 
ENDBRANCH   2  22
TORSDOF 3
ENDMDL
MODEL 5
REMARK VINA RESULT: -7.560017636      2.130      4.203
REMARK  3 active torsions:
REMARK  status: ('A' for Active; 'I' for Inactive)
REMARK    1  A    between atoms: C1_2  and  C2_3 
REMARK       I    between atoms: C1_2  and  N1_6 
REMARK    2  A    between atoms: C11_13  and  O2_14 
REMARK       I    between atoms: N2_16  and  C12_17 
REMARK    3  A    between atoms: C12_17  and  C13_19 
ROOT
HETATM    1  O1  UNL     1      11.472  11.433  -0.016  1.00  0.00    -0.273 OA
HETATM    2  C1  UNL     1      12.221  11.531   1.015  1.00  0.00     0.226 C 
HETATM    3  N1  UNL     1      12.353  10.393   1.830  1.00  0.00    -0.321 N 
HETATM    4  C5  UNL     1      11.658   9.173   1.476  1.00  0.00     0.153 C 
HETATM    5  C6  UNL     1      11.285   8.321   2.670  1.00  0.00     0.106 C 
HETATM    6  C7  UNL     1      12.276   7.248   2.951  1.00  0.00     0.027 C 
HETATM    7  C8  UNL     1      13.172   7.392   4.103  1.00  0.00     0.004 C 
HETATM    8  C9  UNL     1      13.249   8.683   4.793  1.00  0.00     0.030 C 
HETATM    9  C10 UNL     1      12.426   9.793   4.211  1.00  0.00     0.136 C 
HETATM   10  C11 UNL     1      13.160  10.368   3.027  1.00  0.00     0.245 C 
HETATM   11  N2  UNL     1      11.153   9.167   3.820  1.00  0.00    -0.337 N 
HETATM   12  C12 UNL     1       9.965   9.420   4.548  1.00  0.00     0.225 C 
HETATM   13  O3  UNL     1      10.066  10.187   5.542  1.00  0.00    -0.273 OA
ENDROOT
BRANCH  12  14
HETATM   14  C13 UNL     1       8.634   8.852   4.222  1.00  0.00     0.078 C 
HETATM   15  C14 UNL     1       8.017   9.706   3.166  1.00  0.00     0.014 C 
HETATM   16  C15 UNL     1       6.623  10.180   3.597  1.00  0.00     0.001 C 
HETATM   17  C16 UNL     1       6.838  10.933   4.872  1.00  0.00     0.000 C 
HETATM   18  C17 UNL     1       7.136   9.925   5.947  1.00  0.00     0.001 C 
HETATM   19  C18 UNL     1       7.821   8.697   5.463  1.00  0.00     0.014 C 
ENDBRANCH  12  14
BRANCH  10  20
HETATM   20  O2  UNL     1      14.286   9.583   2.721  1.00  0.00    -0.374 OA
ATOM     21  H2  UNL     1      14.000   8.679   2.779  1.00  0.00     0.212 HD
ENDBRANCH  10  20
BRANCH   2  22
HETATM   22  C2  UNL     1      12.851  12.846   1.207  1.00  0.00     0.078 A 
HETATM   23  C3  UNL     1      13.799  13.353   0.122  1.00  0.00     0.015 A 
HETATM   24  C4  UNL     1      12.459  13.927   0.256  1.00  0.00     0.015 A 
ENDBRANCH   2  22
TORSDOF 3
ENDMDL
