MODEL 1
REMARK VINA RESULT: -7.816754198      0.000      0.000
REMARK  3 active torsions:
REMARK  status: ('A' for Active; 'I' for Inactive)
REMARK       I    between atoms: C1_2  and  N1_3 
REMARK       I    between atoms: C1_2  and  N2_8 
REMARK       I    between atoms: N3_11  and  C8_12 
REMARK    1  A    between atoms: C8_12  and  C9_14 
REMARK    2  A    between atoms: C9_14  and  C10_15 
REMARK    3  A    between atoms: C10_15  and  O3_16 
ROOT
HETATM    1  O1  UNL     1      14.619   9.935   0.120  1.00  0.00    -0.247 OA
HETATM    2  C1  UNL     1      13.921  10.849   0.710  1.00  0.00     0.320 C 
HETATM    3  N1  UNL     1      13.746  12.064   0.063  1.00  0.00    -0.334 N 
HETATM    4  C2  UNL     1      14.339  12.336  -1.280  1.00  0.00     0.127 C 
HETATM    5  C3  UNL     1      14.776  13.774  -1.105  1.00  0.00     0.022 C 
HETATM    6  C4  UNL     1      13.483  14.357  -0.552  1.00  0.00     0.022 C 
HETATM    7  C5  UNL     1      13.046  13.259   0.412  1.00  0.00     0.127 C 
HETATM    8  N2  UNL     1      13.410  10.489   1.960  1.00  0.00    -0.331 N 
HETATM    9  C6  UNL     1      13.667   9.140   2.519  1.00  0.00     0.147 C 
HETATM   10  C7  UNL     1      12.321   8.523   2.724  1.00  0.00     0.145 C 
HETATM   11  N3  UNL     1      11.536   9.339   3.691  1.00  0.00    -0.348 N 
HETATM   12  C8  UNL     1      10.332   8.806   4.201  1.00  0.00     0.230 C 
HETATM   13  O2  UNL     1      10.015   7.628   3.792  1.00  0.00    -0.272 OA
HETATM   14  C16 UNL     1      12.130  10.608   4.008  1.00  0.00     0.145 C 
HETATM   15  C17 UNL     1      12.627  11.369   2.774  1.00  0.00     0.147 C 
ENDROOT
BRANCH  12  16
HETATM   16  C9  UNL     1       9.414   9.441   5.136  1.00  0.00     0.062 C 
HETATM   17  C11 UNL     1       8.873  10.747   4.548  1.00  0.00     0.021 C 
HETATM   18  C12 UNL     1       7.957  10.547   3.390  1.00  0.00     0.001 C 
HETATM   19  C13 UNL     1       6.829   9.599   3.731  1.00  0.00     0.000 C 
HETATM   20  C14 UNL     1       6.914   9.120   5.161  1.00  0.00     0.001 C 
HETATM   21  C15 UNL     1       8.275   8.514   5.461  1.00  0.00     0.021 C 
BRANCH  16  22
HETATM   22  C10 UNL     1      10.134   9.878   6.414  1.00  0.00     0.183 C 
BRANCH  22  23
HETATM   23  O3  UNL     1       9.638   9.138   7.516  1.00  0.00    -0.400 OA
ATOM     24  H3  UNL     1      10.176   8.367   7.649  1.00  0.00     0.209 HD
ENDBRANCH  22  23
ENDBRANCH  16  22
ENDBRANCH  12  16
TORSDOF 3
ENDMDL
MODEL 2
REMARK VINA RESULT: -7.799952557      1.391      2.294
REMARK  3 active torsions:
REMARK  status: ('A' for Active; 'I' for Inactive)
REMARK       I    between atoms: C1_2  and  N1_3 
REMARK       I    between atoms: C1_2  and  N2_8 
REMARK       I    between atoms: N3_11  and  C8_12 
REMARK    1  A    between atoms: C8_12  and  C9_14 
REMARK    2  A    between atoms: C9_14  and  C10_15 
REMARK    3  A    between atoms: C10_15  and  O3_16 
ROOT
HETATM    1  O1  UNL     1      14.915  10.077   0.350  1.00  0.00    -0.247 OA
HETATM    2  C1  UNL     1      14.006  10.945   0.652  1.00  0.00     0.320 C 
HETATM    3  N1  UNL     1      13.957  12.126  -0.074  1.00  0.00    -0.334 N 
HETATM    4  C2  UNL     1      14.918  12.415  -1.179  1.00  0.00     0.127 C 
HETATM    5  C3  UNL     1      15.178  13.887  -0.945  1.00  0.00     0.022 C 
HETATM    6  C4  UNL     1      13.739  14.376  -0.846  1.00  0.00     0.022 C 
HETATM    7  C5  UNL     1      13.101  13.268  -0.013  1.00  0.00     0.127 C 
HETATM    8  N2  UNL     1      13.159  10.572   1.699  1.00  0.00    -0.331 N 
HETATM    9  C6  UNL     1      13.322   9.262   2.373  1.00  0.00     0.147 C 
HETATM   10  C7  UNL     1      12.025   8.543   2.180  1.00  0.00     0.145 C 
HETATM   11  N3  UNL     1      10.923   9.314   2.819  1.00  0.00    -0.348 N 
HETATM   12  C8  UNL     1       9.661   8.698   2.957  1.00  0.00     0.230 C 
HETATM   13  O2  UNL     1       9.570   7.489   2.526  1.00  0.00    -0.272 OA
HETATM   14  C16 UNL     1      11.299  10.634   3.244  1.00  0.00     0.145 C 
HETATM   15  C17 UNL     1      12.101  11.405   2.190  1.00  0.00     0.147 C 
ENDROOT
BRANCH  12  16
HETATM   16  C9  UNL     1       8.455   9.277   3.532  1.00  0.00     0.062 C 
HETATM   17  C11 UNL     1       7.941   8.406   4.681  1.00  0.00     0.021 C 
HETATM   18  C12 UNL     1       8.825   8.415   5.881  1.00  0.00     0.001 C 
HETATM   19  C13 UNL     1       9.103   9.825   6.354  1.00  0.00     0.000 C 
HETATM   20  C14 UNL     1       8.397  10.851   5.500  1.00  0.00     0.001 C 
HETATM   21  C15 UNL     1       8.730  10.670   4.029  1.00  0.00     0.021 C 
BRANCH  16  22
HETATM   22  C10 UNL     1       7.303   9.282   2.524  1.00  0.00     0.183 C 
BRANCH  22  23
HETATM   23  O3  UNL     1       7.825   9.346   1.208  1.00  0.00    -0.400 OA
ATOM     24  H3  UNL     1       7.186   9.749   0.632  1.00  0.00     0.209 HD
ENDBRANCH  22  23
ENDBRANCH  16  22
ENDBRANCH  12  16
TORSDOF 3
ENDMDL
MODEL 3
REMARK VINA RESULT: -7.701795599      1.594      1.909
REMARK  3 active torsions:
REMARK  status: ('A' for Active; 'I' for Inactive)
REMARK       I    between atoms: C1_2  and  N1_3 
REMARK       I    between atoms: C1_2  and  N2_8 
REMARK       I    between atoms: N3_11  and  C8_12 
REMARK    1  A    between atoms: C8_12  and  C9_14 
REMARK    2  A    between atoms: C9_14  and  C10_15 
REMARK    3  A    between atoms: C10_15  and  O3_16 
ROOT
HETATM    1  O1  UNL     1      15.405   7.468   0.979  1.00  0.00    -0.247 OA
HETATM    2  C1  UNL     1      14.874   8.626   1.201  1.00  0.00     0.320 C 
HETATM    3  N1  UNL     1      15.125   9.649   0.298  1.00  0.00    -0.334 N 
HETATM    4  C2  UNL     1      15.985   9.447  -0.906  1.00  0.00     0.127 C 
HETATM    5  C3  UNL     1      16.738  10.759  -0.933  1.00  0.00     0.022 C 
HETATM    6  C4  UNL     1      15.562  11.719  -0.811  1.00  0.00     0.022 C 
HETATM    7  C5  UNL     1      14.704  11.013   0.234  1.00  0.00     0.127 C 
HETATM    8  N2  UNL     1      14.087   8.704   2.353  1.00  0.00    -0.331 N 
HETATM    9  C6  UNL     1      13.893   7.515   3.217  1.00  0.00     0.147 C 
HETATM   10  C7  UNL     1      12.420   7.264   3.238  1.00  0.00     0.145 C 
HETATM   11  N3  UNL     1      11.718   8.440   3.820  1.00  0.00    -0.348 N 
HETATM   12  C8  UNL     1      10.351   8.316   4.147  1.00  0.00     0.230 C 
HETATM   13  O2  UNL     1       9.817   7.166   3.926  1.00  0.00    -0.272 OA
HETATM   14  C16 UNL     1      12.554   9.595   3.997  1.00  0.00     0.145 C 
HETATM   15  C17 UNL     1      13.428   9.903   2.777  1.00  0.00     0.147 C 
ENDROOT
BRANCH  12  16
HETATM   16  C9  UNL     1       9.481   9.341   4.706  1.00  0.00     0.062 C 
HETATM   17  C11 UNL     1       9.337  10.510   3.728  1.00  0.00     0.021 C 
HETATM   18  C12 UNL     1       8.568  10.168   2.498  1.00  0.00     0.001 C 
HETATM   19  C13 UNL     1       7.218   9.574   2.834  1.00  0.00     0.000 C 
HETATM   20  C14 UNL     1       6.995   9.503   4.326  1.00  0.00     0.001 C 
HETATM   21  C15 UNL     1       8.127   8.766   5.020  1.00  0.00     0.021 C 
BRANCH  16  22
HETATM   22  C10 UNL     1      10.099   9.976   5.955  1.00  0.00     0.183 C 
BRANCH  22  23
HETATM   23  O3  UNL     1       9.647   9.290   7.110  1.00  0.00    -0.400 OA
ATOM     24  H3  UNL     1       9.521   8.371   6.904  1.00  0.00     0.209 HD
ENDBRANCH  22  23
ENDBRANCH  16  22
ENDBRANCH  12  16
TORSDOF 3
ENDMDL
MODEL 4
REMARK VINA RESULT: -7.688557723      2.760      3.633
REMARK  3 active torsions:
REMARK  status: ('A' for Active; 'I' for Inactive)
REMARK       I    between atoms: C1_2  and  N1_3 
REMARK       I    between atoms: C1_2  and  N2_8 
REMARK       I    between atoms: N3_11  and  C8_12 
REMARK    1  A    between atoms: C8_12  and  C9_14 
REMARK    2  A    between atoms: C9_14  and  C10_15 
REMARK    3  A    between atoms: C10_15  and  O3_16 
ROOT
HETATM    1  O1  UNL     1      16.268   6.728   2.586  1.00  0.00    -0.247 OA
HETATM    2  C1  UNL     1      15.690   7.768   2.080  1.00  0.00     0.320 C 
HETATM    3  N1  UNL     1      16.158   8.258   0.870  1.00  0.00    -0.334 N 
HETATM    4  C2  UNL     1      17.301   7.622   0.149  1.00  0.00     0.127 C 
HETATM    5  C3  UNL     1      18.026   8.849  -0.359  1.00  0.00     0.022 C 
HETATM    6  C4  UNL     1      16.852   9.582  -0.993  1.00  0.00     0.022 C 
HETATM    7  C5  UNL     1      15.758   9.355   0.046  1.00  0.00     0.127 C 
HETATM    8  N2  UNL     1      14.631   8.281   2.835  1.00  0.00    -0.331 N 
HETATM    9  C6  UNL     1      14.230   7.637   4.108  1.00  0.00     0.147 C 
HETATM   10  C7  UNL     1      12.803   7.231   3.925  1.00  0.00     0.145 C 
HETATM   11  N3  UNL     1      11.966   8.437   3.676  1.00  0.00    -0.348 N 
HETATM   12  C8  UNL     1      10.562   8.302   3.710  1.00  0.00     0.230 C 
HETATM   13  O2  UNL     1      10.111   7.127   3.978  1.00  0.00    -0.272 OA
HETATM   14  C16 UNL     1      12.720   9.636   3.435  1.00  0.00     0.145 C 
HETATM   15  C17 UNL     1      13.878   9.437   2.450  1.00  0.00     0.147 C 
ENDROOT
BRANCH  12  16
HETATM   16  C9  UNL     1       9.570   9.343   3.478  1.00  0.00     0.062 C 
HETATM   17  C11 UNL     1       8.185   8.869   3.926  1.00  0.00     0.021 C 
HETATM   18  C12 UNL     1       8.053   8.717   5.403  1.00  0.00     0.001 C 
HETATM   19  C13 UNL     1       8.452   9.982   6.128  1.00  0.00     0.000 C 
HETATM   20  C14 UNL     1       8.860  11.074   5.167  1.00  0.00     0.001 C 
HETATM   21  C15 UNL     1       9.946  10.598   4.218  1.00  0.00     0.021 C 
BRANCH  16  22
HETATM   22  C10 UNL     1       9.401   9.628   1.984  1.00  0.00     0.183 C 
BRANCH  22  23
HETATM   23  O3  UNL     1       9.244   8.407   1.282  1.00  0.00    -0.400 OA
ATOM     24  H3  UNL     1       8.374   8.369   0.901  1.00  0.00     0.209 HD
ENDBRANCH  22  23
ENDBRANCH  16  22
ENDBRANCH  12  16
TORSDOF 3
ENDMDL
MODEL 5
REMARK VINA RESULT: -7.665759394      2.905      6.805
REMARK  3 active torsions:
REMARK  status: ('A' for Active; 'I' for Inactive)
REMARK       I    between atoms: C1_2  and  N1_3 
REMARK       I    between atoms: C1_2  and  N2_8 
REMARK       I    between atoms: N3_11  and  C8_12 
REMARK    1  A    between atoms: C8_12  and  C9_14 
REMARK    2  A    between atoms: C9_14  and  C10_15 
REMARK    3  A    between atoms: C10_15  and  O3_16 
ROOT
HETATM    1  O1  UNL     1       6.695  10.365   5.278  1.00  0.00    -0.247 OA
HETATM    2  C1  UNL     1       7.121   9.737   4.231  1.00  0.00     0.320 C 
HETATM    3  N1  UNL     1       6.372   9.816   3.067  1.00  0.00    -0.334 N 
HETATM    4  C2  UNL     1       5.101  10.597   2.996  1.00  0.00     0.127 C 
HETATM    5  C3  UNL     1       4.257   9.678   2.141  1.00  0.00     0.022 C 
HETATM    6  C4  UNL     1       5.236   9.438   1.000  1.00  0.00     0.022 C 
HETATM    7  C5  UNL     1       6.548   9.267   1.759  1.00  0.00     0.127 C 
HETATM    8  N2  UNL     1       8.320   9.041   4.407  1.00  0.00    -0.331 N 
HETATM    9  C6  UNL     1       9.021   9.062   5.713  1.00  0.00     0.147 C 
HETATM   10  C7  UNL     1      10.371   9.644   5.439  1.00  0.00     0.145 C 
HETATM   11  N3  UNL     1      11.106   8.778   4.477  1.00  0.00    -0.348 N 
HETATM   12  C8  UNL     1      12.480   9.018   4.267  1.00  0.00     0.230 C 
HETATM   13  O2  UNL     1      12.999   9.976   4.952  1.00  0.00    -0.272 OA
HETATM   14  C16 UNL     1      10.298   7.757   3.870  1.00  0.00     0.145 C 
HETATM   15  C17 UNL     1       8.943   8.273   3.371  1.00  0.00     0.147 C 
ENDROOT
BRANCH  12  16
HETATM   16  C9  UNL     1      13.373   8.304   3.365  1.00  0.00     0.062 C 
HETATM   17  C11 UNL     1      12.755   8.210   1.967  1.00  0.00     0.021 C 
HETATM   18  C12 UNL     1      12.674   9.520   1.260  1.00  0.00     0.001 C 
HETATM   19  C13 UNL     1      14.020  10.208   1.212  1.00  0.00     0.000 C 
HETATM   20  C14 UNL     1      15.096   9.380   1.873  1.00  0.00     0.001 C 
HETATM   21  C15 UNL     1      14.706   8.996   3.290  1.00  0.00     0.021 C 
BRANCH  16  22
HETATM   22  C10 UNL     1      13.547   6.844   3.793  1.00  0.00     0.183 C 
BRANCH  22  23
HETATM   23  O3  UNL     1      13.641   6.772   5.206  1.00  0.00    -0.400 OA
ATOM     24  H3  UNL     1      13.077   6.079   5.527  1.00  0.00     0.209 HD
ENDBRANCH  22  23
ENDBRANCH  16  22
ENDBRANCH  12  16
TORSDOF 3
ENDMDL
