MODEL 1
REMARK VINA RESULT: -8.380225928      0.000      0.000
REMARK  3 active torsions:
REMARK  status: ('A' for Active; 'I' for Inactive)
REMARK       I    between atoms: C1_2  and  N2_4 
REMARK    1  A    between atoms: N3_12  and  C9_13 
REMARK    2  A    between atoms: C9_13  and  O2_14 
REMARK    3  A    between atoms: C10_16  and  N4_17 
ROOT
HETATM    1  N1  UNL     1      18.550   8.708   0.477  1.00  0.00    -0.040 NA
HETATM    2  C1  UNL     1      17.560   7.703   0.585  1.00  0.00     0.330 C 
HETATM    3  O1  UNL     1      17.468   6.855  -0.349  1.00  0.00    -0.251 OA
HETATM    4  N2  UNL     1      16.670   7.594   1.675  1.00  0.00    -0.336 N 
HETATM    5  C2  UNL     1      16.733   8.545   2.765  1.00  0.00     0.128 C 
HETATM    6  C3  UNL     1      15.296   8.947   3.057  1.00  0.00     0.029 C 
HETATM    7  C4  UNL     1      14.586   7.771   3.646  1.00  0.00    -0.035 C 
HETATM    8  C5  UNL     1      15.338   6.507   3.285  1.00  0.00     0.029 C 
HETATM    9  C6  UNL     1      15.667   6.561   1.785  1.00  0.00     0.128 C 
HETATM   10  C7  UNL     1      13.196   7.588   3.031  1.00  0.00     0.029 C 
HETATM   11  C8  UNL     1      12.117   7.882   4.086  1.00  0.00     0.125 C 
HETATM   12  N3  UNL     1      12.508   9.229   4.575  1.00  0.00    -0.361 N 
HETATM   13  C16 UNL     1      13.641   9.195   5.452  1.00  0.00     0.125 C 
HETATM   14  C17 UNL     1      14.478   7.963   5.125  1.00  0.00     0.029 C 
ENDROOT
BRANCH  12  15
HETATM   15  C9  UNL     1      11.802  10.345   4.113  1.00  0.00     0.148 C 
HETATM   16  C10 UNL     1      10.427  10.735   4.196  1.00  0.00     0.115 C 
BRANCH  15  17
HETATM   17  O2  UNL     1      12.532  11.245   3.466  1.00  0.00    -0.345 OA
ATOM     18  H2  UNL     1      13.473  11.128   3.539  1.00  0.00     0.219 HD
ENDBRANCH  15  17
BRANCH  16  19
HETATM   19  N4  UNL     1       9.442   9.860   4.756  1.00  0.00    -0.289 NA
HETATM   20  C11 UNL     1       8.575  10.642   5.631  1.00  0.00     0.095 C 
HETATM   21  C12 UNL     1       7.155  10.142   5.614  1.00  0.00     0.015 C 
HETATM   22  C13 UNL     1       6.619  10.629   4.257  1.00  0.00     0.002 C 
HETATM   23  C14 UNL     1       7.471   9.970   3.233  1.00  0.00     0.015 C 
HETATM   24  C15 UNL     1       8.650   9.204   3.729  1.00  0.00     0.095 C 
ENDBRANCH  16  19
ENDBRANCH  12  15
TORSDOF 3
ENDMDL
MODEL 2
REMARK VINA RESULT: -8.001558258      1.545      1.799
REMARK  3 active torsions:
REMARK  status: ('A' for Active; 'I' for Inactive)
REMARK       I    between atoms: C1_2  and  N2_4 
REMARK    1  A    between atoms: N3_12  and  C9_13 
REMARK    2  A    between atoms: C9_13  and  O2_14 
REMARK    3  A    between atoms: C10_16  and  N4_17 
ROOT
HETATM    1  N1  UNL     1      19.072  10.785   0.708  1.00  0.00    -0.040 NA
HETATM    2  C1  UNL     1      17.997  10.159   0.035  1.00  0.00     0.330 C 
HETATM    3  O1  UNL     1      17.875  10.357  -1.208  1.00  0.00    -0.251 OA
HETATM    4  N2  UNL     1      17.052   9.327   0.673  1.00  0.00    -0.336 N 
HETATM    5  C2  UNL     1      17.145   9.075   2.095  1.00  0.00     0.128 C 
HETATM    6  C3  UNL     1      15.736   9.229   2.644  1.00  0.00     0.029 C 
HETATM    7  C4  UNL     1      14.902   8.099   2.133  1.00  0.00    -0.035 C 
HETATM    8  C5  UNL     1      15.560   7.518   0.899  1.00  0.00     0.029 C 
HETATM    9  C6  UNL     1      15.960   8.682  -0.020  1.00  0.00     0.128 C 
HETATM   10  C7  UNL     1      13.531   8.583   1.654  1.00  0.00     0.029 C 
HETATM   11  C8  UNL     1      12.434   8.048   2.588  1.00  0.00     0.125 C 
HETATM   12  N3  UNL     1      12.915   8.480   3.925  1.00  0.00    -0.361 N 
HETATM   13  C16 UNL     1      14.000   7.680   4.411  1.00  0.00     0.125 C 
HETATM   14  C17 UNL     1      14.743   7.085   3.220  1.00  0.00     0.029 C 
ENDROOT
BRANCH  12  15
HETATM   15  C9  UNL     1      12.328   9.601   4.523  1.00  0.00     0.148 C 
HETATM   16  C10 UNL     1      10.999   9.885   4.972  1.00  0.00     0.115 C 
BRANCH  15  17
HETATM   17  O2  UNL     1      13.149  10.623   4.731  1.00  0.00    -0.345 OA
ATOM     18  H2  UNL     1      13.326  11.159   3.967  1.00  0.00     0.219 HD
ENDBRANCH  15  17
BRANCH  16  19
HETATM   19  N4  UNL     1       9.927   8.964   4.744  1.00  0.00    -0.289 NA
HETATM   20  C11 UNL     1       9.029   9.008   5.893  1.00  0.00     0.095 C 
HETATM   21  C12 UNL     1       7.593   8.794   5.497  1.00  0.00     0.015 C 
HETATM   22  C13 UNL     1       7.199  10.128   4.841  1.00  0.00     0.002 C 
HETATM   23  C14 UNL     1       8.100  10.277   3.669  1.00  0.00     0.015 C 
HETATM   24  C15 UNL     1       9.193   9.273   3.528  1.00  0.00     0.095 C 
ENDBRANCH  16  19
ENDBRANCH  12  15
TORSDOF 3
ENDMDL
MODEL 3
REMARK VINA RESULT: -7.954615344      1.585      1.906
REMARK  3 active torsions:
REMARK  status: ('A' for Active; 'I' for Inactive)
REMARK       I    between atoms: C1_2  and  N2_4 
REMARK    1  A    between atoms: N3_12  and  C9_13 
REMARK    2  A    between atoms: C9_13  and  O2_14 
REMARK    3  A    between atoms: C10_16  and  N4_17 
ROOT
HETATM    1  N1  UNL     1      18.283  10.655  -0.243  1.00  0.00    -0.040 NA
HETATM    2  C1  UNL     1      18.250   9.337   0.267  1.00  0.00     0.330 C 
HETATM    3  O1  UNL     1      18.942   8.453  -0.318  1.00  0.00    -0.251 OA
HETATM    4  N2  UNL     1      17.490   8.951   1.392  1.00  0.00    -0.336 N 
HETATM    5  C2  UNL     1      16.677   9.924   2.090  1.00  0.00     0.128 C 
HETATM    6  C3  UNL     1      15.334   9.255   2.334  1.00  0.00     0.029 C 
HETATM    7  C4  UNL     1      15.523   8.160   3.334  1.00  0.00    -0.035 C 
HETATM    8  C5  UNL     1      16.986   7.767   3.365  1.00  0.00     0.029 C 
HETATM    9  C6  UNL     1      17.466   7.604   1.915  1.00  0.00     0.128 C 
HETATM   10  C7  UNL     1      14.784   6.886   2.918  1.00  0.00     0.029 C 
HETATM   11  C8  UNL     1      13.623   6.618   3.887  1.00  0.00     0.125 C 
HETATM   12  N3  UNL     1      12.886   7.907   3.866  1.00  0.00    -0.361 N 
HETATM   13  C16 UNL     1      13.542   8.935   4.619  1.00  0.00     0.125 C 
HETATM   14  C17 UNL     1      15.035   8.632   4.665  1.00  0.00     0.029 C 
ENDROOT
BRANCH  12  15
HETATM   15  C9  UNL     1      11.714   8.001   3.108  1.00  0.00     0.148 C 
HETATM   16  C10 UNL     1      10.445   8.622   3.342  1.00  0.00     0.115 C 
BRANCH  15  17
HETATM   17  O2  UNL     1      11.760   7.405   1.923  1.00  0.00    -0.345 OA
ATOM     18  H2  UNL     1      11.093   6.743   1.778  1.00  0.00     0.219 HD
ENDBRANCH  15  17
BRANCH  16  19
HETATM   19  N4  UNL     1      10.139   9.227   4.602  1.00  0.00    -0.289 NA
HETATM   20  C11 UNL     1       9.755  10.615   4.367  1.00  0.00     0.095 C 
HETATM   21  C12 UNL     1       8.702  11.084   5.335  1.00  0.00     0.015 C 
HETATM   22  C13 UNL     1       7.421  10.398   4.831  1.00  0.00     0.002 C 
HETATM   23  C14 UNL     1       7.684   8.939   4.932  1.00  0.00     0.015 C 
HETATM   24  C15 UNL     1       9.069   8.528   5.296  1.00  0.00     0.095 C 
ENDBRANCH  16  19
ENDBRANCH  12  15
TORSDOF 3
ENDMDL
MODEL 4
REMARK VINA RESULT: -7.863947165      3.229      6.173
REMARK  3 active torsions:
REMARK  status: ('A' for Active; 'I' for Inactive)
REMARK       I    between atoms: C1_2  and  N2_4 
REMARK    1  A    between atoms: N3_12  and  C9_13 
REMARK    2  A    between atoms: C9_13  and  O2_14 
REMARK    3  A    between atoms: C10_16  and  N4_17 
ROOT
HETATM    1  N1  UNL     1      16.371  12.409  -1.390  1.00  0.00    -0.040 NA
HETATM    2  C1  UNL     1      15.268  13.088  -0.822  1.00  0.00     0.330 C 
HETATM    3  O1  UNL     1      15.259  14.353  -0.866  1.00  0.00    -0.251 OA
HETATM    4  N2  UNL     1      14.178  12.435  -0.208  1.00  0.00    -0.336 N 
HETATM    5  C2  UNL     1      14.146  10.990  -0.127  1.00  0.00     0.128 C 
HETATM    6  C3  UNL     1      13.721  10.657   1.294  1.00  0.00     0.029 C 
HETATM    7  C4  UNL     1      12.292  11.058   1.468  1.00  0.00    -0.035 C 
HETATM    8  C5  UNL     1      11.932  12.078   0.408  1.00  0.00     0.029 C 
HETATM    9  C6  UNL     1      13.049  13.133   0.364  1.00  0.00     0.128 C 
HETATM   10  C7  UNL     1      12.069  11.782   2.799  1.00  0.00     0.029 C 
HETATM   11  C8  UNL     1      11.208  10.911   3.727  1.00  0.00     0.125 C 
HETATM   12  N3  UNL     1      11.948   9.623   3.732  1.00  0.00    -0.361 N 
HETATM   13  C16 UNL     1      11.763   8.871   2.526  1.00  0.00     0.125 C 
HETATM   14  C17 UNL     1      11.433   9.836   1.393  1.00  0.00     0.029 C 
ENDROOT
BRANCH  12  15
HETATM   15  C9  UNL     1      12.752   9.311   4.834  1.00  0.00     0.148 C 
HETATM   16  C10 UNL     1      14.060   8.745   4.960  1.00  0.00     0.115 C 
BRANCH  15  17
HETATM   17  O2  UNL     1      12.218   9.590   6.017  1.00  0.00    -0.345 OA
ATOM     18  H2  UNL     1      12.826   9.935   6.661  1.00  0.00     0.219 HD
ENDBRANCH  15  17
BRANCH  16  19
HETATM   19  N4  UNL     1      14.774   8.267   3.815  1.00  0.00    -0.289 NA
HETATM   20  C11 UNL     1      16.031   9.000   3.715  1.00  0.00     0.095 C 
HETATM   21  C12 UNL     1      17.144   8.146   3.170  1.00  0.00     0.015 C 
HETATM   22  C13 UNL     1      17.502   7.227   4.351  1.00  0.00     0.002 C 
HETATM   23  C14 UNL     1      16.268   6.448   4.637  1.00  0.00     0.015 C 
HETATM   24  C15 UNL     1      15.037   6.840   3.894  1.00  0.00     0.095 C 
ENDBRANCH  16  19
ENDBRANCH  12  15
TORSDOF 3
ENDMDL
MODEL 5
REMARK VINA RESULT: -7.859675499      2.941      8.615
REMARK  3 active torsions:
REMARK  status: ('A' for Active; 'I' for Inactive)
REMARK       I    between atoms: C1_2  and  N2_4 
REMARK    1  A    between atoms: N3_12  and  C9_13 
REMARK    2  A    between atoms: C9_13  and  O2_14 
REMARK    3  A    between atoms: C10_16  and  N4_17 
ROOT
HETATM    1  N1  UNL     1       4.180  10.246   5.983  1.00  0.00    -0.040 NA
HETATM    2  C1  UNL     1       4.393   9.909   4.626  1.00  0.00     0.330 C 
HETATM    3  O1  UNL     1       3.421   9.434   3.970  1.00  0.00    -0.251 OA
HETATM    4  N2  UNL     1       5.629  10.073   3.963  1.00  0.00    -0.336 N 
HETATM    5  C2  UNL     1       6.772  10.606   4.673  1.00  0.00     0.128 C 
HETATM    6  C3  UNL     1       7.949   9.717   4.304  1.00  0.00     0.029 C 
HETATM    7  C4  UNL     1       8.282   9.944   2.865  1.00  0.00    -0.035 C 
HETATM    8  C5  UNL     1       7.080  10.546   2.168  1.00  0.00     0.029 C 
HETATM    9  C6  UNL     1       5.839   9.735   2.573  1.00  0.00     0.128 C 
HETATM   10  C7  UNL     1       8.539   8.625   2.133  1.00  0.00     0.029 C 
HETATM   11  C8  UNL     1      10.020   8.529   1.736  1.00  0.00     0.125 C 
HETATM   12  N3  UNL     1      10.712   8.772   3.028  1.00  0.00    -0.361 N 
HETATM   13  C16 UNL     1      10.698  10.152   3.414  1.00  0.00     0.125 C 
HETATM   14  C17 UNL     1       9.486  10.827   2.781  1.00  0.00     0.029 C 
ENDROOT
BRANCH  12  15
HETATM   15  C9  UNL     1      11.235   7.680   3.728  1.00  0.00     0.148 C 
HETATM   16  C10 UNL     1      12.568   7.288   4.074  1.00  0.00     0.115 C 
BRANCH  15  17
HETATM   17  O2  UNL     1      10.334   6.818   4.181  1.00  0.00    -0.345 OA
ATOM     18  H2  UNL     1       9.726   7.169   4.822  1.00  0.00     0.219 HD
ENDBRANCH  15  17
BRANCH  16  19
HETATM   19  N4  UNL     1      13.702   8.016   3.591  1.00  0.00    -0.289 NA
HETATM   20  C11 UNL     1      14.618   8.235   4.706  1.00  0.00     0.095 C 
HETATM   21  C12 UNL     1      16.058   8.210   4.269  1.00  0.00     0.015 C 
HETATM   22  C13 UNL     1      16.335   6.716   4.028  1.00  0.00     0.002 C 
HETATM   23  C14 UNL     1      15.400   6.307   2.948  1.00  0.00     0.015 C 
HETATM   24  C15 UNL     1      14.385   7.311   2.519  1.00  0.00     0.095 C 
ENDBRANCH  16  19
ENDBRANCH  12  15
TORSDOF 3
ENDMDL
