MODEL 1
REMARK VINA RESULT: -8.537469318      0.000      0.000
REMARK  2 active torsions:
REMARK  status: ('A' for Active; 'I' for Inactive)
REMARK    1  A    between atoms: C5_5  and  C6_6 
REMARK       I    between atoms: C6_6  and  N1_8 
REMARK    2  A    between atoms: N1_8  and  C7_10 
REMARK       I    between atoms: N2_13  and  C10_14 
REMARK       I    between atoms: C10_14  and  N3_16 
ROOT
HETATM    1  C1  UNL     1       5.621  10.294   5.626  1.00  0.00     0.012 C 
HETATM    2  C2  UNL     1       6.769  10.606   5.407  1.00  0.00    -0.113 C 
HETATM    3  C3  UNL     1       8.139  10.982   5.121  1.00  0.00     0.066 C 
HETATM    4  C4  UNL     1       8.660  10.256   3.881  1.00  0.00     0.031 C 
HETATM    5  C5  UNL     1       9.977  10.095   4.606  1.00  0.00     0.080 C 
HETATM    6  C17 UNL     1       9.187  10.213   5.915  1.00  0.00     0.031 C 
ENDROOT
BRANCH   5   7
HETATM    7  C6  UNL     1      10.635   8.784   4.416  1.00  0.00     0.222 C 
HETATM    8  O1  UNL     1       9.877   7.771   4.352  1.00  0.00    -0.273 OA
HETATM    9  N1  UNL     1      12.039   8.692   4.314  1.00  0.00    -0.356 N 
ATOM     10  H1  UNL     1      12.589   9.548   4.374  1.00  0.00     0.162 HD
BRANCH   9  11
HETATM   11  C7  UNL     1      12.735   7.438   4.127  1.00  0.00     0.087 C 
HETATM   12  C8  UNL     1      14.116   7.527   4.748  1.00  0.00     0.045 C 
HETATM   13  C9  UNL     1      15.154   6.886   3.881  1.00  0.00     0.129 C 
HETATM   14  N2  UNL     1      15.245   7.651   2.633  1.00  0.00    -0.334 N 
HETATM   15  C10 UNL     1      16.520   7.977   2.160  1.00  0.00     0.320 C 
HETATM   16  C15 UNL     1      13.974   7.985   2.024  1.00  0.00     0.129 C 
HETATM   17  O2  UNL     1      17.500   7.553   2.893  1.00  0.00    -0.247 OA
HETATM   18  N3  UNL     1      16.894   8.682   1.031  1.00  0.00    -0.330 N 
HETATM   19  C11 UNL     1      18.310   8.906   0.730  1.00  0.00     0.153 C 
HETATM   20  C14 UNL     1      15.967   9.237   0.089  1.00  0.00     0.153 C 
HETATM   21  C12 UNL     1      18.600  10.386   0.594  1.00  0.00     0.187 C 
HETATM   22  O3  UNL     1      17.578  11.042  -0.092  1.00  0.00    -0.388 OA
HETATM   23  C13 UNL     1      16.806  10.146  -0.831  1.00  0.00     0.187 C 
HETATM   24  C16 UNL     1      12.916   7.087   2.681  1.00  0.00     0.045 C 
ENDBRANCH   9  11
ENDBRANCH   5   7
TORSDOF 2
ENDMDL
MODEL 2
REMARK VINA RESULT: -8.508544249      2.532      8.225
REMARK  2 active torsions:
REMARK  status: ('A' for Active; 'I' for Inactive)
REMARK    1  A    between atoms: C5_5  and  C6_6 
REMARK       I    between atoms: C6_6  and  N1_8 
REMARK    2  A    between atoms: N1_8  and  C7_10 
REMARK       I    between atoms: N2_13  and  C10_14 
REMARK       I    between atoms: C10_14  and  N3_16 
ROOT
HETATM    1  C1  UNL     1      15.478   6.999  -4.749  1.00  0.00     0.012 C 
HETATM    2  C2  UNL     1      15.979   8.050  -4.419  1.00  0.00    -0.113 C 
HETATM    3  C3  UNL     1      16.602   9.298  -4.030  1.00  0.00     0.066 C 
HETATM    4  C4  UNL     1      17.857   9.049  -3.193  1.00  0.00     0.031 C 
HETATM    5  C5  UNL     1      17.438  10.220  -2.332  1.00  0.00     0.080 C 
HETATM    6  C17 UNL     1      16.001   9.948  -2.791  1.00  0.00     0.031 C 
ENDROOT
BRANCH   5   7
HETATM    7  C6  UNL     1      17.653  10.031  -0.881  1.00  0.00     0.222 C 
HETATM    8  O1  UNL     1      18.241  10.971  -0.267  1.00  0.00    -0.273 OA
HETATM    9  N1  UNL     1      17.218   8.856  -0.235  1.00  0.00    -0.356 N 
ATOM     10  H1  UNL     1      16.751   8.139  -0.791  1.00  0.00     0.162 HD
BRANCH   9  11
HETATM   11  C7  UNL     1      17.402   8.619   1.180  1.00  0.00     0.087 C 
HETATM   12  C8  UNL     1      16.805   7.274   1.551  1.00  0.00     0.045 C 
HETATM   13  C9  UNL     1      16.066   7.337   2.851  1.00  0.00     0.129 C 
HETATM   14  N2  UNL     1      14.917   8.233   2.681  1.00  0.00    -0.334 N 
HETATM   15  C10 UNL     1      13.680   7.804   3.171  1.00  0.00     0.320 C 
HETATM   16  C15 UNL     1      15.208   9.484   2.012  1.00  0.00     0.129 C 
HETATM   17  O2  UNL     1      13.689   6.638   3.736  1.00  0.00    -0.247 OA
HETATM   18  N3  UNL     1      12.448   8.433   3.145  1.00  0.00    -0.330 N 
HETATM   19  C11 UNL     1      11.271   7.786   3.727  1.00  0.00     0.153 C 
HETATM   20  C14 UNL     1      12.221   9.726   2.567  1.00  0.00     0.153 C 
HETATM   21  C12 UNL     1      10.166   7.659   2.699  1.00  0.00     0.187 C 
HETATM   22  O3  UNL     1      10.076   8.805   1.909  1.00  0.00    -0.388 OA
HETATM   23  C13 UNL     1      10.689   9.895   2.523  1.00  0.00     0.187 C 
HETATM   24  C16 UNL     1      16.733   9.656   2.031  1.00  0.00     0.045 C 
ENDBRANCH   9  11
ENDBRANCH   5   7
TORSDOF 2
ENDMDL
MODEL 3
REMARK VINA RESULT: -8.100936703      3.471      9.268
REMARK  2 active torsions:
REMARK  status: ('A' for Active; 'I' for Inactive)
REMARK    1  A    between atoms: C5_5  and  C6_6 
REMARK       I    between atoms: C6_6  and  N1_8 
REMARK    2  A    between atoms: N1_8  and  C7_10 
REMARK       I    between atoms: N2_13  and  C10_14 
REMARK       I    between atoms: C10_14  and  N3_16 
ROOT
HETATM    1  C1  UNL     1      17.183   6.858   4.494  1.00  0.00     0.012 C 
HETATM    2  C2  UNL     1      16.061   6.872   4.042  1.00  0.00    -0.113 C 
HETATM    3  C3  UNL     1      14.725   6.906   3.484  1.00  0.00     0.066 C 
HETATM    4  C4  UNL     1      14.291   8.340   3.182  1.00  0.00     0.031 C 
HETATM    5  C5  UNL     1      12.918   7.966   3.695  1.00  0.00     0.080 C 
HETATM    6  C17 UNL     1      13.605   6.868   4.515  1.00  0.00     0.031 C 
ENDROOT
BRANCH   5   7
HETATM    7  C6  UNL     1      12.256   9.005   4.512  1.00  0.00     0.222 C 
HETATM    8  O1  UNL     1      12.981   9.967   4.905  1.00  0.00    -0.273 OA
HETATM    9  N1  UNL     1      10.885   8.907   4.827  1.00  0.00    -0.356 N 
ATOM     10  H1  UNL     1      10.361   8.105   4.479  1.00  0.00     0.162 HD
BRANCH   9  11
HETATM   11  C7  UNL     1      10.186   9.893   5.622  1.00  0.00     0.087 C 
HETATM   12  C8  UNL     1       9.005   9.241   6.317  1.00  0.00     0.045 C 
HETATM   13  C9  UNL     1       7.793  10.119   6.287  1.00  0.00     0.129 C 
HETATM   14  N2  UNL     1       7.377  10.278   4.889  1.00  0.00    -0.334 N 
HETATM   15  C10 UNL     1       6.019  10.129   4.594  1.00  0.00     0.320 C 
HETATM   16  C15 UNL     1       8.447  10.577   3.960  1.00  0.00     0.129 C 
HETATM   17  O2  UNL     1       5.262   9.864   5.612  1.00  0.00    -0.247 OA
HETATM   18  N3  UNL     1       5.359  10.219   3.382  1.00  0.00    -0.330 N 
HETATM   19  C11 UNL     1       3.909  10.023   3.308  1.00  0.00     0.153 C 
HETATM   20  C14 UNL     1       6.008  10.502   2.135  1.00  0.00     0.153 C 
HETATM   21  C12 UNL     1       3.567   8.916   2.333  1.00  0.00     0.187 C 
HETATM   22  O3  UNL     1       4.372   8.976   1.196  1.00  0.00    -0.388 OA
HETATM   23  C13 UNL     1       4.947  10.238   1.047  1.00  0.00     0.187 C 
HETATM   24  C16 UNL     1       9.652  11.026   4.799  1.00  0.00     0.045 C 
ENDBRANCH   9  11
ENDBRANCH   5   7
TORSDOF 2
ENDMDL
MODEL 4
REMARK VINA RESULT: -8.034877006      3.359      8.745
REMARK  2 active torsions:
REMARK  status: ('A' for Active; 'I' for Inactive)
REMARK    1  A    between atoms: C5_5  and  C6_6 
REMARK       I    between atoms: C6_6  and  N1_8 
REMARK    2  A    between atoms: N1_8  and  C7_10 
REMARK       I    between atoms: N2_13  and  C10_14 
REMARK       I    between atoms: C10_14  and  N3_16 
ROOT
HETATM    1  C1  UNL     1      14.982   6.217  -4.827  1.00  0.00     0.012 C 
HETATM    2  C2  UNL     1      15.601   7.251  -4.719  1.00  0.00    -0.113 C 
HETATM    3  C3  UNL     1      16.364   8.475  -4.585  1.00  0.00     0.066 C 
HETATM    4  C4  UNL     1      17.304   8.408  -3.381  1.00  0.00     0.031 C 
HETATM    5  C5  UNL     1      16.950   9.852  -3.104  1.00  0.00     0.080 C 
HETATM    6  C17 UNL     1      15.638   9.598  -3.855  1.00  0.00     0.031 C 
ENDROOT
BRANCH   5   7
HETATM    7  C6  UNL     1      16.772  10.185  -1.675  1.00  0.00     0.222 C 
HETATM    8  O1  UNL     1      17.484  11.129  -1.218  1.00  0.00    -0.273 OA
HETATM    9  N1  UNL     1      15.852   9.473  -0.879  1.00  0.00    -0.356 N 
ATOM     10  H1  UNL     1      15.312   8.724  -1.312  1.00  0.00     0.162 HD
BRANCH   9  11
HETATM   11  C7  UNL     1      15.637   9.755   0.523  1.00  0.00     0.087 C 
HETATM   12  C8  UNL     1      14.917   8.587   1.172  1.00  0.00     0.045 C 
HETATM   13  C9  UNL     1      13.856   9.050   2.120  1.00  0.00     0.129 C 
HETATM   14  N2  UNL     1      12.827   9.754   1.348  1.00  0.00    -0.334 N 
HETATM   15  C10 UNL     1      11.489   9.442   1.610  1.00  0.00     0.320 C 
HETATM   16  C15 UNL     1      13.330  10.710   0.383  1.00  0.00     0.129 C 
HETATM   17  O2  UNL     1      11.305   8.549   2.530  1.00  0.00    -0.247 OA
HETATM   18  N3  UNL     1      10.333   9.941   1.038  1.00  0.00    -0.330 N 
HETATM   19  C11 UNL     1       9.021   9.461   1.476  1.00  0.00     0.153 C 
HETATM   20  C14 UNL     1      10.314  10.934   0.004  1.00  0.00     0.153 C 
HETATM   21  C12 UNL     1       8.233   8.912   0.305  1.00  0.00     0.187 C 
HETATM   22  O3  UNL     1       8.398   9.703  -0.832  1.00  0.00    -0.388 OA
HETATM   23  C13 UNL     1       8.858  10.977  -0.501  1.00  0.00     0.187 C 
HETATM   24  C16 UNL     1      14.798  10.977   0.745  1.00  0.00     0.045 C 
ENDBRANCH   9  11
ENDBRANCH   5   7
TORSDOF 2
ENDMDL
MODEL 5
REMARK VINA RESULT: -7.994609049      2.215      2.652
REMARK  2 active torsions:
REMARK  status: ('A' for Active; 'I' for Inactive)
REMARK    1  A    between atoms: C5_5  and  C6_6 
REMARK       I    between atoms: C6_6  and  N1_8 
REMARK    2  A    between atoms: N1_8  and  C7_10 
REMARK       I    between atoms: N2_13  and  C10_14 
REMARK       I    between atoms: C10_14  and  N3_16 
ROOT
HETATM    1  C1  UNL     1       4.155   9.179   1.478  1.00  0.00     0.012 C 
HETATM    2  C2  UNL     1       5.256   9.671   1.374  1.00  0.00    -0.113 C 
HETATM    3  C3  UNL     1       6.579  10.242   1.232  1.00  0.00     0.066 C 
HETATM    4  C4  UNL     1       7.648   9.150   1.190  1.00  0.00     0.031 C 
HETATM    5  C5  UNL     1       8.511  10.050   2.047  1.00  0.00     0.080 C 
HETATM    6  C17 UNL     1       7.215  10.703   2.538  1.00  0.00     0.031 C 
ENDROOT
BRANCH   5   7
HETATM    7  C6  UNL     1       9.275   9.354   3.105  1.00  0.00     0.222 C 
HETATM    8  O1  UNL     1       8.612   8.612   3.890  1.00  0.00    -0.273 OA
HETATM    9  N1  UNL     1      10.670   9.525   3.216  1.00  0.00    -0.356 N 
ATOM     10  H1  UNL     1      11.140  10.138   2.550  1.00  0.00     0.162 HD
BRANCH   9  11
HETATM   11  C7  UNL     1      11.467   8.870   4.230  1.00  0.00     0.087 C 
HETATM   12  C8  UNL     1      12.675   9.727   4.558  1.00  0.00     0.045 C 
HETATM   13  C9  UNL     1      13.912   8.899   4.718  1.00  0.00     0.129 C 
HETATM   14  N2  UNL     1      14.220   8.282   3.423  1.00  0.00    -0.334 N 
HETATM   15  C10 UNL     1      15.544   8.333   2.976  1.00  0.00     0.320 C 
HETATM   16  C15 UNL     1      13.090   7.678   2.747  1.00  0.00     0.129 C 
HETATM   17  O2  UNL     1      16.369   8.930   3.776  1.00  0.00    -0.247 OA
HETATM   18  N3  UNL     1      16.107   7.844   1.811  1.00  0.00    -0.330 N 
HETATM   19  C11 UNL     1      17.537   8.015   1.548  1.00  0.00     0.153 C 
HETATM   20  C14 UNL     1      15.370   7.152   0.794  1.00  0.00     0.153 C 
HETATM   21  C12 UNL     1      17.758   8.730   0.232  1.00  0.00     0.187 C 
HETATM   22  O3  UNL     1      16.867   8.284  -0.743  1.00  0.00    -0.388 OA
HETATM   23  C13 UNL     1      16.328   7.042  -0.408  1.00  0.00     0.187 C 
HETATM   24  C16 UNL     1      11.974   7.530   3.791  1.00  0.00     0.045 C 
ENDBRANCH   9  11
ENDBRANCH   5   7
TORSDOF 2
ENDMDL
