MODEL 1
REMARK VINA RESULT: -7.249075653      0.000      0.000
REMARK  4 active torsions:
REMARK  status: ('A' for Active; 'I' for Inactive)
REMARK       I    between atoms: N1_2  and  C2_4 
REMARK    1  A    between atoms: C2_4  and  C3_6 
REMARK       I    between atoms: C3_6  and  N2_8 
REMARK    2  A    between atoms: C9_14  and  C10_15 
REMARK    3  A    between atoms: C10_15  and  O3_16 
REMARK    4  A    between atoms: C10_15  and  N3_18 
ROOT
HETATM    1  C3  UNL     1      30.281  22.715   8.225  1.00  0.00     0.312 C 
HETATM    2  O2  UNL     1      30.558  21.744   9.030  1.00  0.00    -0.262 OA
HETATM    3  N2  UNL     1      29.436  23.754   8.671  1.00  0.00    -0.331 N 
HETATM    4  C4  UNL     1      29.063  24.819   7.771  1.00  0.00     0.137 C 
HETATM    5  C5  UNL     1      27.912  25.633   8.334  1.00  0.00    -0.020 C 
HETATM    6  C6  UNL     1      27.436  26.729   7.464  1.00  0.00     0.018 C 
HETATM    7  C7  UNL     1      28.170  26.122   9.744  1.00  0.00     0.019 C 
HETATM    8  C8  UNL     1      27.753  24.706  10.169  1.00  0.00     0.026 C 
HETATM    9  C9  UNL     1      28.950  23.764   9.996  1.00  0.00     0.167 C 
HETATM   10  C13 UNL     1      26.862  24.730   8.948  1.00  0.00    -0.033 C 
HETATM   11  C14 UNL     1      26.607  23.437   8.281  1.00  0.00     0.016 C 
HETATM   12  C15 UNL     1      25.600  25.513   9.228  1.00  0.00     0.016 C 
ENDROOT
BRANCH   1  13
HETATM   13  C2  UNL     1      30.905  22.592   6.928  1.00  0.00     0.309 C 
HETATM   14  N1  UNL     1      30.767  21.441   6.109  1.00  0.00    -0.357 N 
HETATM   15  C1  UNL     1      31.405  21.352   4.818  1.00  0.00     0.149 C 
ATOM     16  H1  UNL     1      30.204  20.658   6.441  1.00  0.00     0.162 HD
HETATM   17  O1  UNL     1      31.602  23.530   6.488  1.00  0.00    -0.262 OA
ENDBRANCH   1  13
BRANCH   9  18
HETATM   18  C10 UNL     1      29.848  24.037  11.101  1.00  0.00     0.136 C 
BRANCH  18  19
HETATM   19  O3  UNL     1      29.271  23.725  12.225  1.00  0.00    -0.348 OA
ATOM     20  H3  UNL     1      29.079  24.515  12.719  1.00  0.00     0.219 HD
ENDBRANCH  18  19
BRANCH  18  21
HETATM   21  N3  UNL     1      31.127  24.537  11.214  1.00  0.00    -0.372 N 
HETATM   22  C11 UNL     1      31.874  25.343  10.271  1.00  0.00     0.150 C 
HETATM   23  C12 UNL     1      31.910  24.242  12.438  1.00  0.00     0.150 C 
ENDBRANCH  18  21
ENDBRANCH   9  18
TORSDOF 4
ENDMDL
MODEL 2
REMARK VINA RESULT: -7.061070467      3.529      5.605
REMARK  4 active torsions:
REMARK  status: ('A' for Active; 'I' for Inactive)
REMARK       I    between atoms: N1_2  and  C2_4 
REMARK    1  A    between atoms: C2_4  and  C3_6 
REMARK       I    between atoms: C3_6  and  N2_8 
REMARK    2  A    between atoms: C9_14  and  C10_15 
REMARK    3  A    between atoms: C10_15  and  O3_16 
REMARK    4  A    between atoms: C10_15  and  N3_18 
ROOT
HETATM    1  C3  UNL     1      25.995  22.732   7.145  1.00  0.00     0.312 C 
HETATM    2  O2  UNL     1      25.479  22.865   5.969  1.00  0.00    -0.262 OA
HETATM    3  N2  UNL     1      26.212  23.882   7.933  1.00  0.00    -0.331 N 
HETATM    4  C4  UNL     1      26.842  23.766   9.227  1.00  0.00     0.137 C 
HETATM    5  C5  UNL     1      27.271  25.125   9.750  1.00  0.00    -0.020 C 
HETATM    6  C6  UNL     1      27.959  25.102  11.058  1.00  0.00     0.018 C 
HETATM    7  C7  UNL     1      26.151  26.143   9.735  1.00  0.00     0.019 C 
HETATM    8  C8  UNL     1      26.487  26.293   8.243  1.00  0.00     0.026 C 
HETATM    9  C9  UNL     1      25.815  25.155   7.467  1.00  0.00     0.167 C 
HETATM   10  C13 UNL     1      27.902  25.952   8.649  1.00  0.00    -0.033 C 
HETATM   11  C14 UNL     1      28.730  25.239   7.655  1.00  0.00     0.016 C 
HETATM   12  C15 UNL     1      28.592  27.163   9.237  1.00  0.00     0.016 C 
ENDROOT
BRANCH   1  13
HETATM   13  C2  UNL     1      26.287  21.362   7.501  1.00  0.00     0.309 C 
HETATM   14  N1  UNL     1      25.278  20.394   7.746  1.00  0.00    -0.357 N 
HETATM   15  C1  UNL     1      25.607  19.034   8.099  1.00  0.00     0.149 C 
ATOM     16  H1  UNL     1      24.298  20.666   7.671  1.00  0.00     0.162 HD
HETATM   17  O1  UNL     1      27.475  20.991   7.602  1.00  0.00    -0.262 OA
ENDBRANCH   1  13
BRANCH   9  18
HETATM   18  C10 UNL     1      24.408  25.494   7.380  1.00  0.00     0.136 C 
BRANCH  18  19
HETATM   19  O3  UNL     1      24.264  26.623   6.750  1.00  0.00    -0.348 OA
ATOM     20  H3  UNL     1      23.550  26.556   6.126  1.00  0.00     0.219 HD
ENDBRANCH  18  19
BRANCH  18  21
HETATM   21  N3  UNL     1      23.238  24.904   7.806  1.00  0.00    -0.372 N 
HETATM   22  C11 UNL     1      22.458  23.865   7.167  1.00  0.00     0.150 C 
HETATM   23  C12 UNL     1      22.628  25.351   9.082  1.00  0.00     0.150 C 
ENDBRANCH  18  21
ENDBRANCH   9  18
TORSDOF 4
ENDMDL
MODEL 3
REMARK VINA RESULT: -6.430808326      4.483      6.839
REMARK  4 active torsions:
REMARK  status: ('A' for Active; 'I' for Inactive)
REMARK       I    between atoms: N1_2  and  C2_4 
REMARK    1  A    between atoms: C2_4  and  C3_6 
REMARK       I    between atoms: C3_6  and  N2_8 
REMARK    2  A    between atoms: C9_14  and  C10_15 
REMARK    3  A    between atoms: C10_15  and  O3_16 
REMARK    4  A    between atoms: C10_15  and  N3_18 
ROOT
HETATM    1  C3  UNL     1      31.967  21.533   9.094  1.00  0.00     0.312 C 
HETATM    2  O2  UNL     1      32.372  22.739   9.313  1.00  0.00    -0.262 OA
HETATM    3  N2  UNL     1      32.645  20.459   9.710  1.00  0.00    -0.331 N 
HETATM    4  C4  UNL     1      32.249  19.099   9.432  1.00  0.00     0.137 C 
HETATM    5  C5  UNL     1      33.293  18.114   9.925  1.00  0.00    -0.020 C 
HETATM    6  C6  UNL     1      32.991  16.693   9.653  1.00  0.00     0.018 C 
HETATM    7  C7  UNL     1      33.669  18.329  11.376  1.00  0.00     0.019 C 
HETATM    8  C8  UNL     1      34.567  19.453  10.838  1.00  0.00     0.026 C 
HETATM    9  C9  UNL     1      33.711  20.703  10.602  1.00  0.00     0.167 C 
HETATM   10  C13 UNL     1      34.691  18.600   9.597  1.00  0.00    -0.033 C 
HETATM   11  C14 UNL     1      34.877  19.309   8.314  1.00  0.00     0.016 C 
HETATM   12  C15 UNL     1      35.693  17.490   9.814  1.00  0.00     0.016 C 
ENDROOT
BRANCH   1  13
HETATM   13  C2  UNL     1      30.827  21.454   8.209  1.00  0.00     0.309 C 
HETATM   14  N1  UNL     1      29.488  21.600   8.657  1.00  0.00    -0.357 N 
HETATM   15  C1  UNL     1      28.373  21.516   7.746  1.00  0.00     0.149 C 
ATOM     16  H1  UNL     1      29.310  21.768   9.648  1.00  0.00     0.162 HD
HETATM   17  O1  UNL     1      31.005  21.249   6.990  1.00  0.00    -0.262 OA
ENDBRANCH   1  13
BRANCH   9  18
HETATM   18  C10 UNL     1      33.453  21.275  11.909  1.00  0.00     0.136 C 
BRANCH  18  19
HETATM   19  O3  UNL     1      32.254  20.954  12.302  1.00  0.00    -0.348 OA
ATOM     20  H3  UNL     1      31.609  21.406  11.770  1.00  0.00     0.219 HD
ENDBRANCH  18  19
BRANCH  18  21
HETATM   21  N3  UNL     1      34.172  22.054  12.789  1.00  0.00    -0.372 N 
HETATM   22  C11 UNL     1      35.575  21.973  13.138  1.00  0.00     0.150 C 
HETATM   23  C12 UNL     1      33.478  23.141  13.522  1.00  0.00     0.150 C 
ENDBRANCH  18  21
ENDBRANCH   9  18
TORSDOF 4
ENDMDL
MODEL 4
REMARK VINA RESULT: -6.388145074      5.217      7.596
REMARK  4 active torsions:
REMARK  status: ('A' for Active; 'I' for Inactive)
REMARK       I    between atoms: N1_2  and  C2_4 
REMARK    1  A    between atoms: C2_4  and  C3_6 
REMARK       I    between atoms: C3_6  and  N2_8 
REMARK    2  A    between atoms: C9_14  and  C10_15 
REMARK    3  A    between atoms: C10_15  and  O3_16 
REMARK    4  A    between atoms: C10_15  and  N3_18 
ROOT
HETATM    1  C3  UNL     1      33.526  21.620   9.578  1.00  0.00     0.312 C 
HETATM    2  O2  UNL     1      34.273  22.663   9.720  1.00  0.00    -0.262 OA
HETATM    3  N2  UNL     1      33.929  20.403  10.169  1.00  0.00    -0.331 N 
HETATM    4  C4  UNL     1      33.142  19.208   9.974  1.00  0.00     0.137 C 
HETATM    5  C5  UNL     1      33.909  17.972  10.408  1.00  0.00    -0.020 C 
HETATM    6  C6  UNL     1      33.195  16.693  10.213  1.00  0.00     0.018 C 
HETATM    7  C7  UNL     1      34.464  18.085  11.812  1.00  0.00     0.019 C 
HETATM    8  C8  UNL     1      35.588  18.904  11.160  1.00  0.00     0.026 C 
HETATM    9  C9  UNL     1      35.099  20.342  10.957  1.00  0.00     0.167 C 
HETATM   10  C13 UNL     1      35.350  18.040   9.943  1.00  0.00    -0.033 C 
HETATM   11  C14 UNL     1      35.608  18.656   8.625  1.00  0.00     0.016 C 
HETATM   12  C15 UNL     1      36.015  16.693  10.110  1.00  0.00     0.016 C 
ENDROOT
BRANCH   1  13
HETATM   13  C2  UNL     1      32.332  21.859   8.799  1.00  0.00     0.309 C 
HETATM   14  N1  UNL     1      31.052  22.045   9.383  1.00  0.00    -0.357 N 
HETATM   15  C1  UNL     1      29.881  22.282   8.575  1.00  0.00     0.149 C 
ATOM     16  H1  UNL     1      30.957  22.009  10.398  1.00  0.00     0.162 HD
HETATM   17  O1  UNL     1      32.408  21.910   7.554  1.00  0.00    -0.262 OA
ENDBRANCH   1  13
BRANCH   9  18
HETATM   18  C10 UNL     1      35.135  20.975  12.261  1.00  0.00     0.136 C 
BRANCH  18  19
HETATM   19  O3  UNL     1      36.324  20.855  12.776  1.00  0.00    -0.348 OA
ATOM     20  H3  UNL     1      36.970  21.232  12.189  1.00  0.00     0.219 HD
ENDBRANCH  18  19
BRANCH  18  21
HETATM   21  N3  UNL     1      34.220  21.646  13.041  1.00  0.00    -0.372 N 
HETATM   22  C11 UNL     1      34.263  23.011  13.524  1.00  0.00     0.150 C 
HETATM   23  C12 UNL     1      33.000  20.934  13.495  1.00  0.00     0.150 C 
ENDBRANCH  18  21
ENDBRANCH   9  18
TORSDOF 4
ENDMDL
MODEL 5
REMARK VINA RESULT: -6.378669771      4.460      7.395
REMARK  4 active torsions:
REMARK  status: ('A' for Active; 'I' for Inactive)
REMARK       I    between atoms: N1_2  and  C2_4 
REMARK    1  A    between atoms: C2_4  and  C3_6 
REMARK       I    between atoms: C3_6  and  N2_8 
REMARK    2  A    between atoms: C9_14  and  C10_15 
REMARK    3  A    between atoms: C10_15  and  O3_16 
REMARK    4  A    between atoms: C10_15  and  N3_18 
ROOT
HETATM    1  C3  UNL     1      33.304  22.233  10.572  1.00  0.00     0.312 C 
HETATM    2  O2  UNL     1      32.127  22.737  10.736  1.00  0.00    -0.262 OA
HETATM    3  N2  UNL     1      33.425  20.948  10.001  1.00  0.00    -0.331 N 
HETATM    4  C4  UNL     1      34.726  20.337   9.862  1.00  0.00     0.137 C 
HETATM    5  C5  UNL     1      34.604  18.859   9.539  1.00  0.00    -0.020 C 
HETATM    6  C6  UNL     1      35.889  18.140   9.412  1.00  0.00     0.018 C 
HETATM    7  C7  UNL     1      33.701  18.587   8.355  1.00  0.00     0.019 C 
HETATM    8  C8  UNL     1      32.553  18.754   9.361  1.00  0.00     0.026 C 
HETATM    9  C9  UNL     1      32.280  20.250   9.558  1.00  0.00     0.167 C 
HETATM   10  C13 UNL     1      33.526  18.210  10.382  1.00  0.00    -0.033 C 
HETATM   11  C14 UNL     1      33.373  18.686  11.772  1.00  0.00     0.016 C 
HETATM   12  C15 UNL     1      33.618  16.704  10.276  1.00  0.00     0.016 C 
ENDROOT
BRANCH   1  13
HETATM   13  C2  UNL     1      34.374  23.096  11.016  1.00  0.00     0.309 C 
HETATM   14  N1  UNL     1      35.050  23.997  10.153  1.00  0.00    -0.357 N 
HETATM   15  C1  UNL     1      36.115  24.845  10.631  1.00  0.00     0.149 C 
ATOM     16  H1  UNL     1      34.777  24.047   9.172  1.00  0.00     0.162 HD
HETATM   17  O1  UNL     1      34.737  23.064  12.211  1.00  0.00    -0.262 OA
ENDBRANCH   1  13
BRANCH   9  18
HETATM   18  C10 UNL     1      31.565  20.694   8.378  1.00  0.00     0.136 C 
BRANCH  18  19
HETATM   19  O3  UNL     1      30.375  20.168   8.360  1.00  0.00    -0.348 OA
ATOM     20  H3  UNL     1      29.730  20.837   8.160  1.00  0.00     0.219 HD
ENDBRANCH  18  19
BRANCH  18  21
HETATM   21  N3  UNL     1      31.862  21.518   7.314  1.00  0.00    -0.372 N 
HETATM   22  C11 UNL     1      32.674  21.240   6.148  1.00  0.00     0.150 C 
HETATM   23  C12 UNL     1      31.315  22.896   7.296  1.00  0.00     0.150 C 
ENDBRANCH  18  21
ENDBRANCH   9  18
TORSDOF 4
ENDMDL
