MODEL 1
REMARK VINA RESULT: -6.464324944      0.000      0.000
REMARK  4 active torsions:
REMARK  status: ('A' for Active; 'I' for Inactive)
REMARK       I    between atoms: C2_2  and  N1_4 
REMARK    1  A    between atoms: N1_4  and  C3_6 
REMARK    2  A    between atoms: C4_10  and  N3_11 
REMARK       I    between atoms: N3_11  and  C5_13 
REMARK    3  A    between atoms: C5_13  and  C6_15 
REMARK    4  A    between atoms: C6_15  and  N4_16 
ROOT
HETATM    1  C3  UNL     1      25.631  24.566   7.711  1.00  0.00     0.099 A 
HETATM    2  S1  UNL     1      26.202  22.987   8.195  1.00  0.00     0.006 SA
HETATM    3  N2  UNL     1      27.817  22.966   8.594  1.00  0.00    -0.311 N 
ATOM      4  H2  UNL     1      28.276  22.106   8.894  1.00  0.00     0.176 HD
HETATM    5  C4  UNL     1      28.495  24.120   8.506  1.00  0.00     0.114 A 
HETATM    6  C10 UNL     1      27.931  25.305   8.111  1.00  0.00     0.058 A 
HETATM    7  C11 UNL     1      26.624  25.521   7.745  1.00  0.00    -0.023 A 
HETATM    8  C12 UNL     1      26.253  26.932   7.346  1.00  0.00     0.051 C 
ENDROOT
BRANCH   5   9
HETATM    9  N3  UNL     1      29.771  24.087   8.825  1.00  0.00    -0.311 N 
HETATM   10  C5  UNL     1      30.308  23.058   9.641  1.00  0.00     0.249 C 
HETATM   11  O2  UNL     1      30.586  21.941   9.135  1.00  0.00    -0.271 OA
ATOM     12  H3  UNL     1      30.389  24.819   8.475  1.00  0.00     0.170 HD
BRANCH  10  13
HETATM   13  C6  UNL     1      30.539  23.310  11.093  1.00  0.00     0.338 C 
BRANCH  13  14
HETATM   14  N4  UNL     1      31.921  23.513  11.397  1.00  0.00    -0.070 N 
HETATM   15  C7  UNL     1      31.973  24.361  12.592  1.00  0.00     0.272 C 
HETATM   16  C8  UNL     1      32.608  22.284  11.747  1.00  0.00     0.272 C 
HETATM   17  C9  UNL     1      32.586  24.203  10.337  1.00  0.00     0.272 C 
ENDBRANCH  13  14
ENDBRANCH  10  13
ENDBRANCH   5   9
BRANCH   1  18
HETATM   18  N1  UNL     1      24.430  24.737   7.377  1.00  0.00    -0.320 N 
HETATM   19  C2  UNL     1      23.161  24.529   7.771  1.00  0.00     0.218 C 
HETATM   20  C1  UNL     1      22.322  23.477   7.082  1.00  0.00     0.117 C 
HETATM   21  O1  UNL     1      22.561  25.141   8.688  1.00  0.00    -0.274 OA
ATOM     22  H1  UNL     1      24.412  25.208   6.472  1.00  0.00     0.169 HD
ENDBRANCH   1  18
TORSDOF 4
ENDMDL
MODEL 2
REMARK VINA RESULT: -6.425573042      2.335      3.014
REMARK  4 active torsions:
REMARK  status: ('A' for Active; 'I' for Inactive)
REMARK       I    between atoms: C2_2  and  N1_4 
REMARK    1  A    between atoms: N1_4  and  C3_6 
REMARK    2  A    between atoms: C4_10  and  N3_11 
REMARK       I    between atoms: N3_11  and  C5_13 
REMARK    3  A    between atoms: C5_13  and  C6_15 
REMARK    4  A    between atoms: C6_15  and  N4_16 
ROOT
HETATM    1  C3  UNL     1      25.819  25.485   8.852  1.00  0.00     0.099 A 
HETATM    2  S1  UNL     1      27.175  25.683   9.936  1.00  0.00     0.006 SA
HETATM    3  N2  UNL     1      28.275  24.438   9.847  1.00  0.00    -0.311 N 
ATOM      4  H2  UNL     1      29.113  24.432  10.429  1.00  0.00     0.176 HD
HETATM    5  C4  UNL     1      28.021  23.444   8.984  1.00  0.00     0.114 A 
HETATM    6  C10 UNL     1      26.913  23.400   8.178  1.00  0.00     0.058 A 
HETATM    7  C11 UNL     1      25.901  24.327   8.109  1.00  0.00    -0.023 A 
HETATM    8  C12 UNL     1      24.782  24.041   7.131  1.00  0.00     0.051 C 
ENDROOT
BRANCH   5   9
HETATM    9  N3  UNL     1      28.900  22.466   8.925  1.00  0.00    -0.311 N 
HETATM   10  C5  UNL     1      30.281  22.693   9.161  1.00  0.00     0.249 C 
HETATM   11  O2  UNL     1      30.708  22.771  10.342  1.00  0.00    -0.271 OA
ATOM     12  H3  UNL     1      28.581  21.523   8.705  1.00  0.00     0.170 HD
BRANCH  10  13
HETATM   13  C6  UNL     1      31.215  22.837   8.008  1.00  0.00     0.338 C 
BRANCH  13  14
HETATM   14  N4  UNL     1      31.999  21.661   7.792  1.00  0.00    -0.070 N 
HETATM   15  C7  UNL     1      32.468  21.712   6.404  1.00  0.00     0.272 C 
HETATM   16  C8  UNL     1      33.192  21.619   8.616  1.00  0.00     0.272 C 
HETATM   17  C9  UNL     1      31.210  20.480   7.948  1.00  0.00     0.272 C 
ENDBRANCH  13  14
ENDBRANCH  10  13
ENDBRANCH   5   9
BRANCH   1  18
HETATM   18  N1  UNL     1      24.903  26.346   8.809  1.00  0.00    -0.320 N 
HETATM   19  C2  UNL     1      23.624  26.544   8.441  1.00  0.00     0.218 C 
HETATM   20  C1  UNL     1      23.314  27.381   7.221  1.00  0.00     0.117 C 
HETATM   21  O1  UNL     1      22.608  26.093   9.022  1.00  0.00    -0.274 OA
ATOM     22  H1  UNL     1      25.262  27.218   9.200  1.00  0.00     0.169 HD
ENDBRANCH   1  18
TORSDOF 4
ENDMDL
MODEL 3
REMARK VINA RESULT: -6.341097368      2.158      2.666
REMARK  4 active torsions:
REMARK  status: ('A' for Active; 'I' for Inactive)
REMARK       I    between atoms: C2_2  and  N1_4 
REMARK    1  A    between atoms: N1_4  and  C3_6 
REMARK    2  A    between atoms: C4_10  and  N3_11 
REMARK       I    between atoms: N3_11  and  C5_13 
REMARK    3  A    between atoms: C5_13  and  C6_15 
REMARK    4  A    between atoms: C6_15  and  N4_16 
ROOT
HETATM    1  C3  UNL     1      25.769  24.823   7.790  1.00  0.00     0.099 A 
HETATM    2  S1  UNL     1      25.882  23.119   8.159  1.00  0.00     0.006 SA
HETATM    3  N2  UNL     1      27.430  22.625   8.519  1.00  0.00    -0.311 N 
ATOM      4  H2  UNL     1      27.633  21.653   8.753  1.00  0.00     0.176 HD
HETATM    5  C4  UNL     1      28.400  23.550   8.490  1.00  0.00     0.114 A 
HETATM    6  C10 UNL     1      28.186  24.868   8.184  1.00  0.00     0.058 A 
HETATM    7  C11 UNL     1      26.988  25.462   7.862  1.00  0.00    -0.023 A 
HETATM    8  C12 UNL     1      27.022  26.944   7.563  1.00  0.00     0.051 C 
ENDROOT
BRANCH   5   9
HETATM    9  N3  UNL     1      29.619  23.145   8.777  1.00  0.00    -0.311 N 
HETATM   10  C5  UNL     1      30.487  22.632   7.777  1.00  0.00     0.249 C 
HETATM   11  O2  UNL     1      31.114  23.426   7.029  1.00  0.00    -0.271 OA
ATOM     12  H3  UNL     1      29.948  23.200   9.740  1.00  0.00     0.170 HD
BRANCH  10  13
HETATM   13  C6  UNL     1      30.647  21.158   7.620  1.00  0.00     0.338 C 
BRANCH  13  14
HETATM   14  N4  UNL     1      31.910  20.694   8.103  1.00  0.00    -0.070 N 
HETATM   15  C7  UNL     1      31.763  19.259   8.363  1.00  0.00     0.272 C 
HETATM   16  C8  UNL     1      32.970  20.817   7.121  1.00  0.00     0.272 C 
HETATM   17  C9  UNL     1      32.257  21.331   9.334  1.00  0.00     0.272 C 
ENDBRANCH  13  14
ENDBRANCH  10  13
ENDBRANCH   5   9
BRANCH   1  18
HETATM   18  N1  UNL     1      24.661  25.341   7.495  1.00  0.00    -0.320 N 
HETATM   19  C2  UNL     1      23.520  25.820   8.022  1.00  0.00     0.218 C 
HETATM   20  C1  UNL     1      22.237  25.035   7.877  1.00  0.00     0.117 C 
HETATM   21  O1  UNL     1      23.390  26.899   8.649  1.00  0.00    -0.274 OA
ATOM     22  H1  UNL     1      24.609  25.433   6.480  1.00  0.00     0.169 HD
ENDBRANCH   1  18
TORSDOF 4
ENDMDL
MODEL 4
REMARK VINA RESULT: -6.314338022      2.333      2.858
REMARK  4 active torsions:
REMARK  status: ('A' for Active; 'I' for Inactive)
REMARK       I    between atoms: C2_2  and  N1_4 
REMARK    1  A    between atoms: N1_4  and  C3_6 
REMARK    2  A    between atoms: C4_10  and  N3_11 
REMARK       I    between atoms: N3_11  and  C5_13 
REMARK    3  A    between atoms: C5_13  and  C6_15 
REMARK    4  A    between atoms: C6_15  and  N4_16 
ROOT
HETATM    1  C3  UNL     1      25.717  25.424   8.702  1.00  0.00     0.099 A 
HETATM    2  S1  UNL     1      25.295  23.857   8.054  1.00  0.00     0.006 SA
HETATM    3  N2  UNL     1      26.536  22.753   8.143  1.00  0.00    -0.311 N 
ATOM      4  H2  UNL     1      26.421  21.800   7.799  1.00  0.00     0.176 HD
HETATM    5  C4  UNL     1      27.694  23.160   8.683  1.00  0.00     0.114 A 
HETATM    6  C10 UNL     1      27.906  24.426   9.162  1.00  0.00     0.058 A 
HETATM    7  C11 UNL     1      27.010  25.469   9.176  1.00  0.00    -0.023 A 
HETATM    8  C12 UNL     1      27.496  26.776   9.764  1.00  0.00     0.051 C 
ENDROOT
BRANCH   5   9
HETATM    9  N3  UNL     1      28.666  22.276   8.747  1.00  0.00    -0.311 N 
HETATM   10  C5  UNL     1      30.001  22.658   9.042  1.00  0.00     0.249 C 
HETATM   11  O2  UNL     1      30.342  22.860  10.236  1.00  0.00    -0.271 OA
ATOM     12  H3  UNL     1      28.455  21.292   8.580  1.00  0.00     0.170 HD
BRANCH  10  13
HETATM   13  C6  UNL     1      30.987  22.817   7.935  1.00  0.00     0.338 C 
BRANCH  13  14
HETATM   14  N4  UNL     1      31.889  21.710   7.846  1.00  0.00    -0.070 N 
HETATM   15  C7  UNL     1      32.468  21.742   6.500  1.00  0.00     0.272 C 
HETATM   16  C8  UNL     1      33.006  21.817   8.766  1.00  0.00     0.272 C 
HETATM   17  C9  UNL     1      31.198  20.469   8.000  1.00  0.00     0.272 C 
ENDBRANCH  13  14
ENDBRANCH  10  13
ENDBRANCH   5   9
BRANCH   1  18
HETATM   18  N1  UNL     1      24.880  26.364   8.700  1.00  0.00    -0.320 N 
HETATM   19  C2  UNL     1      23.603  26.670   8.410  1.00  0.00     0.218 C 
HETATM   20  C1  UNL     1      23.289  27.512   7.196  1.00  0.00     0.117 C 
HETATM   21  O1  UNL     1      22.592  26.323   9.066  1.00  0.00    -0.274 OA
ATOM     22  H1  UNL     1      25.341  27.205   9.047  1.00  0.00     0.169 HD
ENDBRANCH   1  18
TORSDOF 4
ENDMDL
MODEL 5
REMARK VINA RESULT: -6.271548276      2.535      3.216
REMARK  4 active torsions:
REMARK  status: ('A' for Active; 'I' for Inactive)
REMARK       I    between atoms: C2_2  and  N1_4 
REMARK    1  A    between atoms: N1_4  and  C3_6 
REMARK    2  A    between atoms: C4_10  and  N3_11 
REMARK       I    between atoms: N3_11  and  C5_13 
REMARK    3  A    between atoms: C5_13  and  C6_15 
REMARK    4  A    between atoms: C6_15  and  N4_16 
ROOT
HETATM    1  C3  UNL     1      27.419  25.716   9.726  1.00  0.00     0.099 A 
HETATM    2  S1  UNL     1      27.698  25.098  11.336  1.00  0.00     0.006 SA
HETATM    3  N2  UNL     1      29.254  24.560  11.574  1.00  0.00    -0.311 N 
ATOM      4  H2  UNL     1      29.549  24.175  12.471  1.00  0.00     0.176 HD
HETATM    5  C4  UNL     1      30.107  24.650  10.543  1.00  0.00     0.114 A 
HETATM    6  C10 UNL     1      29.768  25.159   9.317  1.00  0.00     0.058 A 
HETATM    7  C11 UNL     1      28.543  25.649   8.932  1.00  0.00    -0.023 A 
HETATM    8  C12 UNL     1      28.428  26.155   7.511  1.00  0.00     0.051 C 
ENDROOT
BRANCH   5   9
HETATM    9  N3  UNL     1      31.335  24.220  10.746  1.00  0.00    -0.311 N 
HETATM   10  C5  UNL     1      32.149  24.754  11.779  1.00  0.00     0.249 C 
HETATM   11  O2  UNL     1      31.999  24.351  12.961  1.00  0.00    -0.271 OA
ATOM     12  H3  UNL     1      31.709  23.485  10.146  1.00  0.00     0.170 HD
BRANCH  10  13
HETATM   13  C6  UNL     1      33.174  25.787  11.455  1.00  0.00     0.338 C 
BRANCH  13  14
HETATM   14  N4  UNL     1      34.500  25.253  11.444  1.00  0.00    -0.070 N 
HETATM   15  C7  UNL     1      35.327  26.185  10.672  1.00  0.00     0.272 C 
HETATM   16  C8  UNL     1      35.094  25.191  12.766  1.00  0.00     0.272 C 
HETATM   17  C9  UNL     1      34.539  23.983  10.790  1.00  0.00     0.272 C 
ENDBRANCH  13  14
ENDBRANCH  10  13
ENDBRANCH   5   9
BRANCH   1  18
HETATM   18  N1  UNL     1      26.287  26.156   9.397  1.00  0.00    -0.320 N 
HETATM   19  C2  UNL     1      25.165  25.849   8.722  1.00  0.00     0.218 C 
HETATM   20  C1  UNL     1      24.877  26.519   7.398  1.00  0.00     0.117 C 
HETATM   21  O1  UNL     1      24.284  25.032   9.082  1.00  0.00    -0.274 OA
ATOM     22  H1  UNL     1      26.180  27.093   9.787  1.00  0.00     0.169 HD
ENDBRANCH   1  18
TORSDOF 4
ENDMDL
