MODEL 1
REMARK VINA RESULT: -7.319870567      0.000      0.000
REMARK  2 active torsions:
REMARK  status: ('A' for Active; 'I' for Inactive)
REMARK    1  A    between atoms: C2_2  and  N1_3 
REMARK       I    between atoms: N1_3  and  C3_5 
REMARK    2  A    between atoms: C3_5  and  C4_7 
REMARK       I    between atoms: N2_12  and  C9_13 
REMARK       I    between atoms: N3_19  and  C14_20 
ROOT
HETATM    1  C4  UNL     1      30.545  24.167   7.625  1.00  0.00     0.183 C 
HETATM    2  C5  UNL     1      31.344  22.978   7.224  1.00  0.00     0.027 C 
HETATM    3  C6  UNL     1      31.722  22.897   5.786  1.00  0.00     0.032 C 
HETATM    4  C7  UNL     1      32.248  21.519   5.505  1.00  0.00     0.083 C 
HETATM    5  C8  UNL     1      31.468  20.805   4.431  1.00  0.00     0.032 C 
HETATM    6  N2  UNL     1      32.368  20.654   6.629  1.00  0.00    -0.348 N 
HETATM    7  C9  UNL     1      33.459  19.755   6.754  1.00  0.00     0.216 C 
HETATM    8  C10 UNL     1      33.649  18.835   7.884  1.00  0.00     0.117 C 
HETATM    9  O2  UNL     1      34.320  19.747   5.840  1.00  0.00    -0.274 OA
HETATM   10  C11 UNL     1      31.387  20.623   7.732  1.00  0.00     0.133 C 
HETATM   11  C12 UNL     1      30.450  21.751   7.464  1.00  0.00     0.028 C 
HETATM   12  C13 UNL     1      29.644  22.214   8.630  1.00  0.00     0.133 C 
HETATM   13  N3  UNL     1      29.345  23.599   8.211  1.00  0.00    -0.338 N 
HETATM   14  C14 UNL     1      28.100  24.260   8.352  1.00  0.00     0.216 C 
HETATM   15  C15 UNL     1      26.927  23.608   8.962  1.00  0.00     0.117 C 
HETATM   16  O3  UNL     1      27.998  25.438   7.945  1.00  0.00    -0.274 OA
ENDROOT
BRANCH   1  17
HETATM   17  C3  UNL     1      31.255  24.890   8.709  1.00  0.00     0.241 C 
HETATM   18  N1  UNL     1      32.312  24.318   9.469  1.00  0.00    -0.360 N 
ATOM     19  H1  UNL     1      32.602  23.362   9.263  1.00  0.00     0.162 HD
HETATM   20  O1  UNL     1      30.922  26.080   8.994  1.00  0.00    -0.271 OA
BRANCH  18  21
HETATM   21  C2  UNL     1      32.990  25.035  10.518  1.00  0.00     0.118 C 
HETATM   22  C1  UNL     1      32.475  24.643  11.891  1.00  0.00     0.026 C 
ENDBRANCH  18  21
ENDBRANCH   1  17
TORSDOF 2
ENDMDL
MODEL 2
REMARK VINA RESULT: -7.019481532      1.121      1.226
REMARK  2 active torsions:
REMARK  status: ('A' for Active; 'I' for Inactive)
REMARK    1  A    between atoms: C2_2  and  N1_3 
REMARK       I    between atoms: N1_3  and  C3_5 
REMARK    2  A    between atoms: C3_5  and  C4_7 
REMARK       I    between atoms: N2_12  and  C9_13 
REMARK       I    between atoms: N3_19  and  C14_20 
ROOT
HETATM    1  C4  UNL     1      30.798  24.379   7.675  1.00  0.00     0.183 C 
HETATM    2  C5  UNL     1      31.367  23.068   7.257  1.00  0.00     0.027 C 
HETATM    3  C6  UNL     1      31.795  22.963   5.836  1.00  0.00     0.032 C 
HETATM    4  C7  UNL     1      32.054  21.518   5.518  1.00  0.00     0.083 C 
HETATM    5  C8  UNL     1      31.205  21.011   4.380  1.00  0.00     0.032 C 
HETATM    6  N2  UNL     1      31.943  20.610   6.607  1.00  0.00    -0.348 N 
HETATM    7  C9  UNL     1      32.828  19.508   6.741  1.00  0.00     0.216 C 
HETATM    8  C10 UNL     1      32.774  18.531   7.836  1.00  0.00     0.117 C 
HETATM    9  O2  UNL     1      33.716  19.360   5.866  1.00  0.00    -0.274 OA
HETATM   10  C11 UNL     1      30.919  20.736   7.664  1.00  0.00     0.133 C 
HETATM   11  C12 UNL     1      30.237  22.036   7.404  1.00  0.00     0.028 C 
HETATM   12  C13 UNL     1      29.480  22.610   8.553  1.00  0.00     0.133 C 
HETATM   13  N3  UNL     1      29.481  24.040   8.181  1.00  0.00    -0.338 N 
HETATM   14  C14 UNL     1      28.385  24.930   8.297  1.00  0.00     0.216 C 
HETATM   15  C15 UNL     1      27.076  24.503   8.825  1.00  0.00     0.117 C 
HETATM   16  O3  UNL     1      28.538  26.119   7.937  1.00  0.00    -0.274 OA
ENDROOT
BRANCH   1  17
HETATM   17  C3  UNL     1      31.579  24.908   8.820  1.00  0.00     0.241 C 
HETATM   18  N1  UNL     1      31.760  26.296   9.068  1.00  0.00    -0.360 N 
ATOM     19  H1  UNL     1      31.334  26.968   8.430  1.00  0.00     0.162 HD
HETATM   20  O1  UNL     1      32.124  24.102   9.634  1.00  0.00    -0.271 OA
BRANCH  18  21
HETATM   21  C2  UNL     1      32.523  26.791  10.186  1.00  0.00     0.118 C 
HETATM   22  C1  UNL     1      33.955  27.106   9.794  1.00  0.00     0.026 C 
ENDBRANCH  18  21
ENDBRANCH   1  17
TORSDOF 2
ENDMDL
MODEL 3
REMARK VINA RESULT: -6.988625585      2.356      5.912
REMARK  2 active torsions:
REMARK  status: ('A' for Active; 'I' for Inactive)
REMARK    1  A    between atoms: C2_2  and  N1_3 
REMARK       I    between atoms: N1_3  and  C3_5 
REMARK    2  A    between atoms: C3_5  and  C4_7 
REMARK       I    between atoms: N2_12  and  C9_13 
REMARK       I    between atoms: N3_19  and  C14_20 
ROOT
HETATM    1  C4  UNL     1      30.570  24.633   8.421  1.00  0.00     0.183 C 
HETATM    2  C5  UNL     1      29.121  24.530   8.096  1.00  0.00     0.027 C 
HETATM    3  C6  UNL     1      28.462  25.784   7.638  1.00  0.00     0.032 C 
HETATM    4  C7  UNL     1      26.975  25.575   7.646  1.00  0.00     0.083 C 
HETATM    5  C8  UNL     1      26.253  26.561   8.530  1.00  0.00     0.032 C 
HETATM    6  N2  UNL     1      26.530  24.263   7.972  1.00  0.00    -0.348 N 
HETATM    7  C9  UNL     1      25.412  23.681   7.319  1.00  0.00     0.216 C 
HETATM    8  C10 UNL     1      24.897  22.335   7.602  1.00  0.00     0.117 C 
HETATM    9  O2  UNL     1      24.827  24.361   6.441  1.00  0.00    -0.274 OA
HETATM   10  C11 UNL     1      27.181  23.421   8.995  1.00  0.00     0.133 C 
HETATM   11  C12 UNL     1      28.404  24.166   9.406  1.00  0.00     0.028 C 
HETATM   12  C13 UNL     1      29.456  23.358  10.086  1.00  0.00     0.133 C 
HETATM   13  N3  UNL     1      30.650  24.181   9.798  1.00  0.00    -0.338 N 
HETATM   14  C14 UNL     1      31.692  24.481  10.708  1.00  0.00     0.216 C 
HETATM   15  C15 UNL     1      31.697  23.979  12.095  1.00  0.00     0.117 C 
HETATM   16  O3  UNL     1      32.641  25.197  10.318  1.00  0.00    -0.274 OA
ENDROOT
BRANCH   1  17
HETATM   17  C3  UNL     1      31.325  23.655   7.601  1.00  0.00     0.241 C 
HETATM   18  N1  UNL     1      31.397  23.714   6.182  1.00  0.00    -0.360 N 
ATOM     19  H1  UNL     1      30.906  24.465   5.697  1.00  0.00     0.162 HD
HETATM   20  O1  UNL     1      31.949  22.707   8.169  1.00  0.00    -0.271 OA
BRANCH  18  21
HETATM   21  C2  UNL     1      32.137  22.755   5.401  1.00  0.00     0.118 C 
HETATM   22  C1  UNL     1      31.252  21.618   4.923  1.00  0.00     0.026 C 
ENDBRANCH  18  21
ENDBRANCH   1  17
TORSDOF 2
ENDMDL
MODEL 4
REMARK VINA RESULT: -6.889490778      2.754      4.492
REMARK  2 active torsions:
REMARK  status: ('A' for Active; 'I' for Inactive)
REMARK    1  A    between atoms: C2_2  and  N1_3 
REMARK       I    between atoms: N1_3  and  C3_5 
REMARK    2  A    between atoms: C3_5  and  C4_7 
REMARK       I    between atoms: N2_12  and  C9_13 
REMARK       I    between atoms: N3_19  and  C14_20 
ROOT
HETATM    1  C4  UNL     1      32.677  22.004   7.929  1.00  0.00     0.183 C 
HETATM    2  C5  UNL     1      33.043  20.892   8.847  1.00  0.00     0.027 C 
HETATM    3  C6  UNL     1      34.488  20.764   9.178  1.00  0.00     0.032 C 
HETATM    4  C7  UNL     1      34.711  19.440   9.852  1.00  0.00     0.083 C 
HETATM    5  C8  UNL     1      35.706  18.574   9.122  1.00  0.00     0.032 C 
HETATM    6  N2  UNL     1      33.544  18.668  10.114  1.00  0.00    -0.348 N 
HETATM    7  C9  UNL     1      33.415  17.911  11.307  1.00  0.00     0.216 C 
HETATM    8  C10 UNL     1      32.244  17.092  11.645  1.00  0.00     0.117 C 
HETATM    9  O2  UNL     1      34.364  17.943  12.128  1.00  0.00    -0.274 OA
HETATM   10  C11 UNL     1      32.399  18.595   9.185  1.00  0.00     0.133 C 
HETATM   11  C12 UNL     1      32.692  19.587   8.113  1.00  0.00     0.028 C 
HETATM   12  C13 UNL     1      31.520  20.028   7.302  1.00  0.00     0.133 C 
HETATM   13  N3  UNL     1      32.007  21.340   6.827  1.00  0.00    -0.338 N 
HETATM   14  C14 UNL     1      31.849  21.861   5.519  1.00  0.00     0.216 C 
HETATM   15  C15 UNL     1      31.151  21.118   4.453  1.00  0.00     0.117 C 
HETATM   16  O3  UNL     1      32.320  22.992   5.264  1.00  0.00    -0.274 OA
ENDROOT
BRANCH   1  17
HETATM   17  C3  UNL     1      31.670  22.871   8.589  1.00  0.00     0.241 C 
HETATM   18  N1  UNL     1      31.359  24.186   8.147  1.00  0.00    -0.360 N 
ATOM     19  H1  UNL     1      31.852  24.560   7.336  1.00  0.00     0.162 HD
HETATM   20  O1  UNL     1      31.037  22.440   9.601  1.00  0.00    -0.271 OA
BRANCH  18  21
HETATM   21  C2  UNL     1      30.377  25.013   8.801  1.00  0.00     0.118 C 
HETATM   22  C1  UNL     1      29.152  25.226   7.931  1.00  0.00     0.026 C 
ENDBRANCH  18  21
ENDBRANCH   1  17
TORSDOF 2
ENDMDL
MODEL 5
REMARK VINA RESULT: -6.774321984      2.177      4.410
REMARK  2 active torsions:
REMARK  status: ('A' for Active; 'I' for Inactive)
REMARK    1  A    between atoms: C2_2  and  N1_3 
REMARK       I    between atoms: N1_3  and  C3_5 
REMARK    2  A    between atoms: C3_5  and  C4_7 
REMARK       I    between atoms: N2_12  and  C9_13 
REMARK       I    between atoms: N3_19  and  C14_20 
ROOT
HETATM    1  C4  UNL     1      28.445  23.799   9.574  1.00  0.00     0.183 C 
HETATM    2  C5  UNL     1      29.466  23.031   8.811  1.00  0.00     0.027 C 
HETATM    3  C6  UNL     1      30.419  22.224   9.621  1.00  0.00     0.032 C 
HETATM    4  C7  UNL     1      31.540  21.770   8.730  1.00  0.00     0.083 C 
HETATM    5  C8  UNL     1      32.892  22.232   9.214  1.00  0.00     0.032 C 
HETATM    6  N2  UNL     1      31.415  22.098   7.351  1.00  0.00    -0.348 N 
HETATM    7  C9  UNL     1      31.831  21.196   6.338  1.00  0.00     0.216 C 
HETATM    8  C10 UNL     1      31.733  21.465   4.898  1.00  0.00     0.117 C 
HETATM    9  O2  UNL     1      32.314  20.094   6.697  1.00  0.00    -0.274 OA
HETATM   10  C11 UNL     1      30.855  23.378   6.874  1.00  0.00     0.133 C 
HETATM   11  C12 UNL     1      30.343  24.069   8.092  1.00  0.00     0.028 C 
HETATM   12  C13 UNL     1      29.352  25.156   7.850  1.00  0.00     0.133 C 
HETATM   13  N3  UNL     1      28.655  25.172   9.153  1.00  0.00    -0.338 N 
HETATM   14  C14 UNL     1      28.261  26.327   9.871  1.00  0.00     0.216 C 
HETATM   15  C15 UNL     1      28.512  27.691   9.369  1.00  0.00     0.117 C 
HETATM   16  O3  UNL     1      27.678  26.181  10.968  1.00  0.00    -0.274 OA
ENDROOT
BRANCH   1  17
HETATM   17  C3  UNL     1      27.091  23.406   9.111  1.00  0.00     0.241 C 
HETATM   18  N1  UNL     1      26.860  22.618   7.950  1.00  0.00    -0.360 N 
ATOM     19  H1  UNL     1      27.661  22.304   7.404  1.00  0.00     0.162 HD
HETATM   20  O1  UNL     1      26.071  23.779   9.766  1.00  0.00    -0.271 OA
BRANCH  18  21
HETATM   21  C2  UNL     1      25.537  22.247   7.516  1.00  0.00     0.118 C 
HETATM   22  C1  UNL     1      24.931  23.296   6.601  1.00  0.00     0.026 C 
ENDBRANCH  18  21
ENDBRANCH   1  17
TORSDOF 2
ENDMDL
