MODEL 1
REMARK VINA RESULT: -9.451238412      0.000      0.000
REMARK  6 active torsions:
REMARK  status: ('A' for Active; 'I' for Inactive)
REMARK    1  A    between atoms: C3_5  and  N2_6 
REMARK    2  A    between atoms: C4_10  and  C5_11 
REMARK    3  A    between atoms: C5_11  and  O1_12 
REMARK    4  A    between atoms: N4_18  and  C9_19 
REMARK    5  A    between atoms: C10_22  and  N6_23 
REMARK    6  A    between atoms: C15_31  and  N8_32 
ROOT
HETATM    1  C5  UNL     1      16.558  39.248  26.606  1.00  0.00     0.157 C 
HETATM    2  N3  UNL     1      15.776  40.252  27.093  1.00  0.00    -0.359 N 
HETATM    3  C6  UNL     1      15.784  40.939  28.334  1.00  0.00     0.126 C 
HETATM    4  C7  UNL     1      14.787  40.432  29.316  1.00  0.00     0.040 C 
HETATM    5  C8  UNL     1      13.752  39.506  28.790  1.00  0.00     0.143 C 
HETATM    6  N4  UNL     1      13.020  40.049  27.684  1.00  0.00    -0.215 N 
HETATM    7  C16 UNL     1      13.456  41.079  26.777  1.00  0.00     0.161 C 
HETATM    8  C17 UNL     1      14.726  40.678  26.060  1.00  0.00     0.145 C 
ENDROOT
BRANCH   6   9
HETATM    9  C9  UNL     1      11.733  39.528  27.472  1.00  0.00     0.709 A 
HETATM   10  N5  UNL     1      10.977  39.714  26.381  1.00  0.00    -0.021 N 
HETATM   11  C10 UNL     1       9.731  39.201  26.251  1.00  0.00     0.709 A 
ATOM     12  H5  UNL     1      11.358  40.268  25.614  1.00  0.00     0.203 HD
HETATM   13  N7  UNL     1       9.262  38.482  27.271  1.00  0.00    -0.022 N 
HETATM   14  C15 UNL     1       9.973  38.252  28.409  1.00  0.00     0.705 A 
ATOM     15  H7  UNL     1       8.325  38.086  27.195  1.00  0.00     0.203 HD
HETATM   16  N9  UNL     1      11.206  38.780  28.494  1.00  0.00    -0.022 N 
ATOM     17  H9  UNL     1      11.760  38.622  29.335  1.00  0.00     0.203 HD
BRANCH  11  18
HETATM   18  N6  UNL     1       8.977  39.403  25.081  1.00  0.00    -0.213 N 
HETATM   19  C11 UNL     1       7.904  38.473  24.810  1.00  0.00     0.167 C 
HETATM   20  C12 UNL     1       7.563  38.295  23.376  1.00  0.00     0.188 C 
HETATM   21  O2  UNL     1       7.853  39.394  22.581  1.00  0.00    -0.388 OA
HETATM   22  C13 UNL     1       9.153  39.839  22.746  1.00  0.00     0.188 C 
HETATM   23  C14 UNL     1       9.212  40.467  24.149  1.00  0.00     0.167 C 
ENDBRANCH  11  18
BRANCH  14  24
HETATM   24  N8  UNL     1       9.453  37.540  29.369  1.00  0.00    -0.234 N 
ATOM     25  H82 UNL     1       8.452  37.536  29.561  1.00  0.00     0.174 HD
ATOM     26  H81 UNL     1      10.053  36.962  29.956  1.00  0.00     0.174 HD
ENDBRANCH  14  24
ENDBRANCH   6   9
BRANCH   1  27
HETATM   27  C4  UNL     1      17.655  38.366  26.932  1.00  0.00     0.081 A 
HETATM   28  C2  UNL     1      18.138  37.689  28.001  1.00  0.00     0.029 A 
HETATM   29  C1  UNL     1      17.389  37.655  29.333  1.00  0.00     0.070 C 
HETATM   30  N1  UNL     1      19.253  37.011  27.884  1.00  0.00    -0.339 N 
HETATM   31  C3  UNL     1      19.894  36.990  26.733  1.00  0.00     0.143 A 
ATOM     32  H1  UNL     1      19.624  36.500  28.685  1.00  0.00     0.168 HD
HETATM   33  S1  UNL     1      18.925  37.949  25.745  1.00  0.00    -0.048 SA
BRANCH  31  34
HETATM   34  N2  UNL     1      21.017  36.378  26.414  1.00  0.00    -0.380 N 
ATOM     35  H22 UNL     1      21.905  36.800  26.145  1.00  0.00     0.158 HD
ATOM     36  H21 UNL     1      21.219  35.379  26.375  1.00  0.00     0.158 HD
ENDBRANCH  31  34
ENDBRANCH   1  27
BRANCH   1  37
HETATM   37  O1  UNL     1      16.178  38.947  25.320  1.00  0.00    -0.345 OA
ATOM     38  H1  UNL     1      16.448  39.679  24.777  1.00  0.00     0.219 HD
ENDBRANCH   1  37
TORSDOF 6
ENDMDL
MODEL 2
REMARK VINA RESULT: -9.147676504      0.940      1.078
REMARK  6 active torsions:
REMARK  status: ('A' for Active; 'I' for Inactive)
REMARK    1  A    between atoms: C3_5  and  N2_6 
REMARK    2  A    between atoms: C4_10  and  C5_11 
REMARK    3  A    between atoms: C5_11  and  O1_12 
REMARK    4  A    between atoms: N4_18  and  C9_19 
REMARK    5  A    between atoms: C10_22  and  N6_23 
REMARK    6  A    between atoms: C15_31  and  N8_32 
ROOT
HETATM    1  C5  UNL     1      16.473  39.525  26.658  1.00  0.00     0.157 C 
HETATM    2  N3  UNL     1      15.650  40.516  27.101  1.00  0.00    -0.359 N 
HETATM    3  C6  UNL     1      15.460  41.081  28.388  1.00  0.00     0.126 C 
HETATM    4  C7  UNL     1      14.289  40.533  29.126  1.00  0.00     0.040 C 
HETATM    5  C8  UNL     1      13.334  39.713  28.336  1.00  0.00     0.143 C 
HETATM    6  N4  UNL     1      12.828  40.394  27.182  1.00  0.00    -0.215 N 
HETATM    7  C16 UNL     1      13.451  41.484  26.474  1.00  0.00     0.161 C 
HETATM    8  C17 UNL     1      14.814  41.090  25.951  1.00  0.00     0.145 C 
ENDROOT
BRANCH   6   9
HETATM    9  C9  UNL     1      11.583  39.960  26.697  1.00  0.00     0.709 A 
HETATM   10  N5  UNL     1      11.020  40.320  25.535  1.00  0.00    -0.021 N 
HETATM   11  C10 UNL     1       9.802  39.881  25.139  1.00  0.00     0.709 A 
ATOM     12  H5  UNL     1      11.533  40.953  24.922  1.00  0.00     0.203 HD
HETATM   13  N7  UNL     1       9.158  39.055  25.963  1.00  0.00    -0.022 N 
HETATM   14  C15 UNL     1       9.668  38.647  27.157  1.00  0.00     0.705 A 
ATOM     15  H7  UNL     1       8.238  38.711  25.685  1.00  0.00     0.203 HD
HETATM   16  N9  UNL     1      10.880  39.107  27.510  1.00  0.00    -0.022 N 
ATOM     17  H9  UNL     1      11.286  38.817  28.400  1.00  0.00     0.203 HD
BRANCH  11  18
HETATM   18  N6  UNL     1       9.255  40.266  23.902  1.00  0.00    -0.213 N 
HETATM   19  C11 UNL     1       8.359  39.337  23.250  1.00  0.00     0.167 C 
HETATM   20  C12 UNL     1       8.305  39.437  21.770  1.00  0.00     0.188 C 
HETATM   21  O2  UNL     1       8.610  40.696  21.273  1.00  0.00    -0.388 OA
HETATM   22  C13 UNL     1       9.800  41.191  21.776  1.00  0.00     0.188 C 
HETATM   23  C14 UNL     1       9.534  41.516  23.255  1.00  0.00     0.167 C 
ENDBRANCH  11  18
BRANCH  14  24
HETATM   24  N8  UNL     1       8.983  37.838  27.916  1.00  0.00    -0.234 N 
ATOM     25  H82 UNL     1       8.670  38.102  28.850  1.00  0.00     0.174 HD
ATOM     26  H81 UNL     1       8.743  36.906  27.580  1.00  0.00     0.174 HD
ENDBRANCH  14  24
ENDBRANCH   6   9
BRANCH   1  27
HETATM   27  C4  UNL     1      17.467  38.563  27.077  1.00  0.00     0.081 A 
HETATM   28  C2  UNL     1      17.791  37.844  28.178  1.00  0.00     0.029 A 
HETATM   29  C1  UNL     1      16.913  37.856  29.430  1.00  0.00     0.070 C 
HETATM   30  N1  UNL     1      18.860  37.088  28.162  1.00  0.00    -0.339 N 
HETATM   31  C3  UNL     1      19.609  37.028  27.080  1.00  0.00     0.143 A 
ATOM     32  H1  UNL     1      19.112  36.545  28.988  1.00  0.00     0.168 HD
HETATM   33  S1  UNL     1      18.814  38.063  26.015  1.00  0.00    -0.048 SA
BRANCH  31  34
HETATM   34  N2  UNL     1      20.711  36.338  26.864  1.00  0.00    -0.380 N 
ATOM     35  H22 UNL     1      21.669  36.605  27.087  1.00  0.00     0.158 HD
ATOM     36  H21 UNL     1      20.824  35.417  26.441  1.00  0.00     0.158 HD
ENDBRANCH  31  34
ENDBRANCH   1  27
BRANCH   1  37
HETATM   37  O1  UNL     1      16.318  39.367  25.301  1.00  0.00    -0.345 OA
ATOM     38  H1  UNL     1      16.276  40.240  24.927  1.00  0.00     0.219 HD
ENDBRANCH   1  37
TORSDOF 6
ENDMDL
MODEL 3
REMARK VINA RESULT: -9.000485925      2.874      8.457
REMARK  6 active torsions:
REMARK  status: ('A' for Active; 'I' for Inactive)
REMARK    1  A    between atoms: C3_5  and  N2_6 
REMARK    2  A    between atoms: C4_10  and  C5_11 
REMARK    3  A    between atoms: C5_11  and  O1_12 
REMARK    4  A    between atoms: N4_18  and  C9_19 
REMARK    5  A    between atoms: C10_22  and  N6_23 
REMARK    6  A    between atoms: C15_31  and  N8_32 
ROOT
HETATM    1  C5  UNL     1      11.648  40.545  26.706  1.00  0.00     0.157 C 
HETATM    2  N3  UNL     1      12.734  41.347  26.889  1.00  0.00    -0.359 N 
HETATM    3  C6  UNL     1      13.297  42.372  26.087  1.00  0.00     0.126 C 
HETATM    4  C7  UNL     1      14.453  41.930  25.260  1.00  0.00     0.040 C 
HETATM    5  C8  UNL     1      15.033  40.602  25.588  1.00  0.00     0.143 C 
HETATM    6  N4  UNL     1      15.423  40.482  26.961  1.00  0.00    -0.215 N 
HETATM    7  C16 UNL     1      14.911  41.234  28.079  1.00  0.00     0.161 C 
HETATM    8  C17 UNL     1      13.418  41.046  28.229  1.00  0.00     0.145 C 
ENDROOT
BRANCH   6   9
HETATM    9  C9  UNL     1      16.423  39.537  27.245  1.00  0.00     0.709 A 
HETATM   10  N5  UNL     1      17.340  39.077  26.383  1.00  0.00    -0.021 N 
HETATM   11  C10 UNL     1      18.264  38.145  26.717  1.00  0.00     0.709 A 
ATOM     12  H5  UNL     1      17.341  39.444  25.431  1.00  0.00     0.203 HD
HETATM   13  N7  UNL     1      18.236  37.685  27.967  1.00  0.00    -0.022 N 
HETATM   14  C15 UNL     1      17.335  38.108  28.896  1.00  0.00     0.705 A 
ATOM     15  H7  UNL     1      18.924  36.983  28.241  1.00  0.00     0.203 HD
HETATM   16  N9  UNL     1      16.436  39.033  28.521  1.00  0.00    -0.022 N 
ATOM     17  H9  UNL     1      15.750  39.367  29.198  1.00  0.00     0.203 HD
BRANCH  11  18
HETATM   18  N6  UNL     1      19.222  37.703  25.787  1.00  0.00    -0.213 N 
HETATM   19  C11 UNL     1      19.224  38.324  24.482  1.00  0.00     0.167 C 
HETATM   20  C12 UNL     1      19.744  37.481  23.377  1.00  0.00     0.188 C 
HETATM   21  O2  UNL     1      20.660  36.519  23.776  1.00  0.00    -0.388 OA
HETATM   22  C13 UNL     1      20.197  35.752  24.830  1.00  0.00     0.188 C 
HETATM   23  C14 UNL     1      20.188  36.677  26.058  1.00  0.00     0.167 C 
ENDBRANCH  11  18
BRANCH  14  24
HETATM   24  N8  UNL     1      17.363  37.614  30.102  1.00  0.00    -0.234 N 
ATOM     25  H82 UNL     1      17.110  36.646  30.300  1.00  0.00     0.174 HD
ATOM     26  H81 UNL     1      17.648  38.201  30.886  1.00  0.00     0.174 HD
ENDBRANCH  14  24
ENDBRANCH   6   9
BRANCH   1  27
HETATM   27  C4  UNL     1      10.582  40.222  25.785  1.00  0.00     0.081 A 
HETATM   28  C2  UNL     1       9.448  39.483  25.755  1.00  0.00     0.029 A 
HETATM   29  C1  UNL     1       8.925  38.768  27.001  1.00  0.00     0.070 C 
HETATM   30  N1  UNL     1       8.757  39.409  24.645  1.00  0.00    -0.339 N 
HETATM   31  C3  UNL     1       9.165  40.052  23.570  1.00  0.00     0.143 A 
ATOM     32  H1  UNL     1       7.902  38.852  24.614  1.00  0.00     0.168 HD
HETATM   33  S1  UNL     1      10.576  40.806  24.096  1.00  0.00    -0.048 SA
BRANCH  31  34
HETATM   34  N2  UNL     1       8.620  40.103  22.371  1.00  0.00    -0.380 N 
ATOM     35  H22 UNL     1       7.893  39.499  21.988  1.00  0.00     0.158 HD
ATOM     36  H21 UNL     1       8.810  40.745  21.602  1.00  0.00     0.158 HD
ENDBRANCH  31  34
ENDBRANCH   1  27
BRANCH   1  37
HETATM   37  O1  UNL     1      11.485  39.729  27.801  1.00  0.00    -0.345 OA
ATOM     38  H1  UNL     1      12.317  39.290  27.940  1.00  0.00     0.219 HD
ENDBRANCH   1  37
TORSDOF 6
ENDMDL
MODEL 4
REMARK VINA RESULT: -8.990105528      2.888      4.436
REMARK  6 active torsions:
REMARK  status: ('A' for Active; 'I' for Inactive)
REMARK    1  A    between atoms: C3_5  and  N2_6 
REMARK    2  A    between atoms: C4_10  and  C5_11 
REMARK    3  A    between atoms: C5_11  and  O1_12 
REMARK    4  A    between atoms: N4_18  and  C9_19 
REMARK    5  A    between atoms: C10_22  and  N6_23 
REMARK    6  A    between atoms: C15_31  and  N8_32 
ROOT
HETATM    1  C5  UNL     1      14.156  40.808  27.304  1.00  0.00     0.157 C 
HETATM    2  N3  UNL     1      12.861  41.061  27.642  1.00  0.00    -0.359 N 
HETATM    3  C6  UNL     1      11.997  40.457  28.591  1.00  0.00     0.126 C 
HETATM    4  C7  UNL     1      11.070  39.446  28.011  1.00  0.00     0.040 C 
HETATM    5  C8  UNL     1      10.968  39.415  26.529  1.00  0.00     0.143 C 
HETATM    6  N4  UNL     1      10.621  40.684  25.962  1.00  0.00    -0.215 N 
HETATM    7  C16 UNL     1      10.832  41.984  26.546  1.00  0.00     0.161 C 
HETATM    8  C17 UNL     1      12.299  42.229  26.822  1.00  0.00     0.145 C 
ENDROOT
BRANCH   6   9
HETATM    9  C9  UNL     1       9.994  40.654  24.705  1.00  0.00     0.709 A 
HETATM   10  N5  UNL     1      10.077  41.602  23.760  1.00  0.00    -0.021 N 
HETATM   11  C10 UNL     1       9.425  41.521  22.577  1.00  0.00     0.709 A 
ATOM     12  H5  UNL     1      10.657  42.420  23.942  1.00  0.00     0.203 HD
HETATM   13  N7  UNL     1       8.675  40.438  22.369  1.00  0.00    -0.022 N 
HETATM   14  C15 UNL     1       8.545  39.437  23.283  1.00  0.00     0.705 A 
ATOM     15  H7  UNL     1       8.175  40.356  21.484  1.00  0.00     0.203 HD
HETATM   16  N9  UNL     1       9.210  39.559  24.444  1.00  0.00    -0.022 N 
ATOM     17  H9  UNL     1       9.130  38.823  25.146  1.00  0.00     0.203 HD
BRANCH  11  18
HETATM   18  N6  UNL     1       9.554  42.527  21.602  1.00  0.00    -0.213 N 
HETATM   19  C11 UNL     1      10.651  43.458  21.745  1.00  0.00     0.167 C 
HETATM   20  C12 UNL     1      10.427  44.800  21.153  1.00  0.00     0.188 C 
HETATM   21  O2  UNL     1       9.536  44.813  20.090  1.00  0.00    -0.388 OA
HETATM   22  C13 UNL     1       8.342  44.183  20.393  1.00  0.00     0.188 C 
HETATM   23  C14 UNL     1       8.666  42.682  20.487  1.00  0.00     0.167 C 
ENDBRANCH  11  18
BRANCH  14  24
HETATM   24  N8  UNL     1       7.794  38.406  23.017  1.00  0.00    -0.234 N 
ATOM     25  H82 UNL     1       6.792  38.493  22.845  1.00  0.00     0.174 HD
ATOM     26  H81 UNL     1       8.205  37.474  22.974  1.00  0.00     0.174 HD
ENDBRANCH  14  24
ENDBRANCH   6   9
BRANCH   1  27
HETATM   27  C4  UNL     1      15.282  39.944  27.576  1.00  0.00     0.081 A 
HETATM   28  C2  UNL     1      16.178  39.190  26.896  1.00  0.00     0.029 A 
HETATM   29  C1  UNL     1      16.227  39.187  25.368  1.00  0.00     0.070 C 
HETATM   30  N1  UNL     1      17.052  38.474  27.559  1.00  0.00    -0.339 N 
HETATM   31  C3  UNL     1      17.057  38.493  28.877  1.00  0.00     0.143 A 
ATOM     32  H1  UNL     1      17.728  37.901  27.054  1.00  0.00     0.168 HD
HETATM   33  S1  UNL     1      15.797  39.549  29.242  1.00  0.00    -0.048 SA
BRANCH  31  34
HETATM   34  N2  UNL     1      17.843  37.852  29.717  1.00  0.00    -0.380 N 
ATOM     35  H22 UNL     1      17.825  36.861  29.958  1.00  0.00     0.158 HD
ATOM     36  H21 UNL     1      18.612  38.209  30.283  1.00  0.00     0.158 HD
ENDBRANCH  31  34
ENDBRANCH   1  27
BRANCH   1  37
HETATM   37  O1  UNL     1      14.569  41.704  26.346  1.00  0.00    -0.345 OA
ATOM     38  H1  UNL     1      14.845  42.488  26.806  1.00  0.00     0.219 HD
ENDBRANCH   1  37
TORSDOF 6
ENDMDL
MODEL 5
REMARK VINA RESULT: -8.949400434      2.618      3.949
REMARK  6 active torsions:
REMARK  status: ('A' for Active; 'I' for Inactive)
REMARK    1  A    between atoms: C3_5  and  N2_6 
REMARK    2  A    between atoms: C4_10  and  C5_11 
REMARK    3  A    between atoms: C5_11  and  O1_12 
REMARK    4  A    between atoms: N4_18  and  C9_19 
REMARK    5  A    between atoms: C10_22  and  N6_23 
REMARK    6  A    between atoms: C15_31  and  N8_32 
ROOT
HETATM    1  C5  UNL     1      14.497  40.887  27.238  1.00  0.00     0.157 C 
HETATM    2  N3  UNL     1      13.223  41.094  27.674  1.00  0.00    -0.359 N 
HETATM    3  C6  UNL     1      12.459  40.469  28.693  1.00  0.00     0.126 C 
HETATM    4  C7  UNL     1      11.531  39.417  28.196  1.00  0.00     0.040 C 
HETATM    5  C8  UNL     1      11.314  39.364  26.728  1.00  0.00     0.143 C 
HETATM    6  N4  UNL     1      10.875  40.612  26.178  1.00  0.00    -0.215 N 
HETATM    7  C16 UNL     1      11.080  41.926  26.732  1.00  0.00     0.161 C 
HETATM    8  C17 UNL     1      12.553  42.230  26.890  1.00  0.00     0.145 C 
ENDROOT
BRANCH   6   9
HETATM    9  C9  UNL     1      10.153  40.543  24.974  1.00  0.00     0.709 A 
HETATM   10  N5  UNL     1      10.240  41.407  23.953  1.00  0.00    -0.021 N 
HETATM   11  C10 UNL     1       9.495  41.295  22.828  1.00  0.00     0.709 A 
ATOM     12  H5  UNL     1      10.897  42.184  24.027  1.00  0.00     0.203 HD
HETATM   13  N7  UNL     1       8.647  40.270  22.762  1.00  0.00    -0.022 N 
HETATM   14  C15 UNL     1       8.506  39.354  23.760  1.00  0.00     0.705 A 
ATOM     15  H7  UNL     1       8.075  40.165  21.923  1.00  0.00     0.203 HD
HETATM   16  N9  UNL     1       9.266  39.504  24.858  1.00  0.00    -0.022 N 
ATOM     17  H9  UNL     1       9.180  38.832  25.621  1.00  0.00     0.203 HD
BRANCH  11  18
HETATM   18  N6  UNL     1       9.631  42.211  21.769  1.00  0.00    -0.213 N 
HETATM   19  C11 UNL     1      10.775  43.094  21.792  1.00  0.00     0.167 C 
HETATM   20  C12 UNL     1      10.591  44.394  21.100  1.00  0.00     0.188 C 
HETATM   21  O2  UNL     1       9.657  44.365  20.074  1.00  0.00    -0.388 OA
HETATM   22  C13 UNL     1       8.449  43.823  20.473  1.00  0.00     0.188 C 
HETATM   23  C14 UNL     1       8.705  42.320  20.679  1.00  0.00     0.167 C 
ENDBRANCH  11  18
BRANCH  14  24
HETATM   24  N8  UNL     1       7.656  38.375  23.631  1.00  0.00    -0.234 N 
ATOM     25  H82 UNL     1       6.727  38.511  23.230  1.00  0.00     0.174 HD
ATOM     26  H81 UNL     1       7.911  37.436  23.933  1.00  0.00     0.174 HD
ENDBRANCH  14  24
ENDBRANCH   6   9
BRANCH   1  27
HETATM   27  C4  UNL     1      15.673  40.070  27.428  1.00  0.00     0.081 A 
HETATM   28  C2  UNL     1      16.563  39.773  28.405  1.00  0.00     0.029 A 
HETATM   29  C1  UNL     1      16.392  40.299  29.830  1.00  0.00     0.070 C 
HETATM   30  N1  UNL     1      17.574  38.985  28.138  1.00  0.00    -0.339 N 
HETATM   31  C3  UNL     1      17.718  38.484  26.927  1.00  0.00     0.143 A 
ATOM     32  H1  UNL     1      18.250  38.759  28.868  1.00  0.00     0.168 HD
HETATM   33  S1  UNL     1      16.399  39.123  26.098  1.00  0.00    -0.048 SA
BRANCH  31  34
HETATM   34  N2  UNL     1      18.655  37.683  26.462  1.00  0.00    -0.380 N 
ATOM     35  H22 UNL     1      18.657  36.664  26.450  1.00  0.00     0.158 HD
ATOM     36  H21 UNL     1      19.547  37.917  26.026  1.00  0.00     0.158 HD
ENDBRANCH  31  34
ENDBRANCH   1  27
BRANCH   1  37
HETATM   37  O1  UNL     1      14.798  41.787  26.242  1.00  0.00    -0.345 OA
ATOM     38  H1  UNL     1      14.105  41.720  25.596  1.00  0.00     0.219 HD
ENDBRANCH   1  37
TORSDOF 6
ENDMDL
