MODEL 1
REMARK VINA RESULT: -10.196832725      0.000      0.000
REMARK  3 active torsions:
REMARK  status: ('A' for Active; 'I' for Inactive)
REMARK    1  A    between atoms: C1_2  and  C2_3 
REMARK       I    between atoms: C1_2  and  N5_18 
REMARK    2  A    between atoms: C2_3  and  S1_4 
REMARK    3  A    between atoms: S1_4  and  C3_5 
ROOT
HETATM    1  O1  UNL     1      15.387  40.539  27.859  1.00  0.00    -0.273 OA
HETATM    2  C1  UNL     1      15.117  40.121  26.708  1.00  0.00     0.229 C 
HETATM    3  N5  UNL     1      16.161  39.488  25.980  1.00  0.00    -0.351 N 
HETATM    4  C8  UNL     1      15.953  38.966  24.627  1.00  0.00     0.127 C 
HETATM    5  C9  UNL     1      16.263  40.076  23.646  1.00  0.00     0.047 C 
HETATM    6  C10 UNL     1      16.962  39.587  22.407  1.00  0.00     0.234 C 
HETATM    7  N6  UNL     1      18.294  39.095  22.681  1.00  0.00    -0.073 N 
ATOM      8  H61 UNL     1      18.324  38.600  23.572  1.00  0.00     0.277 HD
ATOM      9  H62 UNL     1      18.929  39.863  22.897  1.00  0.00     0.277 HD
HETATM   10  C11 UNL     1      18.816  38.277  21.617  1.00  0.00     0.259 C 
HETATM   11  C12 UNL     1      19.304  36.968  22.213  1.00  0.00     0.259 C 
HETATM   12  N7  UNL     1      20.666  37.153  22.731  1.00  0.00    -0.072 N 
ATOM     13  H71 UNL     1      20.952  38.132  22.703  1.00  0.00     0.277 HD
ATOM     14  H72 UNL     1      21.368  36.771  22.097  1.00  0.00     0.277 HD
HETATM   15  C13 UNL     1      20.785  36.593  24.070  1.00  0.00     0.249 C 
HETATM   16  C14 UNL     1      21.276  37.638  25.034  1.00  0.00     0.150 C 
HETATM   17  N8  UNL     1      20.210  38.226  25.789  1.00  0.00    -0.177 NA
HETATM   18  S2  UNL     1      19.051  37.039  26.377  1.00  0.00    -0.064 SA
HETATM   19  C15 UNL     1      17.673  37.939  27.131  1.00  0.00     0.112 C 
HETATM   20  C16 UNL     1      17.495  39.320  26.529  1.00  0.00     0.137 C 
ENDROOT
BRANCH   2  21
HETATM   21  C2  UNL     1      13.780  40.268  26.116  1.00  0.00     0.183 C 
BRANCH  21  22
HETATM   22  S1  UNL     1      12.537  40.830  27.276  1.00  0.00    -0.102 SA
BRANCH  22  23
HETATM   23  C3  UNL     1      11.791  39.518  28.208  1.00  0.00     0.086 A 
HETATM   24  C4  UNL     1      12.024  39.509  29.570  1.00  0.00     0.055 A 
HETATM   25  C5  UNL     1      11.506  38.550  30.398  1.00  0.00     0.030 A 
HETATM   26  C6  UNL     1      11.560  38.283  31.761  1.00  0.00     0.122 A 
HETATM   27  C7  UNL     1      10.727  37.574  29.810  1.00  0.00     0.146 A 
HETATM   28  N1  UNL     1      10.829  37.176  31.958  1.00  0.00    -0.309 N 
HETATM   29  N2  UNL     1      10.342  36.762  30.818  1.00  0.00    -0.284 N 
ATOM     30  H1  UNL     1      10.675  36.726  32.860  1.00  0.00     0.186 HD
ATOM     31  H2  UNL     1       9.752  35.938  30.705  1.00  0.00     0.188 HD
HETATM   32  N3  UNL     1      10.533  37.631  28.483  1.00  0.00    -0.283 N 
HETATM   33  N4  UNL     1      11.031  38.553  27.684  1.00  0.00    -0.293 N 
ATOM     34  H3  UNL     1       9.956  36.904  28.060  1.00  0.00     0.188 HD
ATOM     35  H4  UNL     1      10.840  38.531  26.682  1.00  0.00     0.187 HD
ENDBRANCH  22  23
ENDBRANCH  21  22
ENDBRANCH   2  21
TORSDOF 3
ENDMDL
MODEL 2
REMARK VINA RESULT: -9.856285922      2.982      7.887
REMARK  3 active torsions:
REMARK  status: ('A' for Active; 'I' for Inactive)
REMARK    1  A    between atoms: C1_2  and  C2_3 
REMARK       I    between atoms: C1_2  and  N5_18 
REMARK    2  A    between atoms: C2_3  and  S1_4 
REMARK    3  A    between atoms: S1_4  and  C3_5 
ROOT
HETATM    1  O1  UNL     1      14.297  39.204  29.725  1.00  0.00    -0.273 OA
HETATM    2  C1  UNL     1      14.994  39.666  28.791  1.00  0.00     0.229 C 
HETATM    3  N5  UNL     1      14.313  40.101  27.621  1.00  0.00    -0.351 N 
HETATM    4  C8  UNL     1      15.033  40.655  26.470  1.00  0.00     0.127 C 
HETATM    5  C9  UNL     1      15.391  39.509  25.549  1.00  0.00     0.047 C 
HETATM    6  C10 UNL     1      15.270  39.865  24.093  1.00  0.00     0.234 C 
HETATM    7  N6  UNL     1      13.901  40.109  23.695  1.00  0.00    -0.073 N 
ATOM      8  H61 UNL     1      13.386  40.589  24.432  1.00  0.00     0.277 HD
ATOM      9  H62 UNL     1      13.371  39.239  23.662  1.00  0.00     0.277 HD
HETATM   10  C11 UNL     1      13.802  40.821  22.447  1.00  0.00     0.259 C 
HETATM   11  C12 UNL     1      12.892  42.019  22.649  1.00  0.00     0.259 C 
HETATM   12  N7  UNL     1      11.494  41.591  22.510  1.00  0.00    -0.072 N 
ATOM     13  H71 UNL     1      11.414  40.577  22.435  1.00  0.00     0.277 HD
ATOM     14  H72 UNL     1      11.110  41.841  21.598  1.00  0.00     0.277 HD
HETATM   15  C13 UNL     1      10.685  42.119  23.599  1.00  0.00     0.249 C 
HETATM   16  C14 UNL     1       9.982  41.000  24.319  1.00  0.00     0.150 C 
HETATM   17  N8  UNL     1      10.661  40.613  25.519  1.00  0.00    -0.177 NA
HETATM   18  S2  UNL     1      11.213  41.989  26.469  1.00  0.00    -0.064 SA
HETATM   19  C15 UNL     1      12.215  41.351  27.834  1.00  0.00     0.112 C 
HETATM   20  C16 UNL     1      12.869  40.026  27.493  1.00  0.00     0.137 C 
ENDROOT
BRANCH   2  21
HETATM   21  C2  UNL     1      16.457  39.763  28.881  1.00  0.00     0.183 C 
BRANCH  21  22
HETATM   22  S1  UNL     1      17.257  38.215  29.295  1.00  0.00    -0.102 SA
BRANCH  22  23
HETATM   23  C3  UNL     1      18.377  37.639  28.045  1.00  0.00     0.086 A 
HETATM   24  C4  UNL     1      18.313  38.261  26.813  1.00  0.00     0.055 A 
HETATM   25  C5  UNL     1      19.123  37.908  25.769  1.00  0.00     0.030 A 
HETATM   26  C6  UNL     1      19.288  38.332  24.455  1.00  0.00     0.122 A 
HETATM   27  C7  UNL     1      20.024  36.887  25.996  1.00  0.00     0.146 A 
HETATM   28  N1  UNL     1      20.264  37.574  23.934  1.00  0.00    -0.309 N 
HETATM   29  N2  UNL     1      20.693  36.730  24.834  1.00  0.00    -0.284 N 
ATOM     30  H1  UNL     1      20.617  37.645  22.979  1.00  0.00     0.186 HD
ATOM     31  H2  UNL     1      21.434  36.046  24.679  1.00  0.00     0.188 HD
HETATM   32  N3  UNL     1      20.045  36.319  27.212  1.00  0.00    -0.283 N 
HETATM   33  N4  UNL     1      19.266  36.658  28.219  1.00  0.00    -0.293 N 
ATOM     34  H3  UNL     1      20.715  35.566  27.368  1.00  0.00     0.188 HD
ATOM     35  H4  UNL     1      19.340  36.178  29.116  1.00  0.00     0.187 HD
ENDBRANCH  22  23
ENDBRANCH  21  22
ENDBRANCH   2  21
TORSDOF 3
ENDMDL
MODEL 3
REMARK VINA RESULT: -9.847232578      6.184      7.882
REMARK  3 active torsions:
REMARK  status: ('A' for Active; 'I' for Inactive)
REMARK    1  A    between atoms: C1_2  and  C2_3 
REMARK       I    between atoms: C1_2  and  N5_18 
REMARK    2  A    between atoms: C2_3  and  S1_4 
REMARK    3  A    between atoms: S1_4  and  C3_5 
ROOT
HETATM    1  O1  UNL     1       8.092  38.264  24.824  1.00  0.00    -0.273 OA
HETATM    2  C1  UNL     1       8.703  39.359  24.860  1.00  0.00     0.229 C 
HETATM    3  N5  UNL     1       9.023  39.969  23.616  1.00  0.00    -0.351 N 
HETATM    4  C8  UNL     1       9.737  41.247  23.545  1.00  0.00     0.127 C 
HETATM    5  C9  UNL     1      11.221  40.950  23.511  1.00  0.00     0.047 C 
HETATM    6  C10 UNL     1      11.984  41.871  22.598  1.00  0.00     0.234 C 
HETATM    7  N6  UNL     1      11.643  41.677  21.206  1.00  0.00    -0.073 N 
ATOM      8  H61 UNL     1      10.648  41.481  21.098  1.00  0.00     0.277 HD
ATOM      9  H62 UNL     1      12.023  40.798  20.856  1.00  0.00     0.277 HD
HETATM   10  C11 UNL     1      12.045  42.781  20.375  1.00  0.00     0.259 C 
HETATM   11  C12 UNL     1      10.846  43.231  19.560  1.00  0.00     0.259 C 
HETATM   12  N7  UNL     1      10.730  42.382  18.366  1.00  0.00    -0.072 N 
ATOM     13  H71 UNL     1      11.384  41.601  18.392  1.00  0.00     0.277 HD
ATOM     14  H72 UNL     1      11.085  42.850  17.532  1.00  0.00     0.277 HD
HETATM   15  C13 UNL     1       9.356  41.931  18.189  1.00  0.00     0.249 C 
HETATM   16  C14 UNL     1       9.302  40.430  18.122  1.00  0.00     0.150 C 
HETATM   17  N8  UNL     1       8.930  39.841  19.374  1.00  0.00    -0.177 NA
HETATM   18  S2  UNL     1       7.597  40.682  20.158  1.00  0.00    -0.064 SA
HETATM   19  C15 UNL     1       7.376  39.956  21.801  1.00  0.00     0.112 C 
HETATM   20  C16 UNL     1       8.664  39.368  22.344  1.00  0.00     0.137 C 
ENDROOT
BRANCH   2  21
HETATM   21  C2  UNL     1       9.082  40.003  26.124  1.00  0.00     0.183 C 
BRANCH  21  22
HETATM   22  S1  UNL     1      10.660  39.451  26.768  1.00  0.00    -0.102 SA
BRANCH  22  23
HETATM   23  C3  UNL     1      10.537  38.614  28.327  1.00  0.00     0.086 A 
HETATM   24  C4  UNL     1      11.419  39.003  29.316  1.00  0.00     0.055 A 
HETATM   25  C5  UNL     1      11.425  38.433  30.561  1.00  0.00     0.030 A 
HETATM   26  C6  UNL     1      12.165  38.605  31.726  1.00  0.00     0.122 A 
HETATM   27  C7  UNL     1      10.499  37.436  30.795  1.00  0.00     0.146 A 
HETATM   28  N1  UNL     1      11.678  37.726  32.614  1.00  0.00    -0.309 N 
HETATM   29  N2  UNL     1      10.705  37.044  32.070  1.00  0.00    -0.284 N 
ATOM     30  H1  UNL     1      12.015  37.608  33.570  1.00  0.00     0.186 HD
ATOM     31  H2  UNL     1      10.174  36.314  32.545  1.00  0.00     0.188 HD
HETATM   32  N3  UNL     1       9.667  37.098  29.798  1.00  0.00    -0.283 N 
HETATM   33  N4  UNL     1       9.659  37.645  28.599  1.00  0.00    -0.293 N 
ATOM     34  H3  UNL     1       8.987  36.360  29.983  1.00  0.00     0.188 HD
ATOM     35  H4  UNL     1       8.994  37.334  27.891  1.00  0.00     0.187 HD
ENDBRANCH  22  23
ENDBRANCH  21  22
ENDBRANCH   2  21
TORSDOF 3
ENDMDL
MODEL 4
REMARK VINA RESULT: -9.787964891      6.454      7.864
REMARK  3 active torsions:
REMARK  status: ('A' for Active; 'I' for Inactive)
REMARK    1  A    between atoms: C1_2  and  C2_3 
REMARK       I    between atoms: C1_2  and  N5_18 
REMARK    2  A    between atoms: C2_3  and  S1_4 
REMARK    3  A    between atoms: S1_4  and  C3_5 
ROOT
HETATM    1  O1  UNL     1       9.846  42.408  25.569  1.00  0.00    -0.273 OA
HETATM    2  C1  UNL     1       9.791  41.284  25.017  1.00  0.00     0.229 C 
HETATM    3  N5  UNL     1       9.823  41.251  23.596  1.00  0.00    -0.351 N 
HETATM    4  C8  UNL     1       9.762  39.991  22.850  1.00  0.00     0.127 C 
HETATM    5  C9  UNL     1       8.305  39.674  22.589  1.00  0.00     0.047 C 
HETATM    6  C10 UNL     1       8.069  39.070  21.231  1.00  0.00     0.234 C 
HETATM    7  N6  UNL     1       8.335  40.003  20.158  1.00  0.00    -0.073 N 
ATOM      8  H61 UNL     1       9.139  40.591  20.376  1.00  0.00     0.277 HD
ATOM      9  H62 UNL     1       7.613  40.720  20.111  1.00  0.00     0.277 HD
HETATM   10  C11 UNL     1       8.501  39.353  18.884  1.00  0.00     0.259 C 
HETATM   11  C12 UNL     1       9.802  39.833  18.266  1.00  0.00     0.259 C 
HETATM   12  N7  UNL     1       9.566  41.109  17.578  1.00  0.00    -0.072 N 
ATOM     13  H71 UNL     1       8.629  41.470  17.760  1.00  0.00     0.277 HD
ATOM     14  H72 UNL     1       9.488  40.987  16.568  1.00  0.00     0.277 HD
HETATM   15  C13 UNL     1      10.595  42.078  17.927  1.00  0.00     0.249 C 
HETATM   16  C14 UNL     1       9.971  43.329  18.483  1.00  0.00     0.150 C 
HETATM   17  N8  UNL     1       9.995  43.359  19.915  1.00  0.00    -0.177 NA
HETATM   18  S2  UNL     1      11.537  42.836  20.586  1.00  0.00    -0.064 SA
HETATM   19  C15 UNL     1      11.351  42.737  22.384  1.00  0.00     0.112 C 
HETATM   20  C16 UNL     1       9.918  42.459  22.796  1.00  0.00     0.137 C 
ENDROOT
BRANCH   2  21
HETATM   21  C2  UNL     1       9.698  40.037  25.787  1.00  0.00     0.183 C 
BRANCH  21  22
HETATM   22  S1  UNL     1      11.181  39.651  26.714  1.00  0.00    -0.102 SA
BRANCH  22  23
HETATM   23  C3  UNL     1      10.867  38.771  28.222  1.00  0.00     0.086 A 
HETATM   24  C4  UNL     1      11.678  39.070  29.300  1.00  0.00     0.055 A 
HETATM   25  C5  UNL     1      11.537  38.459  30.517  1.00  0.00     0.030 A 
HETATM   26  C6  UNL     1      12.177  38.544  31.748  1.00  0.00     0.122 A 
HETATM   27  C7  UNL     1      10.535  37.516  30.629  1.00  0.00     0.146 A 
HETATM   28  N1  UNL     1      11.559  37.669  32.555  1.00  0.00    -0.309 N 
HETATM   29  N2  UNL     1      10.601  37.069  31.901  1.00  0.00    -0.284 N 
ATOM     30  H1  UNL     1      11.801  37.498  33.531  1.00  0.00     0.186 HD
ATOM     31  H2  UNL     1       9.986  36.358  32.298  1.00  0.00     0.188 HD
HETATM   32  N3  UNL     1       9.777  37.265  29.550  1.00  0.00    -0.283 N 
HETATM   33  N4  UNL     1       9.911  37.852  28.378  1.00  0.00    -0.293 N 
ATOM     34  H3  UNL     1       9.041  36.566  29.645  1.00  0.00     0.188 HD
ATOM     35  H4  UNL     1       9.295  37.607  27.602  1.00  0.00     0.187 HD
ENDBRANCH  22  23
ENDBRANCH  21  22
ENDBRANCH   2  21
TORSDOF 3
ENDMDL
MODEL 5
REMARK VINA RESULT: -9.595021158      3.903      8.428
REMARK  3 active torsions:
REMARK  status: ('A' for Active; 'I' for Inactive)
REMARK    1  A    between atoms: C1_2  and  C2_3 
REMARK       I    between atoms: C1_2  and  N5_18 
REMARK    2  A    between atoms: C2_3  and  S1_4 
REMARK    3  A    between atoms: S1_4  and  C3_5 
ROOT
HETATM    1  O1  UNL     1      13.688  42.408  26.782  1.00  0.00    -0.273 OA
HETATM    2  C1  UNL     1      13.201  41.257  26.884  1.00  0.00     0.229 C 
HETATM    3  N5  UNL     1      12.189  40.892  25.954  1.00  0.00    -0.351 N 
HETATM    4  C8  UNL     1      11.551  39.572  25.986  1.00  0.00     0.127 C 
HETATM    5  C9  UNL     1      10.349  39.657  26.901  1.00  0.00     0.047 C 
HETATM    6  C10 UNL     1       9.174  38.859  26.404  1.00  0.00     0.234 C 
HETATM    7  N6  UNL     1       8.618  39.396  25.183  1.00  0.00    -0.073 N 
ATOM      8  H61 UNL     1       9.353  39.748  24.570  1.00  0.00     0.277 HD
ATOM      9  H62 UNL     1       8.119  40.267  25.361  1.00  0.00     0.277 HD
HETATM   10  C11 UNL     1       7.777  38.452  24.491  1.00  0.00     0.259 C 
HETATM   11  C12 UNL     1       8.241  38.363  23.049  1.00  0.00     0.259 C 
HETATM   12  N7  UNL     1       7.635  39.458  22.279  1.00  0.00    -0.072 N 
ATOM     13  H71 UNL     1       7.140  40.115  22.882  1.00  0.00     0.277 HD
ATOM     14  H72 UNL     1       6.843  39.136  21.723  1.00  0.00     0.277 HD
HETATM   15  C13 UNL     1       8.637  40.124  21.459  1.00  0.00     0.249 C 
HETATM   16  C14 UNL     1       8.667  41.597  21.763  1.00  0.00     0.150 C 
HETATM   17  N8  UNL     1       9.725  41.947  22.663  1.00  0.00    -0.177 NA
HETATM   18  S2  UNL     1      11.246  41.152  22.273  1.00  0.00    -0.064 SA
HETATM   19  C15 UNL     1      12.421  41.529  23.598  1.00  0.00     0.112 C 
HETATM   20  C16 UNL     1      11.725  41.798  24.919  1.00  0.00     0.137 C 
ENDROOT
BRANCH   2  21
HETATM   21  C2  UNL     1      13.643  40.307  27.913  1.00  0.00     0.183 C 
BRANCH  21  22
HETATM   22  S1  UNL     1      15.181  40.771  28.707  1.00  0.00    -0.102 SA
BRANCH  22  23
HETATM   23  C3  UNL     1      16.405  39.487  28.685  1.00  0.00     0.086 A 
HETATM   24  C4  UNL     1      17.052  39.262  27.485  1.00  0.00     0.055 A 
HETATM   25  C5  UNL     1      18.016  38.300  27.340  1.00  0.00     0.030 A 
HETATM   26  C6  UNL     1      18.818  37.851  26.296  1.00  0.00     0.122 A 
HETATM   27  C7  UNL     1      18.322  37.551  28.457  1.00  0.00     0.146 A 
HETATM   28  N1  UNL     1      19.572  36.863  26.799  1.00  0.00    -0.309 N 
HETATM   29  N2  UNL     1      19.283  36.688  28.061  1.00  0.00    -0.284 N 
ATOM     30  H1  UNL     1      20.267  36.330  26.277  1.00  0.00     0.186 HD
ATOM     31  H2  UNL     1      19.722  35.993  28.665  1.00  0.00     0.188 HD
HETATM   32  N3  UNL     1      17.663  37.813  29.597  1.00  0.00    -0.283 N 
HETATM   33  N4  UNL     1      16.736  38.738  29.739  1.00  0.00    -0.293 N 
ATOM     34  H3  UNL     1      17.899  37.252  30.416  1.00  0.00     0.188 HD
ATOM     35  H4  UNL     1      16.277  38.878  30.640  1.00  0.00     0.187 HD
ENDBRANCH  22  23
ENDBRANCH  21  22
ENDBRANCH   2  21
TORSDOF 3
ENDMDL
