MODEL 1
REMARK VINA RESULT: -8.606183620      0.000      0.000
REMARK  10 active torsions:
REMARK  status: ('A' for Active; 'I' for Inactive)
REMARK    1  A    between atoms: N1_1  and  C1_4 
REMARK    2  A    between atoms: C2_7  and  N3_8 
REMARK    3  A    between atoms: N4_11  and  C5_12 
REMARK    4  A    between atoms: C5_12  and  C6_13 
REMARK    5  A    between atoms: C6_13  and  N5_14 
REMARK    6  A    between atoms: C8_16  and  C9_17 
REMARK    7  A    between atoms: C9_17  and  N6_18 
REMARK    8  A    between atoms: N6_18  and  C10_19 
REMARK    9  A    between atoms: C10_19  and  C11_20 
REMARK   10  A    between atoms: C11_20  and  O1_21 
ROOT
HETATM    1  N3  UNL     1      14.821  37.272  21.992  1.00  0.00    -0.339 N 
HETATM    2  C3  UNL     1      15.908  37.347  21.052  1.00  0.00     0.156 C 
HETATM    3  C4  UNL     1      17.079  36.747  21.761  1.00  0.00     0.294 C 
HETATM    4  N4  UNL     1      16.648  36.364  23.057  1.00  0.00     0.109 N 
HETATM    5  C14 UNL     1      15.192  36.372  23.058  1.00  0.00     0.399 C 
ENDROOT
BRANCH   4   6
HETATM    6  C5  UNL     1      17.083  37.222  24.119  1.00  0.00     0.294 C 
BRANCH   6   7
HETATM    7  C6  UNL     1      18.551  37.260  24.374  1.00  0.00     0.163 C 
BRANCH   7   8
HETATM    8  N5  UNL     1      19.081  36.168  25.094  1.00  0.00    -0.307 N 
HETATM    9  C7  UNL     1      18.263  35.366  25.796  1.00  0.00     0.115 A 
HETATM   10  C8  UNL     1      18.748  34.289  26.521  1.00  0.00     0.076 A 
HETATM   11  C12 UNL     1      20.084  34.030  26.529  1.00  0.00     0.263 A 
HETATM   12  O2  UNL     1      20.556  33.046  27.187  1.00  0.00    -0.267 OA
HETATM   13  N7  UNL     1      20.883  34.839  25.822  1.00  0.00    -0.275 N 
HETATM   14  C13 UNL     1      20.394  35.891  25.115  1.00  0.00     0.329 A 
ATOM     15  H7  UNL     1      21.888  34.661  25.814  1.00  0.00     0.173 HD
HETATM   16  O3  UNL     1      21.196  36.586  24.494  1.00  0.00    -0.246 OA
BRANCH  10  17
HETATM   17  C9  UNL     1      17.834  33.396  27.291  1.00  0.00     0.193 C 
BRANCH  17  18
HETATM   18  N6  UNL     1      17.573  33.468  28.446  1.00  0.00    -0.457 NA
BRANCH  18  19
HETATM   19  C10 UNL     1      17.550  33.582  29.776  1.00  0.00     0.243 C 
BRANCH  19  20
HETATM   20  C11 UNL     1      18.914  34.003  30.355  1.00  0.00     0.197 C 
BRANCH  20  21
HETATM   21  O1  UNL     1      19.861  33.013  30.166  1.00  0.00    -0.398 OA
ATOM     22  H1  UNL     1      20.700  33.384  29.922  1.00  0.00     0.209 HD
ENDBRANCH  20  21
ENDBRANCH  19  20
ENDBRANCH  18  19
ENDBRANCH  17  18
ENDBRANCH  10  17
ENDBRANCH   7   8
ENDBRANCH   6   7
ENDBRANCH   4   6
BRANCH   1  23
HETATM   23  C2  UNL     1      13.588  37.950  21.891  1.00  0.00     0.125 A 
HETATM   24  N2  UNL     1      12.591  37.718  22.771  1.00  0.00    -0.177 N 
HETATM   25  C1  UNL     1      11.389  38.328  22.721  1.00  0.00     0.680 A 
ATOM     26  H2  UNL     1      12.757  37.042  23.516  1.00  0.00     0.185 HD
HETATM   27  N8  UNL     1      11.141  39.221  21.754  1.00  0.00    -0.156 N 
HETATM   28  C16 UNL     1      12.105  39.493  20.845  1.00  0.00     0.263 A 
ATOM     29  H8  UNL     1      10.237  39.690  21.704  1.00  0.00     0.187 HD
HETATM   30  C15 UNL     1      13.330  38.877  20.888  1.00  0.00     0.123 A 
HETATM   31  O4  UNL     1      11.839  40.347  19.935  1.00  0.00    -0.268 OA
BRANCH  25  32
HETATM   32  N1  UNL     1      10.476  38.050  23.618  1.00  0.00    -0.234 N 
ATOM     33  H12 UNL     1      10.577  37.235  24.223  1.00  0.00     0.174 HD
ATOM     34  H11 UNL     1       9.655  38.648  23.713  1.00  0.00     0.174 HD
ENDBRANCH  25  32
ENDBRANCH   1  23
TORSDOF 10
ENDMDL
MODEL 2
REMARK VINA RESULT: -8.319465048      1.181      1.233
REMARK  10 active torsions:
REMARK  status: ('A' for Active; 'I' for Inactive)
REMARK    1  A    between atoms: N1_1  and  C1_4 
REMARK    2  A    between atoms: C2_7  and  N3_8 
REMARK    3  A    between atoms: N4_11  and  C5_12 
REMARK    4  A    between atoms: C5_12  and  C6_13 
REMARK    5  A    between atoms: C6_13  and  N5_14 
REMARK    6  A    between atoms: C8_16  and  C9_17 
REMARK    7  A    between atoms: C9_17  and  N6_18 
REMARK    8  A    between atoms: N6_18  and  C10_19 
REMARK    9  A    between atoms: C10_19  and  C11_20 
REMARK   10  A    between atoms: C11_20  and  O1_21 
ROOT
HETATM    1  N3  UNL     1      15.544  36.877  22.290  1.00  0.00    -0.339 N 
HETATM    2  C3  UNL     1      16.642  37.306  21.465  1.00  0.00     0.156 C 
HETATM    3  C4  UNL     1      17.859  36.708  22.091  1.00  0.00     0.294 C 
HETATM    4  N4  UNL     1      17.441  35.980  23.235  1.00  0.00     0.109 N 
HETATM    5  C14 UNL     1      15.999  35.805  23.144  1.00  0.00     0.399 C 
ENDROOT
BRANCH   4   6
HETATM    6  C5  UNL     1      17.719  36.612  24.491  1.00  0.00     0.294 C 
BRANCH   6   7
HETATM    7  C6  UNL     1      19.144  36.958  24.753  1.00  0.00     0.163 C 
BRANCH   7   8
HETATM    8  N5  UNL     1      19.949  35.917  25.261  1.00  0.00    -0.307 N 
HETATM    9  C7  UNL     1      19.389  34.913  25.954  1.00  0.00     0.115 A 
HETATM   10  C8  UNL     1      20.148  33.877  26.475  1.00  0.00     0.076 A 
HETATM   11  C12 UNL     1      21.496  33.869  26.285  1.00  0.00     0.263 A 
HETATM   12  O2  UNL     1      22.217  32.929  26.754  1.00  0.00    -0.267 OA
HETATM   13  N7  UNL     1      22.036  34.879  25.591  1.00  0.00    -0.275 N 
HETATM   14  C13 UNL     1      21.280  35.887  25.085  1.00  0.00     0.329 A 
ATOM     15  H7  UNL     1      23.045  34.890  25.437  1.00  0.00     0.173 HD
HETATM   16  O3  UNL     1      21.854  36.776  24.461  1.00  0.00    -0.246 OA
BRANCH  10  17
HETATM   17  C9  UNL     1      19.519  32.758  27.236  1.00  0.00     0.193 C 
BRANCH  17  18
HETATM   18  N6  UNL     1      18.718  32.850  28.106  1.00  0.00    -0.457 NA
BRANCH  18  19
HETATM   19  C10 UNL     1      17.852  33.223  29.052  1.00  0.00     0.243 C 
BRANCH  19  20
HETATM   20  C11 UNL     1      18.265  34.538  29.742  1.00  0.00     0.197 C 
BRANCH  20  21
HETATM   21  O1  UNL     1      18.331  34.379  31.114  1.00  0.00    -0.398 OA
ATOM     22  H1  UNL     1      19.040  34.892  31.483  1.00  0.00     0.209 HD
ENDBRANCH  20  21
ENDBRANCH  19  20
ENDBRANCH  18  19
ENDBRANCH  17  18
ENDBRANCH  10  17
ENDBRANCH   7   8
ENDBRANCH   6   7
ENDBRANCH   4   6
BRANCH   1  23
HETATM   23  C2  UNL     1      14.234  37.399  22.267  1.00  0.00     0.125 A 
HETATM   24  N2  UNL     1      13.192  36.688  22.744  1.00  0.00    -0.177 N 
HETATM   25  C1  UNL     1      11.917  37.129  22.742  1.00  0.00     0.680 A 
ATOM     26  H2  UNL     1      13.379  35.762  23.129  1.00  0.00     0.185 HD
HETATM   27  N8  UNL     1      11.639  38.341  22.243  1.00  0.00    -0.156 N 
HETATM   28  C16 UNL     1      12.646  39.098  21.751  1.00  0.00     0.263 A 
ATOM     29  H8  UNL     1      10.680  38.689  22.235  1.00  0.00     0.187 HD
HETATM   30  C15 UNL     1      13.945  38.656  21.750  1.00  0.00     0.123 A 
HETATM   31  O4  UNL     1      12.350  40.248  21.282  1.00  0.00    -0.268 OA
BRANCH  25  32
HETATM   32  N1  UNL     1      10.962  36.378  23.231  1.00  0.00    -0.234 N 
ATOM     33  H12 UNL     1      11.178  35.469  23.639  1.00  0.00     0.174 HD
ATOM     34  H11 UNL     1       9.994  36.699  23.201  1.00  0.00     0.174 HD
ENDBRANCH  25  32
ENDBRANCH   1  23
TORSDOF 10
ENDMDL
MODEL 3
REMARK VINA RESULT: -7.929497668      2.066      3.572
REMARK  10 active torsions:
REMARK  status: ('A' for Active; 'I' for Inactive)
REMARK    1  A    between atoms: N1_1  and  C1_4 
REMARK    2  A    between atoms: C2_7  and  N3_8 
REMARK    3  A    between atoms: N4_11  and  C5_12 
REMARK    4  A    between atoms: C5_12  and  C6_13 
REMARK    5  A    between atoms: C6_13  and  N5_14 
REMARK    6  A    between atoms: C8_16  and  C9_17 
REMARK    7  A    between atoms: C9_17  and  N6_18 
REMARK    8  A    between atoms: N6_18  and  C10_19 
REMARK    9  A    between atoms: C10_19  and  C11_20 
REMARK   10  A    between atoms: C11_20  and  O1_21 
ROOT
HETATM    1  N3  UNL     1      15.665  37.216  22.015  1.00  0.00    -0.339 N 
HETATM    2  C3  UNL     1      16.602  38.061  22.707  1.00  0.00     0.156 C 
HETATM    3  C4  UNL     1      17.836  37.233  22.859  1.00  0.00     0.294 C 
HETATM    4  N4  UNL     1      17.579  35.965  22.277  1.00  0.00     0.109 N 
HETATM    5  C14 UNL     1      16.379  36.089  21.463  1.00  0.00     0.399 C 
ENDROOT
BRANCH   4   6
HETATM    6  C5  UNL     1      17.356  34.902  23.212  1.00  0.00     0.294 C 
BRANCH   6   7
HETATM    7  C6  UNL     1      17.352  35.283  24.653  1.00  0.00     0.163 C 
BRANCH   7   8
HETATM    8  N5  UNL     1      18.338  34.673  25.456  1.00  0.00    -0.307 N 
HETATM    9  C7  UNL     1      19.618  35.069  25.364  1.00  0.00     0.115 A 
HETATM   10  C8  UNL     1      20.616  34.488  26.131  1.00  0.00     0.076 A 
HETATM   11  C12 UNL     1      20.301  33.491  27.001  1.00  0.00     0.263 A 
HETATM   12  O2  UNL     1      21.198  32.939  27.718  1.00  0.00    -0.267 OA
HETATM   13  N7  UNL     1      19.019  33.110  27.080  1.00  0.00    -0.275 N 
HETATM   14  C13 UNL     1      18.051  33.689  26.323  1.00  0.00     0.329 A 
ATOM     15  H7  UNL     1      18.762  32.364  27.727  1.00  0.00     0.173 HD
HETATM   16  O3  UNL     1      16.900  33.280  26.455  1.00  0.00    -0.246 OA
BRANCH  10  17
HETATM   17  C9  UNL     1      22.035  34.939  26.031  1.00  0.00     0.193 C 
BRANCH  17  18
HETATM   18  N6  UNL     1      22.718  34.934  25.061  1.00  0.00    -0.457 NA
BRANCH  18  19
HETATM   19  C10 UNL     1      23.642  34.756  24.114  1.00  0.00     0.243 C 
BRANCH  19  20
HETATM   20  C11 UNL     1      24.216  33.326  24.114  1.00  0.00     0.197 C 
BRANCH  20  21
HETATM   21  O1  UNL     1      23.369  32.450  23.460  1.00  0.00    -0.398 OA
ATOM     22  H1  UNL     1      22.460  32.648  23.650  1.00  0.00     0.209 HD
ENDBRANCH  20  21
ENDBRANCH  19  20
ENDBRANCH  18  19
ENDBRANCH  17  18
ENDBRANCH  10  17
ENDBRANCH   7   8
ENDBRANCH   6   7
ENDBRANCH   4   6
BRANCH   1  23
HETATM   23  C2  UNL     1      14.280  37.447  21.881  1.00  0.00     0.125 A 
HETATM   24  N2  UNL     1      13.386  36.797  22.655  1.00  0.00    -0.177 N 
HETATM   25  C1  UNL     1      12.052  36.969  22.568  1.00  0.00     0.680 A 
ATOM     26  H2  UNL     1      13.742  36.136  23.346  1.00  0.00     0.185 HD
HETATM   27  N8  UNL     1      11.554  37.830  21.670  1.00  0.00    -0.156 N 
HETATM   28  C16 UNL     1      12.404  38.510  20.867  1.00  0.00     0.263 A 
ATOM     29  H8  UNL     1      10.547  37.971  21.592  1.00  0.00     0.187 HD
HETATM   30  C15 UNL     1      13.763  38.340  20.950  1.00  0.00     0.123 A 
HETATM   31  O4  UNL     1      11.901  39.322  20.021  1.00  0.00    -0.268 OA
BRANCH  25  32
HETATM   32  N1  UNL     1      11.251  36.303  23.361  1.00  0.00    -0.234 N 
ATOM     33  H12 UNL     1      11.066  36.637  24.307  1.00  0.00     0.174 HD
ATOM     34  H11 UNL     1      10.811  35.441  23.037  1.00  0.00     0.174 HD
ENDBRANCH  25  32
ENDBRANCH   1  23
TORSDOF 10
ENDMDL
MODEL 4
REMARK VINA RESULT: -7.899384288      2.845      9.635
REMARK  10 active torsions:
REMARK  status: ('A' for Active; 'I' for Inactive)
REMARK    1  A    between atoms: N1_1  and  C1_4 
REMARK    2  A    between atoms: C2_7  and  N3_8 
REMARK    3  A    between atoms: N4_11  and  C5_12 
REMARK    4  A    between atoms: C5_12  and  C6_13 
REMARK    5  A    between atoms: C6_13  and  N5_14 
REMARK    6  A    between atoms: C8_16  and  C9_17 
REMARK    7  A    between atoms: C9_17  and  N6_18 
REMARK    8  A    between atoms: N6_18  and  C10_19 
REMARK    9  A    between atoms: C10_19  and  C11_20 
REMARK   10  A    between atoms: C11_20  and  O1_21 
ROOT
HETATM    1  N3  UNL     1      19.982  32.948  28.295  1.00  0.00    -0.339 N 
HETATM    2  C3  UNL     1      19.339  33.969  29.081  1.00  0.00     0.156 C 
HETATM    3  C4  UNL     1      17.941  34.040  28.561  1.00  0.00     0.294 C 
HETATM    4  N4  UNL     1      17.822  33.092  27.512  1.00  0.00     0.109 N 
HETATM    5  C14 UNL     1      18.967  32.196  27.596  1.00  0.00     0.399 C 
ENDROOT
BRANCH   4   6
HETATM    6  C5  UNL     1      17.806  33.648  26.192  1.00  0.00     0.294 C 
BRANCH   6   7
HETATM    7  C6  UNL     1      18.102  35.105  26.087  1.00  0.00     0.163 C 
BRANCH   7   8
HETATM    8  N5  UNL     1      17.881  35.690  24.823  1.00  0.00    -0.307 N 
HETATM    9  C7  UNL     1      16.647  35.700  24.294  1.00  0.00     0.115 A 
HETATM   10  C8  UNL     1      16.392  36.259  23.051  1.00  0.00     0.076 A 
HETATM   11  C12 UNL     1      17.412  36.815  22.342  1.00  0.00     0.263 A 
HETATM   12  O2  UNL     1      17.207  37.335  21.198  1.00  0.00    -0.267 OA
HETATM   13  N7  UNL     1      18.637  36.796  22.887  1.00  0.00    -0.275 N 
HETATM   14  C13 UNL     1      18.871  36.245  24.106  1.00  0.00     0.329 A 
ATOM     15  H7  UNL     1      19.414  37.208  22.371  1.00  0.00     0.173 HD
HETATM   16  O3  UNL     1      20.023  36.269  24.533  1.00  0.00    -0.246 OA
BRANCH  10  17
HETATM   17  C9  UNL     1      15.017  36.276  22.473  1.00  0.00     0.193 C 
BRANCH  17  18
HETATM   18  N6  UNL     1      14.282  37.206  22.411  1.00  0.00    -0.457 NA
BRANCH  18  19
HETATM   19  C10 UNL     1      13.409  38.163  22.087  1.00  0.00     0.243 C 
BRANCH  19  20
HETATM   20  C11 UNL     1      11.949  37.674  22.151  1.00  0.00     0.197 C 
BRANCH  20  21
HETATM   21  O1  UNL     1      11.546  37.484  23.460  1.00  0.00    -0.398 OA
ATOM     22  H1  UNL     1      10.998  36.712  23.540  1.00  0.00     0.209 HD
ENDBRANCH  20  21
ENDBRANCH  19  20
ENDBRANCH  18  19
ENDBRANCH  17  18
ENDBRANCH  10  17
ENDBRANCH   7   8
ENDBRANCH   6   7
ENDBRANCH   4   6
BRANCH   1  23
HETATM   23  C2  UNL     1      21.369  32.705  28.224  1.00  0.00     0.125 A 
HETATM   24  N2  UNL     1      21.968  31.835  29.064  1.00  0.00    -0.177 N 
HETATM   25  C1  UNL     1      23.290  31.567  29.050  1.00  0.00     0.680 A 
ATOM     26  H2  UNL     1      21.387  31.353  29.749  1.00  0.00     0.185 HD
HETATM   27  N8  UNL     1      24.079  32.184  28.161  1.00  0.00    -0.156 N 
HETATM   28  C16 UNL     1      23.532  33.067  27.294  1.00  0.00     0.263 A 
ATOM     29  H8  UNL     1      25.081  31.992  28.138  1.00  0.00     0.187 HD
HETATM   30  C15 UNL     1      22.188  33.344  27.302  1.00  0.00     0.123 A 
HETATM   31  O4  UNL     1      24.309  33.640  26.459  1.00  0.00    -0.268 OA
BRANCH  25  32
HETATM   32  N1  UNL     1      23.793  30.704  29.896  1.00  0.00    -0.234 N 
ATOM     33  H12 UNL     1      24.659  30.211  29.677  1.00  0.00     0.174 HD
ATOM     34  H11 UNL     1      23.318  30.517  30.780  1.00  0.00     0.174 HD
ENDBRANCH  25  32
ENDBRANCH   1  23
TORSDOF 10
ENDMDL
MODEL 5
REMARK VINA RESULT: -7.888136127      1.943      3.551
REMARK  10 active torsions:
REMARK  status: ('A' for Active; 'I' for Inactive)
REMARK    1  A    between atoms: N1_1  and  C1_4 
REMARK    2  A    between atoms: C2_7  and  N3_8 
REMARK    3  A    between atoms: N4_11  and  C5_12 
REMARK    4  A    between atoms: C5_12  and  C6_13 
REMARK    5  A    between atoms: C6_13  and  N5_14 
REMARK    6  A    between atoms: C8_16  and  C9_17 
REMARK    7  A    between atoms: C9_17  and  N6_18 
REMARK    8  A    between atoms: N6_18  and  C10_19 
REMARK    9  A    between atoms: C10_19  and  C11_20 
REMARK   10  A    between atoms: C11_20  and  O1_21 
ROOT
HETATM    1  N3  UNL     1      16.031  36.737  22.424  1.00  0.00    -0.339 N 
HETATM    2  C3  UNL     1      17.083  37.707  22.575  1.00  0.00     0.156 C 
HETATM    3  C4  UNL     1      18.242  36.944  23.129  1.00  0.00     0.294 C 
HETATM    4  N4  UNL     1      17.833  35.595  23.288  1.00  0.00     0.109 N 
HETATM    5  C14 UNL     1      16.603  35.415  22.532  1.00  0.00     0.399 C 
ENDROOT
BRANCH   4   6
HETATM    6  C5  UNL     1      17.570  35.197  24.639  1.00  0.00     0.294 C 
BRANCH   6   7
HETATM    7  C6  UNL     1      18.361  35.889  25.696  1.00  0.00     0.163 C 
BRANCH   7   8
HETATM    8  N5  UNL     1      19.109  35.055  26.553  1.00  0.00    -0.307 N 
HETATM    9  C7  UNL     1      20.271  34.531  26.133  1.00  0.00     0.115 A 
HETATM   10  C8  UNL     1      21.030  33.701  26.944  1.00  0.00     0.076 A 
HETATM   11  C12 UNL     1      20.594  33.406  28.199  1.00  0.00     0.263 A 
HETATM   12  O2  UNL     1      21.271  32.646  28.966  1.00  0.00    -0.267 OA
HETATM   13  N7  UNL     1      19.433  33.940  28.601  1.00  0.00    -0.275 N 
HETATM   14  C13 UNL     1      18.701  34.751  27.795  1.00  0.00     0.329 A 
ATOM     15  H7  UNL     1      19.089  33.731  29.539  1.00  0.00     0.173 HD
HETATM   16  O3  UNL     1      17.646  35.199  28.240  1.00  0.00    -0.246 OA
BRANCH  10  17
HETATM   17  C9  UNL     1      22.326  33.128  26.476  1.00  0.00     0.193 C 
BRANCH  17  18
HETATM   18  N6  UNL     1      23.286  33.731  26.127  1.00  0.00    -0.457 NA
BRANCH  18  19
HETATM   19  C10 UNL     1      24.192  34.536  25.566  1.00  0.00     0.243 C 
BRANCH  19  20
HETATM   20  C11 UNL     1      23.549  35.609  24.666  1.00  0.00     0.197 C 
BRANCH  20  21
HETATM   21  O1  UNL     1      22.839  35.029  23.631  1.00  0.00    -0.398 OA
ATOM     22  H1  UNL     1      23.418  34.757  22.930  1.00  0.00     0.209 HD
ENDBRANCH  20  21
ENDBRANCH  19  20
ENDBRANCH  18  19
ENDBRANCH  17  18
ENDBRANCH  10  17
ENDBRANCH   7   8
ENDBRANCH   6   7
ENDBRANCH   4   6
BRANCH   1  23
HETATM   23  C2  UNL     1      14.668  37.018  22.195  1.00  0.00     0.125 A 
HETATM   24  N2  UNL     1      13.699  36.374  22.879  1.00  0.00    -0.177 N 
HETATM   25  C1  UNL     1      12.381  36.593  22.699  1.00  0.00     0.680 A 
ATOM     26  H2  UNL     1      13.981  35.682  23.573  1.00  0.00     0.185 HD
HETATM   27  N8  UNL     1      11.979  37.497  21.796  1.00  0.00    -0.156 N 
HETATM   28  C16 UNL     1      12.908  38.173  21.081  1.00  0.00     0.263 A 
ATOM     29  H8  UNL     1      10.985  37.674  21.648  1.00  0.00     0.187 HD
HETATM   30  C15 UNL     1      14.251  37.956  21.259  1.00  0.00     0.123 A 
HETATM   31  O4  UNL     1      12.495  39.027  20.227  1.00  0.00    -0.268 OA
BRANCH  25  32
HETATM   32  N1  UNL     1      11.503  35.930  23.408  1.00  0.00    -0.234 N 
ATOM     33  H12 UNL     1      10.505  36.032  23.222  1.00  0.00     0.174 HD
ATOM     34  H11 UNL     1      11.813  35.309  24.156  1.00  0.00     0.174 HD
ENDBRANCH  25  32
ENDBRANCH   1  23
TORSDOF 10
ENDMDL
