MODEL 1
REMARK VINA RESULT: -6.276806897      0.000      0.000
REMARK  10 active torsions:
REMARK  status: ('A' for Active; 'I' for Inactive)
REMARK    1  A    between atoms: O1_2  and  C2_3 
REMARK    2  A    between atoms: C2_3  and  C3_5 
REMARK    3  A    between atoms: C3_5  and  C5_7 
REMARK    4  A    between atoms: C3_5  and  S2_22 
REMARK    5  A    between atoms: C5_7  and  S1_8 
REMARK    6  A    between atoms: S1_8  and  C6_9 
REMARK    7  A    between atoms: C8_16  and  N3_17 
REMARK    8  A    between atoms: S2_22  and  C9_25 
REMARK    9  A    between atoms: C9_25  and  C12_28 
REMARK   10  A    between atoms: C12_28  and  O6_29 
ROOT
HETATM    1  C3  UNL     1      17.086  36.196  22.642  1.00  0.00     0.157 C 
HETATM    2  C4  UNL     1      17.621  37.446  21.991  1.00  0.00     0.044 C 
ENDROOT
BRANCH   1   3
HETATM    3  C2  UNL     1      17.534  34.993  21.908  1.00  0.00     0.282 C 
HETATM    4  O2  UNL     1      17.513  33.883  22.488  1.00  0.00    -0.263 OA
BRANCH   3   5
HETATM    5  O1  UNL     1      17.983  35.019  20.602  1.00  0.00    -0.325 OA
HETATM    6  C1  UNL     1      17.806  33.896  19.733  1.00  0.00     0.213 C 
ENDBRANCH   3   5
ENDBRANCH   1   3
BRANCH   1   7
HETATM    7  C5  UNL     1      15.557  36.326  22.569  1.00  0.00     0.118 C 
BRANCH   7   8
HETATM    8  S1  UNL     1      15.064  37.568  21.356  1.00  0.00    -0.091 SA
BRANCH   8   9
HETATM    9  C6  UNL     1      13.456  38.176  21.852  1.00  0.00     0.163 A 
HETATM   10  N1  UNL     1      13.086  39.461  21.720  1.00  0.00    -0.288 N 
HETATM   11  C7  UNL     1      11.878  39.921  22.091  1.00  0.00     0.340 A 
ATOM     12  H1  UNL     1      13.754  40.120  21.319  1.00  0.00     0.172 HD
HETATM   13  O3  UNL     1      11.590  41.137  21.942  1.00  0.00    -0.246 OA
HETATM   14  N2  UNL     1      10.972  39.082  22.624  1.00  0.00    -0.141 N 
HETATM   15  C8  UNL     1      11.318  37.794  22.765  1.00  0.00     0.681 A 
ATOM     16  H2  UNL     1      10.051  39.414  22.912  1.00  0.00     0.189 HD
HETATM   17  N4  UNL     1      12.527  37.343  22.392  1.00  0.00    -0.170 N 
ATOM     18  H4  UNL     1      12.752  36.356  22.517  1.00  0.00     0.186 HD
BRANCH  15  19
HETATM   19  N3  UNL     1      10.487  36.953  23.269  1.00  0.00    -0.234 N 
ATOM     20  H32 UNL     1       9.572  36.858  22.827  1.00  0.00     0.174 HD
ATOM     21  H31 UNL     1      10.747  36.401  24.088  1.00  0.00     0.174 HD
ENDBRANCH  15  19
ENDBRANCH   8   9
ENDBRANCH   7   8
ENDBRANCH   1   7
BRANCH   1  22
HETATM   22  S2  UNL     1      17.431  36.129  24.368  1.00  0.00     0.172 S 
HETATM   23  O4  UNL     1      16.724  37.287  25.019  1.00  0.00    -0.226 OA
HETATM   24  O5  UNL     1      16.831  34.879  24.918  1.00  0.00    -0.226 OA
BRANCH  22  25
HETATM   25  C9  UNL     1      19.116  36.194  24.788  1.00  0.00     0.079 C 
HETATM   26  C10 UNL     1      20.023  35.597  23.728  1.00  0.00     0.034 C 
HETATM   27  C11 UNL     1      19.483  37.687  24.849  1.00  0.00     0.034 C 
BRANCH  25  28
HETATM   28  C12 UNL     1      19.448  35.624  26.135  1.00  0.00     0.189 C 
BRANCH  28  29
HETATM   29  O6  UNL     1      18.382  35.942  27.011  1.00  0.00    -0.399 OA
ATOM     30  H6  UNL     1      18.698  35.832  27.900  1.00  0.00     0.209 HD
ENDBRANCH  28  29
ENDBRANCH  25  28
ENDBRANCH  22  25
ENDBRANCH   1  22
TORSDOF 10
ENDMDL
MODEL 2
REMARK VINA RESULT: -6.169416618      3.353      5.487
REMARK  10 active torsions:
REMARK  status: ('A' for Active; 'I' for Inactive)
REMARK    1  A    between atoms: O1_2  and  C2_3 
REMARK    2  A    between atoms: C2_3  and  C3_5 
REMARK    3  A    between atoms: C3_5  and  C5_7 
REMARK    4  A    between atoms: C3_5  and  S2_22 
REMARK    5  A    between atoms: C5_7  and  S1_8 
REMARK    6  A    between atoms: S1_8  and  C6_9 
REMARK    7  A    between atoms: C8_16  and  N3_17 
REMARK    8  A    between atoms: S2_22  and  C9_25 
REMARK    9  A    between atoms: C9_25  and  C12_28 
REMARK   10  A    between atoms: C12_28  and  O6_29 
ROOT
HETATM    1  C3  UNL     1      20.002  35.113  25.937  1.00  0.00     0.157 C 
HETATM    2  C4  UNL     1      19.006  35.818  26.820  1.00  0.00     0.044 C 
ENDROOT
BRANCH   1   3
HETATM    3  C2  UNL     1      20.920  36.086  25.307  1.00  0.00     0.282 C 
HETATM    4  O2  UNL     1      20.795  37.303  25.575  1.00  0.00    -0.263 OA
BRANCH   3   5
HETATM    5  O1  UNL     1      21.921  35.730  24.424  1.00  0.00    -0.325 OA
HETATM    6  C1  UNL     1      23.143  36.471  24.347  1.00  0.00     0.213 C 
ENDBRANCH   3   5
ENDBRANCH   1   3
BRANCH   1   7
HETATM    7  C5  UNL     1      19.160  34.403  24.865  1.00  0.00     0.118 C 
BRANCH   7   8
HETATM    8  S1  UNL     1      17.400  34.727  25.097  1.00  0.00    -0.091 SA
BRANCH   8   9
HETATM    9  C6  UNL     1      16.777  35.369  23.548  1.00  0.00     0.163 A 
HETATM   10  N1  UNL     1      17.226  34.957  22.350  1.00  0.00    -0.288 N 
HETATM   11  C7  UNL     1      16.760  35.437  21.183  1.00  0.00     0.340 A 
ATOM     12  H1  UNL     1      17.957  34.245  22.324  1.00  0.00     0.172 HD
HETATM   13  O3  UNL     1      17.221  35.011  20.094  1.00  0.00    -0.246 OA
HETATM   14  N2  UNL     1      15.798  36.377  21.179  1.00  0.00    -0.141 N 
HETATM   15  C8  UNL     1      15.333  36.804  22.362  1.00  0.00     0.681 A 
ATOM     16  H2  UNL     1      15.433  36.753  20.303  1.00  0.00     0.189 HD
HETATM   17  N4  UNL     1      15.804  36.320  23.522  1.00  0.00    -0.170 N 
ATOM     18  H4  UNL     1      15.425  36.671  24.401  1.00  0.00     0.186 HD
BRANCH  15  19
HETATM   19  N3  UNL     1      14.413  37.701  22.409  1.00  0.00    -0.234 N 
ATOM     20  H32 UNL     1      13.579  37.564  21.838  1.00  0.00     0.174 HD
ATOM     21  H31 UNL     1      14.526  38.521  23.006  1.00  0.00     0.174 HD
ENDBRANCH  15  19
ENDBRANCH   8   9
ENDBRANCH   7   8
ENDBRANCH   1   7
BRANCH   1  22
HETATM   22  S2  UNL     1      20.838  33.803  26.766  1.00  0.00     0.172 S 
HETATM   23  O4  UNL     1      21.213  32.776  25.731  1.00  0.00    -0.226 OA
HETATM   24  O5  UNL     1      22.108  34.341  27.335  1.00  0.00    -0.226 OA
BRANCH  22  25
HETATM   25  C9  UNL     1      19.927  33.024  28.024  1.00  0.00     0.079 C 
HETATM   26  C10 UNL     1      18.909  32.027  27.501  1.00  0.00     0.034 C 
HETATM   27  C11 UNL     1      20.938  32.192  28.832  1.00  0.00     0.034 C 
BRANCH  25  28
HETATM   28  C12 UNL     1      19.280  33.962  29.000  1.00  0.00     0.189 C 
BRANCH  28  29
HETATM   29  O6  UNL     1      19.515  33.457  30.302  1.00  0.00    -0.399 OA
ATOM     30  H6  UNL     1      20.220  33.966  30.685  1.00  0.00     0.209 HD
ENDBRANCH  28  29
ENDBRANCH  25  28
ENDBRANCH  22  25
ENDBRANCH   1  22
TORSDOF 10
ENDMDL
MODEL 3
REMARK VINA RESULT: -6.103010013      3.702      5.616
REMARK  10 active torsions:
REMARK  status: ('A' for Active; 'I' for Inactive)
REMARK    1  A    between atoms: O1_2  and  C2_3 
REMARK    2  A    between atoms: C2_3  and  C3_5 
REMARK    3  A    between atoms: C3_5  and  C5_7 
REMARK    4  A    between atoms: C3_5  and  S2_22 
REMARK    5  A    between atoms: C5_7  and  S1_8 
REMARK    6  A    between atoms: S1_8  and  C6_9 
REMARK    7  A    between atoms: C8_16  and  N3_17 
REMARK    8  A    between atoms: S2_22  and  C9_25 
REMARK    9  A    between atoms: C9_25  and  C12_28 
REMARK   10  A    between atoms: C12_28  and  O6_29 
ROOT
HETATM    1  C3  UNL     1      20.185  34.909  26.106  1.00  0.00     0.157 C 
HETATM    2  C4  UNL     1      19.925  36.281  26.672  1.00  0.00     0.044 C 
ENDROOT
BRANCH   1   3
HETATM    3  C2  UNL     1      21.428  34.902  25.305  1.00  0.00     0.282 C 
HETATM    4  O2  UNL     1      22.244  35.843  25.438  1.00  0.00    -0.263 OA
BRANCH   3   5
HETATM    5  O1  UNL     1      21.749  33.906  24.403  1.00  0.00    -0.325 OA
HETATM    6  C1  UNL     1      22.831  33.002  24.648  1.00  0.00     0.213 C 
ENDBRANCH   3   5
ENDBRANCH   1   3
BRANCH   1   7
HETATM    7  C5  UNL     1      18.973  34.605  25.211  1.00  0.00     0.118 C 
BRANCH   7   8
HETATM    8  S1  UNL     1      18.062  36.111  24.813  1.00  0.00    -0.091 SA
BRANCH   8   9
HETATM    9  C6  UNL     1      17.432  35.918  23.150  1.00  0.00     0.163 A 
HETATM   10  N1  UNL     1      16.388  36.619  22.675  1.00  0.00    -0.288 N 
HETATM   11  C7  UNL     1      15.912  36.477  21.426  1.00  0.00     0.340 A 
ATOM     12  H1  UNL     1      15.935  37.293  23.293  1.00  0.00     0.172 HD
HETATM   13  O3  UNL     1      14.931  37.163  21.040  1.00  0.00    -0.246 OA
HETATM   14  N2  UNL     1      16.484  35.598  20.583  1.00  0.00    -0.141 N 
HETATM   15  C8  UNL     1      17.527  34.887  21.033  1.00  0.00     0.681 A 
ATOM     16  H2  UNL     1      16.135  35.477  19.632  1.00  0.00     0.189 HD
HETATM   17  N4  UNL     1      17.997  35.035  22.282  1.00  0.00    -0.170 N 
ATOM     18  H4  UNL     1      18.792  34.474  22.587  1.00  0.00     0.186 HD
BRANCH  15  19
HETATM   19  N3  UNL     1      18.108  34.034  20.265  1.00  0.00    -0.234 N 
ATOM     20  H32 UNL     1      18.316  34.315  19.307  1.00  0.00     0.174 HD
ATOM     21  H31 UNL     1      18.349  33.108  20.617  1.00  0.00     0.174 HD
ENDBRANCH  15  19
ENDBRANCH   8   9
ENDBRANCH   7   8
ENDBRANCH   1   7
BRANCH   1  22
HETATM   22  S2  UNL     1      20.140  33.647  27.335  1.00  0.00     0.172 S 
HETATM   23  O4  UNL     1      19.864  32.342  26.637  1.00  0.00    -0.226 OA
HETATM   24  O5  UNL     1      21.495  33.541  27.949  1.00  0.00    -0.226 OA
BRANCH  22  25
HETATM   25  C9  UNL     1      18.956  33.876  28.585  1.00  0.00     0.079 C 
HETATM   26  C10 UNL     1      18.268  35.227  28.523  1.00  0.00     0.034 C 
HETATM   27  C11 UNL     1      17.849  32.840  28.319  1.00  0.00     0.034 C 
BRANCH  25  28
HETATM   28  C12 UNL     1      19.453  33.610  29.975  1.00  0.00     0.189 C 
BRANCH  28  29
HETATM   29  O6  UNL     1      18.645  34.352  30.870  1.00  0.00    -0.399 OA
ATOM     30  H6  UNL     1      18.128  33.733  31.372  1.00  0.00     0.209 HD
ENDBRANCH  28  29
ENDBRANCH  25  28
ENDBRANCH  22  25
ENDBRANCH   1  22
TORSDOF 10
ENDMDL
MODEL 4
REMARK VINA RESULT: -6.099853495      3.308      5.366
REMARK  10 active torsions:
REMARK  status: ('A' for Active; 'I' for Inactive)
REMARK    1  A    between atoms: O1_2  and  C2_3 
REMARK    2  A    between atoms: C2_3  and  C3_5 
REMARK    3  A    between atoms: C3_5  and  C5_7 
REMARK    4  A    between atoms: C3_5  and  S2_22 
REMARK    5  A    between atoms: C5_7  and  S1_8 
REMARK    6  A    between atoms: S1_8  and  C6_9 
REMARK    7  A    between atoms: C8_16  and  N3_17 
REMARK    8  A    between atoms: S2_22  and  C9_25 
REMARK    9  A    between atoms: C9_25  and  C12_28 
REMARK   10  A    between atoms: C12_28  and  O6_29 
ROOT
HETATM    1  C3  UNL     1      20.747  35.079  25.636  1.00  0.00     0.157 C 
HETATM    2  C4  UNL     1      20.578  36.437  26.267  1.00  0.00     0.044 C 
ENDROOT
BRANCH   1   3
HETATM    3  C2  UNL     1      21.994  35.024  24.844  1.00  0.00     0.282 C 
HETATM    4  O2  UNL     1      22.796  35.985  24.902  1.00  0.00    -0.263 OA
BRANCH   3   5
HETATM    5  O1  UNL     1      22.336  33.961  24.030  1.00  0.00    -0.325 OA
HETATM    6  C1  UNL     1      23.494  33.164  24.295  1.00  0.00     0.213 C 
ENDBRANCH   3   5
ENDBRANCH   1   3
BRANCH   1   7
HETATM    7  C5  UNL     1      19.526  34.905  24.718  1.00  0.00     0.118 C 
BRANCH   7   8
HETATM    8  S1  UNL     1      18.615  36.453  24.545  1.00  0.00    -0.091 SA
BRANCH   8   9
HETATM    9  C6  UNL     1      17.445  36.225  23.211  1.00  0.00     0.163 A 
HETATM   10  N1  UNL     1      17.759  35.611  22.057  1.00  0.00    -0.288 N 
HETATM   11  C7  UNL     1      16.882  35.438  21.052  1.00  0.00     0.340 A 
ATOM     12  H1  UNL     1      18.709  35.259  21.938  1.00  0.00     0.172 HD
HETATM   13  O3  UNL     1      17.236  34.855  19.996  1.00  0.00    -0.246 OA
HETATM   14  N2  UNL     1      15.621  35.890  21.174  1.00  0.00    -0.141 N 
HETATM   15  C8  UNL     1      15.283  36.506  22.316  1.00  0.00     0.681 A 
ATOM     16  H2  UNL     1      14.943  35.768  20.422  1.00  0.00     0.189 HD
HETATM   17  N4  UNL     1      16.165  36.675  23.315  1.00  0.00    -0.170 N 
ATOM     18  H4  UNL     1      15.869  37.149  24.167  1.00  0.00     0.186 HD
BRANCH  15  19
HETATM   19  N3  UNL     1      14.090  36.955  22.480  1.00  0.00    -0.234 N 
ATOM     20  H32 UNL     1      13.331  36.501  21.970  1.00  0.00     0.174 HD
ATOM     21  H31 UNL     1      13.919  37.742  23.106  1.00  0.00     0.174 HD
ENDBRANCH  15  19
ENDBRANCH   8   9
ENDBRANCH   7   8
ENDBRANCH   1   7
BRANCH   1  22
HETATM   22  S2  UNL     1      20.601  33.765  26.800  1.00  0.00     0.172 S 
HETATM   23  O4  UNL     1      20.605  32.471  26.029  1.00  0.00    -0.226 OA
HETATM   24  O5  UNL     1      21.816  33.767  27.665  1.00  0.00    -0.226 OA
BRANCH  22  25
HETATM   25  C9  UNL     1      19.181  33.817  27.799  1.00  0.00     0.079 C 
HETATM   26  C10 UNL     1      18.098  32.851  27.357  1.00  0.00     0.034 C 
HETATM   27  C11 UNL     1      19.620  33.332  29.192  1.00  0.00     0.034 C 
BRANCH  25  28
HETATM   28  C12 UNL     1      18.604  35.188  27.996  1.00  0.00     0.189 C 
BRANCH  28  29
HETATM   29  O6  UNL     1      17.833  35.164  29.183  1.00  0.00    -0.399 OA
ATOM     30  H6  UNL     1      18.084  35.918  29.704  1.00  0.00     0.209 HD
ENDBRANCH  28  29
ENDBRANCH  25  28
ENDBRANCH  22  25
ENDBRANCH   1  22
TORSDOF 10
ENDMDL
MODEL 5
REMARK VINA RESULT: -6.099516862      3.336      5.900
REMARK  10 active torsions:
REMARK  status: ('A' for Active; 'I' for Inactive)
REMARK    1  A    between atoms: O1_2  and  C2_3 
REMARK    2  A    between atoms: C2_3  and  C3_5 
REMARK    3  A    between atoms: C3_5  and  C5_7 
REMARK    4  A    between atoms: C3_5  and  S2_22 
REMARK    5  A    between atoms: C5_7  and  S1_8 
REMARK    6  A    between atoms: S1_8  and  C6_9 
REMARK    7  A    between atoms: C8_16  and  N3_17 
REMARK    8  A    between atoms: S2_22  and  C9_25 
REMARK    9  A    between atoms: C9_25  and  C12_28 
REMARK   10  A    between atoms: C12_28  and  O6_29 
ROOT
HETATM    1  C3  UNL     1      19.152  33.917  26.884  1.00  0.00     0.157 C 
HETATM    2  C4  UNL     1      18.459  32.585  26.755  1.00  0.00     0.044 C 
ENDROOT
BRANCH   1   3
HETATM    3  C2  UNL     1      18.866  34.528  28.200  1.00  0.00     0.282 C 
HETATM    4  O2  UNL     1      18.474  35.717  28.248  1.00  0.00    -0.263 OA
BRANCH   3   5
HETATM    5  O1  UNL     1      19.008  33.859  29.400  1.00  0.00    -0.325 OA
HETATM    6  C1  UNL     1      18.058  34.019  30.458  1.00  0.00     0.213 C 
ENDBRANCH   3   5
ENDBRANCH   1   3
BRANCH   1   7
HETATM    7  C5  UNL     1      18.571  34.785  25.757  1.00  0.00     0.118 C 
BRANCH   7   8
HETATM    8  S1  UNL     1      16.998  34.125  25.170  1.00  0.00    -0.091 SA
BRANCH   8   9
HETATM    9  C6  UNL     1      16.618  34.963  23.635  1.00  0.00     0.163 A 
HETATM   10  N1  UNL     1      17.217  34.663  22.469  1.00  0.00    -0.288 N 
HETATM   11  C7  UNL     1      16.935  35.290  21.313  1.00  0.00     0.340 A 
ATOM     12  H1  UNL     1      17.921  33.924  22.461  1.00  0.00     0.172 HD
HETATM   13  O3  UNL     1      17.530  34.965  20.254  1.00  0.00    -0.246 OA
HETATM   14  N2  UNL     1      16.014  36.270  21.287  1.00  0.00    -0.141 N 
HETATM   15  C8  UNL     1      15.402  36.587  22.437  1.00  0.00     0.681 A 
ATOM     16  H2  UNL     1      15.787  36.757  20.419  1.00  0.00     0.189 HD
HETATM   17  N4  UNL     1      15.690  35.956  23.587  1.00  0.00    -0.170 N 
ATOM     18  H4  UNL     1      15.203  36.227  24.441  1.00  0.00     0.186 HD
BRANCH  15  19
HETATM   19  N3  UNL     1      14.514  37.516  22.463  1.00  0.00    -0.234 N 
ATOM     20  H32 UNL     1      14.247  37.900  23.370  1.00  0.00     0.174 HD
ATOM     21  H31 UNL     1      14.097  37.852  21.594  1.00  0.00     0.174 HD
ENDBRANCH  15  19
ENDBRANCH   8   9
ENDBRANCH   7   8
ENDBRANCH   1   7
BRANCH   1  22
HETATM   22  S2  UNL     1      20.872  33.827  26.517  1.00  0.00     0.172 S 
HETATM   23  O4  UNL     1      21.616  33.800  27.826  1.00  0.00    -0.226 OA
HETATM   24  O5  UNL     1      21.139  32.531  25.830  1.00  0.00    -0.226 OA
BRANCH  22  25
HETATM   25  C9  UNL     1      21.489  35.131  25.548  1.00  0.00     0.079 C 
HETATM   26  C10 UNL     1      20.875  36.476  25.888  1.00  0.00     0.034 C 
HETATM   27  C11 UNL     1      22.981  35.259  25.906  1.00  0.00     0.034 C 
BRANCH  25  28
HETATM   28  C12 UNL     1      21.432  34.893  24.068  1.00  0.00     0.189 C 
BRANCH  28  29
HETATM   29  O6  UNL     1      22.493  34.018  23.731  1.00  0.00    -0.399 OA
ATOM     30  H6  UNL     1      22.274  33.605  22.905  1.00  0.00     0.209 HD
ENDBRANCH  28  29
ENDBRANCH  25  28
ENDBRANCH  22  25
ENDBRANCH   1  22
TORSDOF 10
ENDMDL
