MODEL 1
REMARK VINA RESULT: -6.790505883      0.000      0.000
REMARK  9 active torsions:
REMARK  status: ('A' for Active; 'I' for Inactive)
REMARK    1  A    between atoms: C2_3  and  N2_4 
REMARK    2  A    between atoms: N2_4  and  C3_6 
REMARK    3  A    between atoms: C3_6  and  C4_7 
REMARK    4  A    between atoms: C4_7  and  N3_8 
REMARK    5  A    between atoms: N3_8  and  C5_10 
REMARK    6  A    between atoms: C5_10  and  C6_11 
REMARK    7  A    between atoms: C6_11  and  O1_12 
REMARK    8  A    between atoms: C7_14  and  N4_15 
REMARK    9  A    between atoms: C11_22  and  N5_23 
ROOT
HETATM    1  C1  UNL     1      22.928  35.584  24.217  1.00  0.00     0.161 C 
HETATM    2  N1  UNL     1      22.215  34.930  25.289  1.00  0.00    -0.302 N 
HETATM    3  C2  UNL     1      20.893  35.038  25.408  1.00  0.00     0.141 A 
HETATM    4  C7  UNL     1      20.245  34.371  26.479  1.00  0.00     0.170 A 
HETATM    5  C8  UNL     1      20.992  33.626  27.373  1.00  0.00     0.131 A 
HETATM    6  C9  UNL     1      22.345  33.517  27.249  1.00  0.00     0.075 A 
HETATM    7  C10 UNL     1      22.926  34.184  26.193  1.00  0.00     0.259 A 
HETATM    8  O4  UNL     1      24.180  34.127  26.019  1.00  0.00    -0.267 OA
HETATM    9  C11 UNL     1      23.207  32.755  28.119  1.00  0.00     0.315 C 
HETATM   10  C12 UNL     1      22.623  31.635  28.854  1.00  0.00     0.266 C 
HETATM   11  O5  UNL     1      23.373  30.667  29.158  1.00  0.00    -0.270 OA
HETATM   12  N6  UNL     1      21.273  31.554  29.248  1.00  0.00    -0.248 N 
ATOM     13  H6  UNL     1      20.935  30.787  29.829  1.00  0.00     0.182 HD
HETATM   14  S1  UNL     1      20.224  32.798  28.712  1.00  0.00     0.268 S 
HETATM   15  O6  UNL     1      20.023  33.771  29.840  1.00  0.00    -0.200 OA
HETATM   16  O7  UNL     1      18.897  32.225  28.260  1.00  0.00    -0.200 OA
ENDROOT
BRANCH   3  17
HETATM   17  N2  UNL     1      20.052  35.783  24.558  1.00  0.00    -0.372 N 
ATOM     18  H2  UNL     1      19.706  35.259  23.754  1.00  0.00     0.161 HD
BRANCH  17  19
HETATM   19  C3  UNL     1      19.591  37.132  24.610  1.00  0.00     0.140 C 
BRANCH  19  20
HETATM   20  C4  UNL     1      18.196  37.262  23.981  1.00  0.00     0.133 C 
BRANCH  20  21
HETATM   21  N3  UNL     1      17.217  36.426  24.549  1.00  0.00    -0.418 N 
ATOM     22  H3  UNL     1      17.044  36.439  25.554  1.00  0.00     0.153 HD
BRANCH  21  23
HETATM   23  C5  UNL     1      16.477  35.567  23.701  1.00  0.00     0.139 C 
BRANCH  23  24
HETATM   24  C6  UNL     1      15.721  36.478  22.720  1.00  0.00     0.183 C 
BRANCH  24  25
HETATM   25  O1  UNL     1      14.412  36.043  22.515  1.00  0.00    -0.399 OA
ATOM     26  H1  UNL     1      13.810  36.772  22.424  1.00  0.00     0.209 HD
ENDBRANCH  24  25
ENDBRANCH  23  24
ENDBRANCH  21  23
ENDBRANCH  20  21
ENDBRANCH  19  20
ENDBRANCH  17  19
ENDBRANCH   3  17
BRANCH   4  27
HETATM   27  N4  UNL     1      18.853  34.445  26.658  1.00  0.00    -0.110 N 
HETATM   28  O2  UNL     1      18.038  33.683  26.109  1.00  0.00    -0.532 OA
HETATM   29  O3  UNL     1      18.365  35.429  27.506  1.00  0.00    -0.532 OA
ENDBRANCH   4  27
BRANCH   9  30
HETATM   30  N5  UNL     1      24.254  32.166  27.258  1.00  0.00    -0.062 N 
ATOM     31  H53 UNL     1      23.914  31.403  26.672  1.00  0.00     0.275 HD
ATOM     32  H52 UNL     1      24.551  32.783  26.503  1.00  0.00     0.275 HD
ATOM     33  H51 UNL     1      25.016  31.890  27.878  1.00  0.00     0.275 HD
ENDBRANCH   9  30
TORSDOF 9
ENDMDL
MODEL 2
REMARK VINA RESULT: -6.525093526      1.905      3.703
REMARK  9 active torsions:
REMARK  status: ('A' for Active; 'I' for Inactive)
REMARK    1  A    between atoms: C2_3  and  N2_4 
REMARK    2  A    between atoms: N2_4  and  C3_6 
REMARK    3  A    between atoms: C3_6  and  C4_7 
REMARK    4  A    between atoms: C4_7  and  N3_8 
REMARK    5  A    between atoms: N3_8  and  C5_10 
REMARK    6  A    between atoms: C5_10  and  C6_11 
REMARK    7  A    between atoms: C6_11  and  O1_12 
REMARK    8  A    between atoms: C7_14  and  N4_15 
REMARK    9  A    between atoms: C11_22  and  N5_23 
ROOT
HETATM    1  C1  UNL     1      16.753  35.100  24.804  1.00  0.00     0.161 C 
HETATM    2  N1  UNL     1      18.095  34.798  25.244  1.00  0.00    -0.302 N 
HETATM    3  C2  UNL     1      19.152  35.392  24.695  1.00  0.00     0.141 A 
HETATM    4  C7  UNL     1      20.448  35.059  25.169  1.00  0.00     0.170 A 
HETATM    5  C8  UNL     1      20.587  34.132  26.186  1.00  0.00     0.131 A 
HETATM    6  C9  UNL     1      19.502  33.526  26.746  1.00  0.00     0.075 A 
HETATM    7  C10 UNL     1      18.268  33.883  26.250  1.00  0.00     0.259 A 
HETATM    8  O4  UNL     1      17.217  33.357  26.724  1.00  0.00    -0.267 OA
HETATM    9  C11 UNL     1      19.543  32.560  27.817  1.00  0.00     0.315 C 
HETATM   10  C12 UNL     1      20.697  32.579  28.714  1.00  0.00     0.266 C 
HETATM   11  O5  UNL     1      20.535  32.180  29.899  1.00  0.00    -0.270 OA
HETATM   12  N6  UNL     1      21.985  33.017  28.350  1.00  0.00    -0.248 N 
ATOM     13  H6  UNL     1      22.774  32.934  28.991  1.00  0.00     0.182 HD
HETATM   14  S1  UNL     1      22.172  33.693  26.787  1.00  0.00     0.268 S 
HETATM   15  O6  UNL     1      22.766  32.648  25.885  1.00  0.00    -0.200 OA
HETATM   16  O7  UNL     1      23.056  34.922  26.834  1.00  0.00    -0.200 OA
ENDROOT
BRANCH   3  17
HETATM   17  N2  UNL     1      19.112  36.335  23.649  1.00  0.00    -0.372 N 
ATOM     18  H2  UNL     1      19.389  35.959  22.741  1.00  0.00     0.161 HD
BRANCH  17  19
HETATM   19  C3  UNL     1      18.759  37.716  23.618  1.00  0.00     0.140 C 
BRANCH  19  20
HETATM   20  C4  UNL     1      17.450  37.933  22.844  1.00  0.00     0.133 C 
BRANCH  20  21
HETATM   21  N3  UNL     1      17.255  37.051  21.765  1.00  0.00    -0.418 N 
ATOM     22  H3  UNL     1      18.025  36.479  21.416  1.00  0.00     0.153 HD
BRANCH  21  23
HETATM   23  C5  UNL     1      15.972  36.970  21.171  1.00  0.00     0.139 C 
BRANCH  23  24
HETATM   24  C6  UNL     1      14.960  37.222  22.301  1.00  0.00     0.183 C 
BRANCH  24  25
HETATM   25  O1  UNL     1      14.151  36.108  22.527  1.00  0.00    -0.399 OA
ATOM     26  H1  UNL     1      14.654  35.366  22.840  1.00  0.00     0.209 HD
ENDBRANCH  24  25
ENDBRANCH  23  24
ENDBRANCH  21  23
ENDBRANCH  20  21
ENDBRANCH  19  20
ENDBRANCH  17  19
ENDBRANCH   3  17
BRANCH   4  27
HETATM   27  N4  UNL     1      21.603  35.652  24.631  1.00  0.00    -0.110 N 
HETATM   28  O2  UNL     1      22.355  35.096  23.812  1.00  0.00    -0.532 OA
HETATM   29  O3  UNL     1      21.915  36.940  25.041  1.00  0.00    -0.532 OA
ENDBRANCH   4  27
BRANCH   9  30
HETATM   30  N5  UNL     1      18.368  32.833  28.671  1.00  0.00    -0.062 N 
ATOM     31  H53 UNL     1      18.363  32.295  29.537  1.00  0.00     0.275 HD
ATOM     32  H52 UNL     1      18.385  33.759  29.098  1.00  0.00     0.275 HD
ATOM     33  H51 UNL     1      17.546  32.672  28.089  1.00  0.00     0.275 HD
ENDBRANCH   9  30
TORSDOF 9
ENDMDL
MODEL 3
REMARK VINA RESULT: -6.483188749      1.518      3.406
REMARK  9 active torsions:
REMARK  status: ('A' for Active; 'I' for Inactive)
REMARK    1  A    between atoms: C2_3  and  N2_4 
REMARK    2  A    between atoms: N2_4  and  C3_6 
REMARK    3  A    between atoms: C3_6  and  C4_7 
REMARK    4  A    between atoms: C4_7  and  N3_8 
REMARK    5  A    between atoms: N3_8  and  C5_10 
REMARK    6  A    between atoms: C5_10  and  C6_11 
REMARK    7  A    between atoms: C6_11  and  O1_12 
REMARK    8  A    between atoms: C7_14  and  N4_15 
REMARK    9  A    between atoms: C11_22  and  N5_23 
ROOT
HETATM    1  C1  UNL     1      18.335  35.288  27.189  1.00  0.00     0.161 C 
HETATM    2  N1  UNL     1      19.669  34.819  26.899  1.00  0.00    -0.302 N 
HETATM    3  C2  UNL     1      20.409  35.382  25.946  1.00  0.00     0.141 A 
HETATM    4  C7  UNL     1      21.715  34.882  25.707  1.00  0.00     0.170 A 
HETATM    5  C8  UNL     1      22.193  33.827  26.463  1.00  0.00     0.131 A 
HETATM    6  C9  UNL     1      21.433  33.252  27.438  1.00  0.00     0.075 A 
HETATM    7  C10 UNL     1      20.173  33.774  27.630  1.00  0.00     0.259 A 
HETATM    8  O4  UNL     1      19.413  33.286  28.520  1.00  0.00    -0.267 OA
HETATM    9  C11 UNL     1      21.846  32.161  28.287  1.00  0.00     0.315 C 
HETATM   10  C12 UNL     1      23.278  31.969  28.508  1.00  0.00     0.266 C 
HETATM   11  O5  UNL     1      23.646  31.441  29.593  1.00  0.00    -0.270 OA
HETATM   12  N6  UNL     1      24.285  32.335  27.594  1.00  0.00    -0.248 N 
ATOM     13  H6  UNL     1      25.264  32.105  27.763  1.00  0.00     0.182 HD
HETATM   14  S1  UNL     1      23.797  33.181  26.187  1.00  0.00     0.268 S 
HETATM   15  O6  UNL     1      23.743  32.209  25.042  1.00  0.00    -0.200 OA
HETATM   16  O7  UNL     1      24.755  34.313  25.880  1.00  0.00    -0.200 OA
ENDROOT
BRANCH   3  17
HETATM   17  N2  UNL     1      20.005  36.448  25.117  1.00  0.00    -0.372 N 
ATOM     18  H2  UNL     1      20.468  37.333  25.326  1.00  0.00     0.161 HD
BRANCH  17  19
HETATM   19  C3  UNL     1      19.072  36.523  24.042  1.00  0.00     0.140 C 
BRANCH  19  20
HETATM   20  C4  UNL     1      18.043  37.638  24.282  1.00  0.00     0.133 C 
BRANCH  20  21
HETATM   21  N3  UNL     1      16.713  37.192  24.398  1.00  0.00    -0.418 N 
ATOM     22  H3  UNL     1      16.063  37.660  25.029  1.00  0.00     0.153 HD
BRANCH  21  23
HETATM   23  C5  UNL     1      16.294  36.084  23.623  1.00  0.00     0.139 C 
BRANCH  23  24
HETATM   24  C6  UNL     1      15.409  36.654  22.501  1.00  0.00     0.183 C 
BRANCH  24  25
HETATM   25  O1  UNL     1      14.152  36.049  22.477  1.00  0.00    -0.399 OA
ATOM     26  H1  UNL     1      13.582  36.397  23.152  1.00  0.00     0.209 HD
ENDBRANCH  24  25
ENDBRANCH  23  24
ENDBRANCH  21  23
ENDBRANCH  20  21
ENDBRANCH  19  20
ENDBRANCH  17  19
ENDBRANCH   3  17
BRANCH   4  27
HETATM   27  N4  UNL     1      22.545  35.435  24.716  1.00  0.00    -0.110 N 
HETATM   28  O2  UNL     1      22.810  34.876  23.637  1.00  0.00    -0.532 OA
HETATM   29  O3  UNL     1      23.095  36.685  24.962  1.00  0.00    -0.532 OA
ENDBRANCH   4  27
BRANCH   9  30
HETATM   30  N5  UNL     1      21.267  32.428  29.620  1.00  0.00    -0.062 N 
ATOM     31  H53 UNL     1      21.229  33.420  29.854  1.00  0.00     0.275 HD
ATOM     32  H52 UNL     1      20.265  32.247  29.669  1.00  0.00     0.275 HD
ATOM     33  H51 UNL     1      21.810  31.876  30.285  1.00  0.00     0.275 HD
ENDBRANCH   9  30
TORSDOF 9
ENDMDL
MODEL 4
REMARK VINA RESULT: -6.467260135      1.541      1.589
REMARK  9 active torsions:
REMARK  status: ('A' for Active; 'I' for Inactive)
REMARK    1  A    between atoms: C2_3  and  N2_4 
REMARK    2  A    between atoms: N2_4  and  C3_6 
REMARK    3  A    between atoms: C3_6  and  C4_7 
REMARK    4  A    between atoms: C4_7  and  N3_8 
REMARK    5  A    between atoms: N3_8  and  C5_10 
REMARK    6  A    between atoms: C5_10  and  C6_11 
REMARK    7  A    between atoms: C6_11  and  O1_12 
REMARK    8  A    between atoms: C7_14  and  N4_15 
REMARK    9  A    between atoms: C11_22  and  N5_23 
ROOT
HETATM    1  C1  UNL     1      22.326  35.850  24.422  1.00  0.00     0.161 C 
HETATM    2  N1  UNL     1      21.778  35.098  25.527  1.00  0.00    -0.302 N 
HETATM    3  C2  UNL     1      20.481  35.148  25.821  1.00  0.00     0.141 A 
HETATM    4  C7  UNL     1      19.996  34.385  26.915  1.00  0.00     0.170 A 
HETATM    5  C8  UNL     1      20.874  33.609  27.650  1.00  0.00     0.131 A 
HETATM    6  C9  UNL     1      22.203  33.560  27.347  1.00  0.00     0.075 A 
HETATM    7  C10 UNL     1      22.622  34.319  26.276  1.00  0.00     0.259 A 
HETATM    8  O4  UNL     1      23.844  34.321  25.940  1.00  0.00    -0.267 OA
HETATM    9  C11 UNL     1      23.192  32.773  28.042  1.00  0.00     0.315 C 
HETATM   10  C12 UNL     1      22.740  31.584  28.762  1.00  0.00     0.266 C 
HETATM   11  O5  UNL     1      23.550  30.627  28.897  1.00  0.00    -0.270 OA
HETATM   12  N6  UNL     1      21.456  31.426  29.318  1.00  0.00    -0.248 N 
ATOM     13  H6  UNL     1      21.218  30.609  29.881  1.00  0.00     0.182 HD
HETATM   14  S1  UNL     1      20.311  32.663  29.012  1.00  0.00     0.268 S 
HETATM   15  O6  UNL     1      20.231  33.549  30.224  1.00  0.00    -0.200 OA
HETATM   16  O7  UNL     1      18.953  32.073  28.693  1.00  0.00    -0.200 OA
ENDROOT
BRANCH   3  17
HETATM   17  N2  UNL     1      19.515  35.916  25.142  1.00  0.00    -0.372 N 
ATOM     18  H2  UNL     1      19.142  36.692  25.691  1.00  0.00     0.161 HD
BRANCH  17  19
HETATM   19  C3  UNL     1      18.959  35.816  23.833  1.00  0.00     0.140 C 
BRANCH  19  20
HETATM   20  C4  UNL     1      17.475  35.428  23.892  1.00  0.00     0.133 C 
BRANCH  20  21
HETATM   21  N3  UNL     1      17.011  34.710  22.774  1.00  0.00    -0.418 N 
ATOM     22  H3  UNL     1      16.502  33.835  22.894  1.00  0.00     0.153 HD
BRANCH  21  23
HETATM   23  C5  UNL     1      17.264  35.224  21.479  1.00  0.00     0.139 C 
BRANCH  23  24
HETATM   24  C6  UNL     1      17.626  34.016  20.600  1.00  0.00     0.183 C 
BRANCH  24  25
HETATM   25  O1  UNL     1      18.512  34.367  19.580  1.00  0.00    -0.399 OA
ATOM     26  H1  UNL     1      18.304  33.923  18.766  1.00  0.00     0.209 HD
ENDBRANCH  24  25
ENDBRANCH  23  24
ENDBRANCH  21  23
ENDBRANCH  20  21
ENDBRANCH  19  20
ENDBRANCH  17  19
ENDBRANCH   3  17
BRANCH   4  27
HETATM   27  N4  UNL     1      18.638  34.394  27.275  1.00  0.00    -0.110 N 
HETATM   28  O2  UNL     1      17.780  33.644  26.777  1.00  0.00    -0.532 OA
HETATM   29  O3  UNL     1      18.237  35.295  28.251  1.00  0.00    -0.532 OA
ENDBRANCH   4  27
BRANCH   9  30
HETATM   30  N5  UNL     1      24.134  32.284  27.014  1.00  0.00    -0.062 N 
ATOM     31  H53 UNL     1      24.110  32.828  26.151  1.00  0.00     0.275 HD
ATOM     32  H52 UNL     1      25.112  32.458  27.245  1.00  0.00     0.275 HD
ATOM     33  H51 UNL     1      23.921  31.296  26.874  1.00  0.00     0.275 HD
ENDBRANCH   9  30
TORSDOF 9
ENDMDL
MODEL 5
REMARK VINA RESULT: -6.358022642      2.082      3.813
REMARK  9 active torsions:
REMARK  status: ('A' for Active; 'I' for Inactive)
REMARK    1  A    between atoms: C2_3  and  N2_4 
REMARK    2  A    between atoms: N2_4  and  C3_6 
REMARK    3  A    between atoms: C3_6  and  C4_7 
REMARK    4  A    between atoms: C4_7  and  N3_8 
REMARK    5  A    between atoms: N3_8  and  C5_10 
REMARK    6  A    between atoms: C5_10  and  C6_11 
REMARK    7  A    between atoms: C6_11  and  O1_12 
REMARK    8  A    between atoms: C7_14  and  N4_15 
REMARK    9  A    between atoms: C11_22  and  N5_23 
ROOT
HETATM    1  C1  UNL     1      16.731  35.105  24.787  1.00  0.00     0.161 C 
HETATM    2  N1  UNL     1      18.073  34.806  25.229  1.00  0.00    -0.302 N 
HETATM    3  C2  UNL     1      19.130  35.400  24.680  1.00  0.00     0.141 A 
HETATM    4  C7  UNL     1      20.426  35.070  25.157  1.00  0.00     0.170 A 
HETATM    5  C8  UNL     1      20.564  34.145  26.175  1.00  0.00     0.131 A 
HETATM    6  C9  UNL     1      19.479  33.538  26.735  1.00  0.00     0.075 A 
HETATM    7  C10 UNL     1      18.246  33.893  26.237  1.00  0.00     0.259 A 
HETATM    8  O4  UNL     1      17.194  33.366  26.711  1.00  0.00    -0.267 OA
HETATM    9  C11 UNL     1      19.520  32.574  27.808  1.00  0.00     0.315 C 
HETATM   10  C12 UNL     1      20.672  32.597  28.707  1.00  0.00     0.266 C 
HETATM   11  O5  UNL     1      20.509  32.199  29.892  1.00  0.00    -0.270 OA
HETATM   12  N6  UNL     1      21.961  33.035  28.344  1.00  0.00    -0.248 N 
ATOM     13  H6  UNL     1      22.749  32.955  28.987  1.00  0.00     0.182 HD
HETATM   14  S1  UNL     1      22.149  33.708  26.780  1.00  0.00     0.268 S 
HETATM   15  O6  UNL     1      22.746  32.663  25.881  1.00  0.00    -0.200 OA
HETATM   16  O7  UNL     1      23.031  34.939  26.826  1.00  0.00    -0.200 OA
ENDROOT
BRANCH   3  17
HETATM   17  N2  UNL     1      19.090  36.341  23.632  1.00  0.00    -0.372 N 
ATOM     18  H2  UNL     1      19.362  35.961  22.724  1.00  0.00     0.161 HD
BRANCH  17  19
HETATM   19  C3  UNL     1      18.743  37.723  23.600  1.00  0.00     0.140 C 
BRANCH  19  20
HETATM   20  C4  UNL     1      17.380  37.933  22.925  1.00  0.00     0.133 C 
BRANCH  20  21
HETATM   21  N3  UNL     1      17.259  37.343  21.653  1.00  0.00    -0.418 N 
ATOM     22  H3  UNL     1      17.973  37.494  20.941  1.00  0.00     0.153 HD
BRANCH  21  23
HETATM   23  C5  UNL     1      16.128  36.535  21.379  1.00  0.00     0.139 C 
BRANCH  23  24
HETATM   24  C6  UNL     1      16.674  35.161  20.957  1.00  0.00     0.183 C 
BRANCH  24  25
HETATM   25  O1  UNL     1      18.069  35.132  20.972  1.00  0.00    -0.399 OA
ATOM     26  H1  UNL     1      18.439  35.729  20.333  1.00  0.00     0.209 HD
ENDBRANCH  24  25
ENDBRANCH  23  24
ENDBRANCH  21  23
ENDBRANCH  20  21
ENDBRANCH  19  20
ENDBRANCH  17  19
ENDBRANCH   3  17
BRANCH   4  27
HETATM   27  N4  UNL     1      21.581  35.663  24.620  1.00  0.00    -0.110 N 
HETATM   28  O2  UNL     1      22.334  35.107  23.801  1.00  0.00    -0.532 OA
HETATM   29  O3  UNL     1      21.892  36.952  25.029  1.00  0.00    -0.532 OA
ENDBRANCH   4  27
BRANCH   9  30
HETATM   30  N5  UNL     1      18.343  32.848  28.660  1.00  0.00    -0.062 N 
ATOM     31  H53 UNL     1      17.921  32.005  29.050  1.00  0.00     0.275 HD
ATOM     32  H52 UNL     1      18.580  33.292  29.547  1.00  0.00     0.275 HD
ATOM     33  H51 UNL     1      17.699  33.397  28.092  1.00  0.00     0.275 HD
ENDBRANCH   9  30
TORSDOF 9
ENDMDL
