MODEL 1
REMARK VINA RESULT: -7.426955669      0.000      0.000
REMARK  11 active torsions:
REMARK  status: ('A' for Active; 'I' for Inactive)
REMARK    1  A    between atoms: C2_2  and  C3_3 
REMARK    2  A    between atoms: C3_3  and  C4_4 
REMARK    3  A    between atoms: C13_16  and  N2_17 
REMARK    4  A    between atoms: N2_17  and  C14_19 
REMARK    5  A    between atoms: C14_19  and  C15_20 
REMARK    6  A    between atoms: C15_20  and  O1_21 
REMARK    7  A    between atoms: C16_25  and  N4_26 
REMARK    8  A    between atoms: N4_26  and  C17_28 
REMARK    9  A    between atoms: C21_32  and  C22_33 
REMARK       I    between atoms: C22_33  and  N5_35 
REMARK   10  A    between atoms: N5_35  and  S2_37 
REMARK   11  A    between atoms: S2_37  and  C23_40 
ROOT
HETATM    1  C1  UNL     1      15.143  37.310  14.777  1.00  0.00     0.023 C 
HETATM    2  C2  UNL     1      14.453  38.601  14.409  1.00  0.00     0.008 C 
HETATM    3  C10 UNL     1      13.603  39.103  15.563  1.00  0.00     0.134 C 
HETATM    4  N1  UNL     1      12.350  39.520  14.974  1.00  0.00    -0.385 N 
ATOM      5  H1  UNL     1      11.703  40.209  15.358  1.00  0.00     0.159 HD
HETATM    6  C11 UNL     1      12.181  38.782  13.745  1.00  0.00     0.086 A 
HETATM    7  C12 UNL     1      13.392  38.248  13.401  1.00  0.00     0.026 A 
HETATM    8  S1  UNL     1      13.381  37.326  11.942  1.00  0.00    -0.056 SA
HETATM    9  C13 UNL     1      11.844  37.271  11.221  1.00  0.00     0.146 A 
HETATM   10  N3  UNL     1      10.884  37.939  11.880  1.00  0.00    -0.321 N 
ATOM     11  H3  UNL     1       9.953  37.917  11.465  1.00  0.00     0.169 HD
HETATM   12  C16 UNL     1      11.006  38.626  13.015  1.00  0.00     0.131 A 
ENDROOT
BRANCH  12  13
HETATM   13  N4  UNL     1       9.949  39.188  13.487  1.00  0.00    -0.370 N 
ATOM     14  H4  UNL     1       9.642  38.853  14.400  1.00  0.00     0.161 HD
BRANCH  13  15
HETATM   15  C17 UNL     1       9.146  40.217  12.905  1.00  0.00     0.084 C 
HETATM   16  C18 UNL     1       8.024  40.618  13.815  1.00  0.00     0.025 C 
HETATM   17  C19 UNL     1       8.317  41.756  14.719  1.00  0.00     0.003 C 
HETATM   18  C20 UNL     1       9.039  42.896  14.101  1.00  0.00     0.014 C 
HETATM   19  C21 UNL     1      10.363  42.330  13.555  1.00  0.00     0.081 C 
HETATM   20  C24 UNL     1       9.979  41.400  12.449  1.00  0.00     0.039 C 
BRANCH  19  21
HETATM   21  C22 UNL     1      11.205  43.427  13.040  1.00  0.00     0.235 C 
HETATM   22  O2  UNL     1      11.970  44.020  13.861  1.00  0.00    -0.272 OA
HETATM   23  N5  UNL     1      11.206  43.844  11.705  1.00  0.00    -0.249 N 
ATOM     24  H5  UNL     1      10.581  43.343  11.074  1.00  0.00     0.181 HD
BRANCH  23  25
HETATM   25  S2  UNL     1      12.131  45.092  11.014  1.00  0.00     0.294 S 
HETATM   26  O3  UNL     1      12.052  46.361  11.847  1.00  0.00    -0.200 OA
HETATM   27  O4  UNL     1      11.651  45.413   9.630  1.00  0.00    -0.200 OA
BRANCH  25  28
HETATM   28  C23 UNL     1      13.854  44.691  10.903  1.00  0.00     0.494 C 
HETATM   29  F1  UNL     1      14.007  43.313  10.972  1.00  0.00    -0.195 F 
HETATM   30  F2  UNL     1      14.372  45.069   9.665  1.00  0.00    -0.195 F 
ENDBRANCH  25  28
ENDBRANCH  23  25
ENDBRANCH  19  21
ENDBRANCH  13  15
ENDBRANCH  12  13
BRANCH   9  31
HETATM   31  N2  UNL     1      11.537  36.655  10.132  1.00  0.00    -0.368 N 
ATOM     32  H2  UNL     1      10.610  36.818   9.740  1.00  0.00     0.161 HD
BRANCH  31  33
HETATM   33  C14 UNL     1      12.406  35.762   9.436  1.00  0.00     0.147 C 
BRANCH  33  34
HETATM   34  C15 UNL     1      12.112  35.698   7.950  1.00  0.00     0.183 C 
BRANCH  34  35
HETATM   35  O1  UNL     1      10.825  35.296   7.672  1.00  0.00    -0.399 OA
ATOM     36  H1  UNL     1      10.781  34.425   7.295  1.00  0.00     0.209 HD
ENDBRANCH  34  35
ENDBRANCH  33  34
ENDBRANCH  31  33
ENDBRANCH   9  31
BRANCH   2  37
HETATM   37  C3  UNL     1      15.367  39.615  13.874  1.00  0.00     0.021 C 
BRANCH  37  38
HETATM   38  C4  UNL     1      15.654  40.857  14.596  1.00  0.00    -0.013 C 
HETATM   39  C5  UNL     1      17.018  41.379  14.723  1.00  0.00     0.005 C 
HETATM   40  C6  UNL     1      16.964  42.502  15.792  1.00  0.00     0.000 C 
HETATM   41  C7  UNL     1      15.866  43.475  15.549  1.00  0.00     0.000 C 
HETATM   42  C8  UNL     1      15.371  43.323  14.143  1.00  0.00     0.000 C 
HETATM   43  C9  UNL     1      14.853  41.959  13.843  1.00  0.00     0.005 C 
ENDBRANCH  37  38
ENDBRANCH   2  37
TORSDOF 11
ENDMDL
MODEL 2
REMARK VINA RESULT: -7.309556837      5.374      7.124
REMARK  11 active torsions:
REMARK  status: ('A' for Active; 'I' for Inactive)
REMARK    1  A    between atoms: C2_2  and  C3_3 
REMARK    2  A    between atoms: C3_3  and  C4_4 
REMARK    3  A    between atoms: C13_16  and  N2_17 
REMARK    4  A    between atoms: N2_17  and  C14_19 
REMARK    5  A    between atoms: C14_19  and  C15_20 
REMARK    6  A    between atoms: C15_20  and  O1_21 
REMARK    7  A    between atoms: C16_25  and  N4_26 
REMARK    8  A    between atoms: N4_26  and  C17_28 
REMARK    9  A    between atoms: C21_32  and  C22_33 
REMARK       I    between atoms: C22_33  and  N5_35 
REMARK   10  A    between atoms: N5_35  and  S2_37 
REMARK   11  A    between atoms: S2_37  and  C23_40 
ROOT
HETATM    1  C1  UNL     1      15.028  36.850  14.395  1.00  0.00     0.023 C 
HETATM    2  C2  UNL     1      14.266  38.107  14.053  1.00  0.00     0.008 C 
HETATM    3  C10 UNL     1      13.386  38.534  15.214  1.00  0.00     0.134 C 
HETATM    4  N1  UNL     1      12.112  38.889  14.630  1.00  0.00    -0.385 N 
ATOM      5  H1  UNL     1      11.425  39.531  15.026  1.00  0.00     0.159 HD
HETATM    6  C11 UNL     1      11.988  38.168  13.385  1.00  0.00     0.086 A 
HETATM    7  C12 UNL     1      13.229  37.714  13.034  1.00  0.00     0.026 A 
HETATM    8  S1  UNL     1      13.275  36.823  11.556  1.00  0.00    -0.056 SA
HETATM    9  C13 UNL     1      11.744  36.694  10.829  1.00  0.00     0.146 A 
HETATM   10  N3  UNL     1      10.746  37.291  11.500  1.00  0.00    -0.321 N 
ATOM     11  H3  UNL     1       9.819  37.224  11.081  1.00  0.00     0.169 HD
HETATM   12  C16 UNL     1      10.825  37.960  12.649  1.00  0.00     0.131 A 
ENDROOT
BRANCH  12  13
HETATM   13  N4  UNL     1       9.736  38.449  13.129  1.00  0.00    -0.370 N 
ATOM     14  H4  UNL     1       9.247  39.112  12.528  1.00  0.00     0.161 HD
BRANCH  13  15
HETATM   15  C17 UNL     1       9.119  38.188  14.391  1.00  0.00     0.084 C 
HETATM   16  C18 UNL     1       8.232  39.322  14.813  1.00  0.00     0.025 C 
HETATM   17  C19 UNL     1       6.809  39.195  14.415  1.00  0.00     0.003 C 
HETATM   18  C20 UNL     1       6.209  37.851  14.599  1.00  0.00     0.014 C 
HETATM   19  C21 UNL     1       7.057  36.875  13.761  1.00  0.00     0.081 C 
HETATM   20  C24 UNL     1       8.403  36.850  14.410  1.00  0.00     0.039 C 
BRANCH  19  21
HETATM   21  C22 UNL     1       6.447  35.532  13.781  1.00  0.00     0.235 C 
HETATM   22  O2  UNL     1       5.739  35.190  12.784  1.00  0.00    -0.272 OA
HETATM   23  N5  UNL     1       6.607  34.623  14.831  1.00  0.00    -0.249 N 
ATOM     24  H5  UNL     1       7.184  34.931  15.612  1.00  0.00     0.181 HD
BRANCH  23  25
HETATM   25  S2  UNL     1       5.948  33.060  14.952  1.00  0.00     0.294 S 
HETATM   26  O3  UNL     1       6.515  32.316  16.151  1.00  0.00    -0.200 OA
HETATM   27  O4  UNL     1       6.244  32.255  13.723  1.00  0.00    -0.200 OA
BRANCH  25  28
HETATM   28  C23 UNL     1       4.189  33.070  15.175  1.00  0.00     0.494 C 
HETATM   29  F1  UNL     1       3.871  32.358  16.323  1.00  0.00    -0.195 F 
HETATM   30  F2  UNL     1       3.726  34.367  15.392  1.00  0.00    -0.195 F 
ENDBRANCH  25  28
ENDBRANCH  23  25
ENDBRANCH  19  21
ENDBRANCH  13  15
ENDBRANCH  12  13
BRANCH   9  31
HETATM   31  N2  UNL     1      11.476  36.085   9.727  1.00  0.00    -0.368 N 
ATOM     32  H2  UNL     1      10.499  36.031   9.440  1.00  0.00     0.161 HD
BRANCH  31  33
HETATM   33  C14 UNL     1      12.452  35.481   8.878  1.00  0.00     0.147 C 
BRANCH  33  34
HETATM   34  C15 UNL     1      12.137  35.656   7.406  1.00  0.00     0.183 C 
BRANCH  34  35
HETATM   35  O1  UNL     1      12.904  34.853   6.592  1.00  0.00    -0.399 OA
ATOM     36  H1  UNL     1      12.961  35.176   5.700  1.00  0.00     0.209 HD
ENDBRANCH  34  35
ENDBRANCH  33  34
ENDBRANCH  31  33
ENDBRANCH   9  31
BRANCH   2  37
HETATM   37  C3  UNL     1      15.120  39.182  13.542  1.00  0.00     0.021 C 
BRANCH  37  38
HETATM   38  C4  UNL     1      15.279  40.450  14.258  1.00  0.00    -0.013 C 
HETATM   39  C5  UNL     1      16.596  41.057  14.472  1.00  0.00     0.005 C 
HETATM   40  C6  UNL     1      16.399  42.191  15.512  1.00  0.00     0.000 C 
HETATM   41  C7  UNL     1      15.265  43.091  15.172  1.00  0.00     0.000 C 
HETATM   42  C8  UNL     1      14.883  42.888  13.738  1.00  0.00     0.000 C 
HETATM   43  C9  UNL     1      14.470  41.490  13.428  1.00  0.00     0.005 C 
ENDBRANCH  37  38
ENDBRANCH   2  37
TORSDOF 11
ENDMDL
MODEL 3
REMARK VINA RESULT: -7.293976826      6.076      8.653
REMARK  11 active torsions:
REMARK  status: ('A' for Active; 'I' for Inactive)
REMARK    1  A    between atoms: C2_2  and  C3_3 
REMARK    2  A    between atoms: C3_3  and  C4_4 
REMARK    3  A    between atoms: C13_16  and  N2_17 
REMARK    4  A    between atoms: N2_17  and  C14_19 
REMARK    5  A    between atoms: C14_19  and  C15_20 
REMARK    6  A    between atoms: C15_20  and  O1_21 
REMARK    7  A    between atoms: C16_25  and  N4_26 
REMARK    8  A    between atoms: N4_26  and  C17_28 
REMARK    9  A    between atoms: C21_32  and  C22_33 
REMARK       I    between atoms: C22_33  and  N5_35 
REMARK   10  A    between atoms: N5_35  and  S2_37 
REMARK   11  A    between atoms: S2_37  and  C23_40 
ROOT
HETATM    1  C1  UNL     1      16.855  37.264  21.209  1.00  0.00     0.023 C 
HETATM    2  C2  UNL     1      17.567  37.491  19.898  1.00  0.00     0.008 C 
HETATM    3  C10 UNL     1      17.030  38.731  19.203  1.00  0.00     0.134 C 
HETATM    4  N1  UNL     1      16.864  38.361  17.815  1.00  0.00    -0.385 N 
ATOM      5  H1  UNL     1      16.870  38.996  17.017  1.00  0.00     0.159 HD
HETATM    6  C11 UNL     1      16.688  36.929  17.765  1.00  0.00     0.086 A 
HETATM    7  C12 UNL     1      17.096  36.409  18.962  1.00  0.00     0.026 A 
HETATM    8  S1  UNL     1      16.958  34.693  19.084  1.00  0.00    -0.056 SA
HETATM    9  C13 UNL     1      16.335  33.991  17.668  1.00  0.00     0.146 A 
HETATM   10  N3  UNL     1      16.047  34.858  16.684  1.00  0.00    -0.321 N 
ATOM     11  H3  UNL     1      15.670  34.456  15.826  1.00  0.00     0.169 HD
HETATM   12  C16 UNL     1      16.195  36.181  16.699  1.00  0.00     0.131 A 
ENDROOT
BRANCH  12  13
HETATM   13  N4  UNL     1      15.845  36.831  15.645  1.00  0.00    -0.370 N 
ATOM     14  H4  UNL     1      16.604  37.100  15.019  1.00  0.00     0.161 HD
BRANCH  13  15
HETATM   15  C17 UNL     1      14.535  37.228  15.232  1.00  0.00     0.084 C 
HETATM   16  C18 UNL     1      14.442  38.715  15.057  1.00  0.00     0.025 C 
HETATM   17  C19 UNL     1      14.711  39.209  13.686  1.00  0.00     0.003 C 
HETATM   18  C20 UNL     1      14.092  38.426  12.588  1.00  0.00     0.014 C 
HETATM   19  C21 UNL     1      14.628  36.988  12.722  1.00  0.00     0.081 C 
HETATM   20  C24 UNL     1      14.069  36.466  14.006  1.00  0.00     0.039 C 
BRANCH  19  21
HETATM   21  C22 UNL     1      14.164  36.171  11.584  1.00  0.00     0.235 C 
HETATM   22  O2  UNL     1      13.218  35.352  11.792  1.00  0.00    -0.272 OA
HETATM   23  N5  UNL     1      14.707  36.252  10.298  1.00  0.00    -0.249 N 
ATOM     24  H5  UNL     1      15.464  36.923  10.168  1.00  0.00     0.181 HD
BRANCH  23  25
HETATM   25  S2  UNL     1      14.250  35.359   8.926  1.00  0.00     0.294 S 
HETATM   26  O3  UNL     1      14.443  33.868   9.150  1.00  0.00    -0.200 OA
HETATM   27  O4  UNL     1      15.060  35.759   7.729  1.00  0.00    -0.200 OA
BRANCH  25  28
HETATM   28  C23 UNL     1      12.539  35.568   8.508  1.00  0.00     0.494 C 
HETATM   29  F1  UNL     1      11.980  36.525   9.342  1.00  0.00    -0.195 F 
HETATM   30  F2  UNL     1      12.404  36.067   7.213  1.00  0.00    -0.195 F 
ENDBRANCH  25  28
ENDBRANCH  23  25
ENDBRANCH  19  21
ENDBRANCH  13  15
ENDBRANCH  12  13
BRANCH   9  31
HETATM   31  N2  UNL     1      16.119  32.736  17.474  1.00  0.00    -0.368 N 
ATOM     32  H2  UNL     1      16.669  32.266  16.755  1.00  0.00     0.161 HD
BRANCH  31  33
HETATM   33  C14 UNL     1      15.165  31.958  18.195  1.00  0.00     0.147 C 
BRANCH  33  34
HETATM   34  C15 UNL     1      15.807  30.853  19.011  1.00  0.00     0.183 C 
BRANCH  34  35
HETATM   35  O1  UNL     1      16.183  29.770  18.249  1.00  0.00    -0.399 OA
ATOM     36  H1  UNL     1      15.559  29.565  17.562  1.00  0.00     0.209 HD
ENDBRANCH  34  35
ENDBRANCH  33  34
ENDBRANCH  31  33
ENDBRANCH   9  31
BRANCH   2  37
HETATM   37  C3  UNL     1      19.027  37.478  20.021  1.00  0.00     0.021 C 
BRANCH  37  38
HETATM   38  C4  UNL     1      19.700  37.780  21.286  1.00  0.00    -0.013 C 
HETATM   39  C5  UNL     1      20.869  37.021  21.740  1.00  0.00     0.005 C 
HETATM   40  C6  UNL     1      21.100  37.410  23.225  1.00  0.00     0.000 C 
HETATM   41  C7  UNL     1      21.099  38.881  23.440  1.00  0.00     0.000 C 
HETATM   42  C8  UNL     1      21.264  39.576  22.123  1.00  0.00     0.000 C 
HETATM   43  C9  UNL     1      20.187  39.252  21.145  1.00  0.00     0.005 C 
ENDBRANCH  37  38
ENDBRANCH   2  37
TORSDOF 11
ENDMDL
MODEL 4
REMARK VINA RESULT: -6.995106701      3.481      5.358
REMARK  11 active torsions:
REMARK  status: ('A' for Active; 'I' for Inactive)
REMARK    1  A    between atoms: C2_2  and  C3_3 
REMARK    2  A    between atoms: C3_3  and  C4_4 
REMARK    3  A    between atoms: C13_16  and  N2_17 
REMARK    4  A    between atoms: N2_17  and  C14_19 
REMARK    5  A    between atoms: C14_19  and  C15_20 
REMARK    6  A    between atoms: C15_20  and  O1_21 
REMARK    7  A    between atoms: C16_25  and  N4_26 
REMARK    8  A    between atoms: N4_26  and  C17_28 
REMARK    9  A    between atoms: C21_32  and  C22_33 
REMARK       I    between atoms: C22_33  and  N5_35 
REMARK   10  A    between atoms: N5_35  and  S2_37 
REMARK   11  A    between atoms: S2_37  and  C23_40 
ROOT
HETATM    1  C1  UNL     1      14.563  35.878  17.625  1.00  0.00     0.023 C 
HETATM    2  C2  UNL     1      15.716  36.771  17.236  1.00  0.00     0.008 C 
HETATM    3  C10 UNL     1      15.671  38.076  18.012  1.00  0.00     0.134 C 
HETATM    4  N1  UNL     1      15.942  39.116  17.045  1.00  0.00    -0.385 N 
ATOM      5  H1  UNL     1      16.332  40.037  17.244  1.00  0.00     0.159 HD
HETATM    6  C11 UNL     1      15.558  38.614  15.746  1.00  0.00     0.086 A 
HETATM    7  C12 UNL     1      15.429  37.256  15.839  1.00  0.00     0.026 A 
HETATM    8  S1  UNL     1      14.973  36.477  14.368  1.00  0.00    -0.056 SA
HETATM    9  C13 UNL     1      14.778  37.576  13.086  1.00  0.00     0.146 A 
HETATM   10  N3  UNL     1      15.000  38.861  13.402  1.00  0.00    -0.321 N 
ATOM     11  H3  UNL     1      14.887  39.537  12.647  1.00  0.00     0.169 HD
HETATM   12  C16 UNL     1      15.352  39.357  14.587  1.00  0.00     0.131 A 
ENDROOT
BRANCH  12  13
HETATM   13  N4  UNL     1      15.506  40.631  14.677  1.00  0.00    -0.370 N 
ATOM     14  H4  UNL     1      16.437  40.980  14.449  1.00  0.00     0.161 HD
BRANCH  13  15
HETATM   15  C17 UNL     1      14.549  41.624  15.053  1.00  0.00     0.084 C 
HETATM   16  C18 UNL     1      15.110  42.566  16.077  1.00  0.00     0.025 C 
HETATM   17  C19 UNL     1      15.739  43.793  15.532  1.00  0.00     0.003 C 
HETATM   18  C20 UNL     1      15.000  44.457  14.430  1.00  0.00     0.014 C 
HETATM   19  C21 UNL     1      14.864  43.416  13.304  1.00  0.00     0.081 C 
HETATM   20  C24 UNL     1      13.974  42.346  13.850  1.00  0.00     0.039 C 
BRANCH  19  21
HETATM   21  C22 UNL     1      14.256  44.039  12.113  1.00  0.00     0.235 C 
HETATM   22  O2  UNL     1      13.838  43.272  11.193  1.00  0.00    -0.272 OA
HETATM   23  N5  UNL     1      14.115  45.420  11.947  1.00  0.00    -0.249 N 
ATOM     24  H5  UNL     1      14.459  46.005  12.708  1.00  0.00     0.181 HD
BRANCH  23  25
HETATM   25  S2  UNL     1      13.434  46.236  10.620  1.00  0.00     0.294 S 
HETATM   26  O3  UNL     1      13.301  47.725  10.898  1.00  0.00    -0.200 OA
HETATM   27  O4  UNL     1      12.071  45.699  10.300  1.00  0.00    -0.200 OA
BRANCH  25  28
HETATM   28  C23 UNL     1      14.419  46.104   9.151  1.00  0.00     0.494 C 
HETATM   29  F1  UNL     1      14.865  47.366   8.786  1.00  0.00    -0.195 F 
HETATM   30  F2  UNL     1      15.567  45.351   9.393  1.00  0.00    -0.195 F 
ENDBRANCH  25  28
ENDBRANCH  23  25
ENDBRANCH  19  21
ENDBRANCH  13  15
ENDBRANCH  12  13
BRANCH   9  31
HETATM   31  N2  UNL     1      14.438  37.281  11.879  1.00  0.00    -0.368 N 
ATOM     32  H2  UNL     1      14.615  37.976  11.153  1.00  0.00     0.161 HD
BRANCH  31  33
HETATM   33  C14 UNL     1      13.831  36.050  11.486  1.00  0.00     0.147 C 
BRANCH  33  34
HETATM   34  C15 UNL     1      14.680  35.267  10.504  1.00  0.00     0.183 C 
BRANCH  34  35
HETATM   35  O1  UNL     1      15.412  34.267  11.103  1.00  0.00    -0.399 OA
ATOM     36  H1  UNL     1      14.981  33.421  11.071  1.00  0.00     0.209 HD
ENDBRANCH  34  35
ENDBRANCH  33  34
ENDBRANCH  31  33
ENDBRANCH   9  31
BRANCH   2  37
HETATM   37  C3  UNL     1      17.017  36.100  17.299  1.00  0.00     0.021 C 
BRANCH  37  38
HETATM   38  C4  UNL     1      17.648  35.755  18.576  1.00  0.00    -0.013 C 
HETATM   39  C5  UNL     1      17.734  34.369  19.045  1.00  0.00     0.005 C 
HETATM   40  C6  UNL     1      18.167  34.431  20.534  1.00  0.00     0.000 C 
HETATM   41  C7  UNL     1      19.342  35.314  20.753  1.00  0.00     0.000 C 
HETATM   42  C8  UNL     1      20.013  35.584  19.441  1.00  0.00     0.000 C 
HETATM   43  C9  UNL     1      19.120  36.243  18.446  1.00  0.00     0.005 C 
ENDBRANCH  37  38
ENDBRANCH   2  37
TORSDOF 11
ENDMDL
MODEL 5
REMARK VINA RESULT: -6.960073630      6.776      9.710
REMARK  11 active torsions:
REMARK  status: ('A' for Active; 'I' for Inactive)
REMARK    1  A    between atoms: C2_2  and  C3_3 
REMARK    2  A    between atoms: C3_3  and  C4_4 
REMARK    3  A    between atoms: C13_16  and  N2_17 
REMARK    4  A    between atoms: N2_17  and  C14_19 
REMARK    5  A    between atoms: C14_19  and  C15_20 
REMARK    6  A    between atoms: C15_20  and  O1_21 
REMARK    7  A    between atoms: C16_25  and  N4_26 
REMARK    8  A    between atoms: N4_26  and  C17_28 
REMARK    9  A    between atoms: C21_32  and  C22_33 
REMARK       I    between atoms: C22_33  and  N5_35 
REMARK   10  A    between atoms: N5_35  and  S2_37 
REMARK   11  A    between atoms: S2_37  and  C23_40 
ROOT
HETATM    1  C1  UNL     1      16.057  40.524  13.468  1.00  0.00     0.023 C 
HETATM    2  C2  UNL     1      15.101  39.891  14.450  1.00  0.00     0.008 C 
HETATM    3  C10 UNL     1      15.798  39.603  15.768  1.00  0.00     0.134 C 
HETATM    4  N1  UNL     1      15.377  38.273  16.150  1.00  0.00    -0.385 N 
ATOM      5  H1  UNL     1      15.349  37.899  17.099  1.00  0.00     0.159 HD
HETATM    6  C11 UNL     1      15.007  37.571  14.944  1.00  0.00     0.086 A 
HETATM    7  C12 UNL     1      14.837  38.495  13.951  1.00  0.00     0.026 A 
HETATM    8  S1  UNL     1      14.385  37.831  12.423  1.00  0.00    -0.056 SA
HETATM    9  C13 UNL     1      14.240  36.139  12.469  1.00  0.00     0.146 A 
HETATM   10  N3  UNL     1      14.494  35.580  13.663  1.00  0.00    -0.321 N 
ATOM     11  H3  UNL     1      14.414  34.565  13.711  1.00  0.00     0.169 HD
HETATM   12  C16 UNL     1      14.840  36.197  14.791  1.00  0.00     0.131 A 
ENDROOT
BRANCH  12  13
HETATM   13  N4  UNL     1      15.050  35.466  15.829  1.00  0.00    -0.370 N 
ATOM     14  H4  UNL     1      14.346  35.532  16.564  1.00  0.00     0.161 HD
BRANCH  13  15
HETATM   15  C17 UNL     1      16.136  34.575  16.090  1.00  0.00     0.084 C 
HETATM   16  C18 UNL     1      17.380  35.322  16.471  1.00  0.00     0.025 C 
HETATM   17  C19 UNL     1      17.575  35.527  17.927  1.00  0.00     0.003 C 
HETATM   18  C20 UNL     1      17.282  34.353  18.785  1.00  0.00     0.014 C 
HETATM   19  C21 UNL     1      15.812  33.974  18.520  1.00  0.00     0.081 C 
HETATM   20  C24 UNL     1      15.766  33.506  17.101  1.00  0.00     0.039 C 
BRANCH  19  21
HETATM   21  C22 UNL     1      15.399  32.894  19.436  1.00  0.00     0.235 C 
HETATM   22  O2  UNL     1      16.296  32.342  20.143  1.00  0.00    -0.272 OA
HETATM   23  N5  UNL     1      14.078  32.451  19.568  1.00  0.00    -0.249 N 
ATOM     24  H5  UNL     1      13.384  32.920  18.986  1.00  0.00     0.181 HD
BRANCH  23  25
HETATM   25  S2  UNL     1      13.499  31.220  20.586  1.00  0.00     0.294 S 
HETATM   26  O3  UNL     1      11.998  31.036  20.429  1.00  0.00    -0.200 OA
HETATM   27  O4  UNL     1      13.781  31.535  22.025  1.00  0.00    -0.200 OA
BRANCH  25  28
HETATM   28  C23 UNL     1      14.220  29.639  20.234  1.00  0.00     0.494 C 
HETATM   29  F1  UNL     1      14.661  29.622  18.919  1.00  0.00    -0.195 F 
HETATM   30  F2  UNL     1      15.354  29.427  21.017  1.00  0.00    -0.195 F 
ENDBRANCH  25  28
ENDBRANCH  23  25
ENDBRANCH  19  21
ENDBRANCH  13  15
ENDBRANCH  12  13
BRANCH   9  31
HETATM   31  N2  UNL     1      13.921  35.377  11.481  1.00  0.00    -0.368 N 
ATOM     32  H2  UNL     1      13.788  34.384  11.671  1.00  0.00     0.161 HD
BRANCH  31  33
HETATM   33  C14 UNL     1      13.741  35.827  10.138  1.00  0.00     0.147 C 
BRANCH  33  34
HETATM   34  C15 UNL     1      12.291  35.790   9.697  1.00  0.00     0.183 C 
BRANCH  34  35
HETATM   35  O1  UNL     1      11.605  36.942  10.010  1.00  0.00    -0.399 OA
ATOM     36  H1  UNL     1      11.135  37.307   9.269  1.00  0.00     0.209 HD
ENDBRANCH  34  35
ENDBRANCH  33  34
ENDBRANCH  31  33
ENDBRANCH   9  31
BRANCH   2  37
HETATM   37  C3  UNL     1      13.849  40.638  14.603  1.00  0.00     0.021 C 
BRANCH  37  38
HETATM   38  C4  UNL     1      13.403  41.613  13.605  1.00  0.00    -0.013 C 
HETATM   39  C5  UNL     1      12.551  41.228  12.476  1.00  0.00     0.005 C 
HETATM   40  C6  UNL     1      12.552  42.428  11.491  1.00  0.00     0.000 C 
HETATM   41  C7  UNL     1      12.273  43.723  12.164  1.00  0.00     0.000 C 
HETATM   42  C8  UNL     1      11.689  43.463  13.519  1.00  0.00     0.000 C 
HETATM   43  C9  UNL     1      12.584  42.667  14.406  1.00  0.00     0.005 C 
ENDBRANCH  37  38
ENDBRANCH   2  37
TORSDOF 11
ENDMDL
