MODEL 1
REMARK VINA RESULT: -7.389663482      0.000      0.000
REMARK  11 active torsions:
REMARK  status: ('A' for Active; 'I' for Inactive)
REMARK    1  A    between atoms: C4_5  and  O2_7 
REMARK    2  A    between atoms: C6_9  and  O3_10 
REMARK    3  A    between atoms: C9_14  and  O4_15 
REMARK    4  A    between atoms: C11_17  and  O5_18 
REMARK    5  A    between atoms: C21_31  and  C22_32 
REMARK    6  A    between atoms: C23_33  and  C24_34 
REMARK    7  A    between atoms: C24_34  and  C25_35 
REMARK    8  A    between atoms: C27_37  and  C28_38 
REMARK    9  A    between atoms: C28_38  and  C29_39 
REMARK   10  A    between atoms: C29_39  and  C30_40 
REMARK   11  A    between atoms: C31_43  and  O8_44 
ROOT
HETATM    1  C1  UNL     1       9.863  46.612  12.858  1.00  0.00     0.026 C 
HETATM    2  C2  UNL     1      11.042  46.076  12.771  1.00  0.00     0.024 C 
HETATM    3  C3  UNL     1      11.939  46.224  13.938  1.00  0.00     0.195 C 
HETATM    4  O1  UNL     1      11.516  46.783  14.994  1.00  0.00    -0.289 OA
HETATM    5  C4  UNL     1      13.331  45.755  13.963  1.00  0.00     0.156 C 
HETATM    6  C5  UNL     1      13.766  45.265  15.314  1.00  0.00     0.058 C 
HETATM    7  C6  UNL     1      13.717  44.807  12.873  1.00  0.00     0.164 C 
HETATM    8  C7  UNL     1      13.180  43.464  12.798  1.00  0.00     0.128 C 
HETATM    9  C8  UNL     1      13.149  43.614  11.342  1.00  0.00     0.089 C 
HETATM   10  C9  UNL     1      13.039  45.128  11.566  1.00  0.00     0.140 C 
HETATM   11  C11 UNL     1      11.561  45.331  11.606  1.00  0.00     0.149 C 
HETATM   12  C12 UNL     1      10.713  44.233  11.064  1.00  0.00    -0.012 C 
HETATM   13  C13 UNL     1      10.500  44.364   9.722  1.00  0.00     0.023 C 
HETATM   14  C14 UNL     1      10.070  43.074  11.675  1.00  0.00     0.021 A 
HETATM   15  C15 UNL     1       8.685  43.027  11.395  1.00  0.00     0.128 A 
HETATM   16  F1  UNL     1       8.038  43.992  10.643  1.00  0.00    -0.205 F 
HETATM   17  C16 UNL     1       7.810  42.062  11.807  1.00  0.00     0.046 A 
HETATM   18  C17 UNL     1       8.283  41.035  12.560  1.00  0.00     0.046 A 
HETATM   19  C18 UNL     1       9.616  41.023  12.865  1.00  0.00     0.124 A 
HETATM   20  F2  UNL     1      10.016  39.954  13.617  1.00  0.00    -0.206 F 
HETATM   21  C19 UNL     1      10.544  42.021  12.445  1.00  0.00     0.004 A 
HETATM   22  C20 UNL     1      11.859  41.695  12.969  1.00  0.00     0.087 C 
HETATM   23  C21 UNL     1      13.078  41.439  12.212  1.00  0.00     0.156 C 
HETATM   24  O7  UNL     1      14.085  42.316  12.789  1.00  0.00    -0.364 OA
HETATM   25  C31 UNL     1      12.359  42.925  13.767  1.00  0.00     0.167 C 
ENDROOT
BRANCH  23  26
HETATM   26  C22 UNL     1      13.679  40.088  12.609  1.00  0.00     0.002 C 
HETATM   27  C23 UNL     1      13.079  38.953  12.302  1.00  0.00    -0.024 C 
BRANCH  27  28
HETATM   28  C24 UNL     1      13.674  37.671  12.693  1.00  0.00     0.060 C 
BRANCH  28  29
HETATM   29  C25 UNL     1      13.428  36.586  11.710  1.00  0.00    -0.084 C 
HETATM   30  C26 UNL     1      12.072  36.065  11.419  1.00  0.00     0.043 C 
HETATM   31  C27 UNL     1      14.452  36.069  11.048  1.00  0.00    -0.024 C 
BRANCH  31  32
HETATM   32  C28 UNL     1      14.351  34.984  10.044  1.00  0.00     0.034 C 
BRANCH  32  33
HETATM   33  C29 UNL     1      14.398  35.414   8.625  1.00  0.00     0.073 C 
BRANCH  33  34
HETATM   34  C30 UNL     1      13.154  35.407   7.874  1.00  0.00     0.231 C 
HETATM   35  O6  UNL     1      13.070  35.059   6.721  1.00  0.00    -0.307 OA
ENDBRANCH  33  34
ENDBRANCH  32  33
ENDBRANCH  31  32
ENDBRANCH  28  29
ENDBRANCH  27  28
ENDBRANCH  23  26
BRANCH  25  36
HETATM   36  O8  UNL     1      11.324  43.248  14.514  1.00  0.00    -0.392 OA
ATOM     37  H8  UNL     1      10.937  43.041  15.356  1.00  0.00     0.210 HD
ENDBRANCH  25  36
BRANCH   7  38
HETATM   38  O3  UNL     1      15.099  44.786  12.780  1.00  0.00    -0.380 OA
ATOM     39  H3  UNL     1      15.413  43.973  13.159  1.00  0.00     0.211 HD
ENDBRANCH   7  38
BRANCH   5  40
HETATM   40  O2  UNL     1      14.104  46.926  13.716  1.00  0.00    -0.379 OA
ATOM     41  H2  UNL     1      14.114  47.383  14.549  1.00  0.00     0.211 HD
ENDBRANCH   5  40
BRANCH  10  42
HETATM   42  O4  UNL     1      13.712  45.930  10.775  1.00  0.00    -0.378 OA
HETATM   43  C10 UNL     1      14.276  45.824   9.624  1.00  0.00     0.202 C 
ENDBRANCH  10  42
BRANCH  11  44
HETATM   44  O5  UNL     1      11.389  46.446  10.687  1.00  0.00    -0.377 OA
ATOM     45  H5  UNL     1      10.498  46.207  10.459  1.00  0.00     0.211 HD
ENDBRANCH  11  44
TORSDOF 11
ENDMDL
MODEL 2
REMARK VINA RESULT: -7.368654337      2.825      7.709
REMARK  11 active torsions:
REMARK  status: ('A' for Active; 'I' for Inactive)
REMARK    1  A    between atoms: C4_5  and  O2_7 
REMARK    2  A    between atoms: C6_9  and  O3_10 
REMARK    3  A    between atoms: C9_14  and  O4_15 
REMARK    4  A    between atoms: C11_17  and  O5_18 
REMARK    5  A    between atoms: C21_31  and  C22_32 
REMARK    6  A    between atoms: C23_33  and  C24_34 
REMARK    7  A    between atoms: C24_34  and  C25_35 
REMARK    8  A    between atoms: C27_37  and  C28_38 
REMARK    9  A    between atoms: C28_38  and  C29_39 
REMARK   10  A    between atoms: C29_39  and  C30_40 
REMARK   11  A    between atoms: C31_43  and  O8_44 
ROOT
HETATM    1  C1  UNL     1       9.919  37.081  13.306  1.00  0.00     0.026 C 
HETATM    2  C2  UNL     1      11.045  37.603  13.685  1.00  0.00     0.024 C 
HETATM    3  C3  UNL     1      12.279  37.072  13.065  1.00  0.00     0.195 C 
HETATM    4  O1  UNL     1      12.201  36.203  12.145  1.00  0.00    -0.289 OA
HETATM    5  C4  UNL     1      13.633  37.492  13.450  1.00  0.00     0.156 C 
HETATM    6  C5  UNL     1      14.596  37.509  12.299  1.00  0.00     0.058 C 
HETATM    7  C6  UNL     1      13.717  38.741  14.269  1.00  0.00     0.164 C 
HETATM    8  C7  UNL     1      13.381  40.039  13.725  1.00  0.00     0.128 C 
HETATM    9  C8  UNL     1      12.796  40.374  15.025  1.00  0.00     0.089 C 
HETATM   10  C9  UNL     1      12.569  38.872  15.237  1.00  0.00     0.140 C 
HETATM   11  C11 UNL     1      11.197  38.683  14.681  1.00  0.00     0.149 C 
HETATM   12  C12 UNL     1      10.368  39.906  14.495  1.00  0.00    -0.012 C 
HETATM   13  C13 UNL     1       9.662  40.223  15.618  1.00  0.00     0.023 C 
HETATM   14  C14 UNL     1      10.161  40.808  13.367  1.00  0.00     0.021 A 
HETATM   15  C15 UNL     1       8.791  40.960  13.053  1.00  0.00     0.128 A 
HETATM   16  F1  UNL     1       7.787  40.300  13.740  1.00  0.00    -0.205 F 
HETATM   17  C16 UNL     1       8.271  41.746  12.065  1.00  0.00     0.046 A 
HETATM   18  C17 UNL     1       9.123  42.465  11.290  1.00  0.00     0.046 A 
HETATM   19  C18 UNL     1      10.463  42.362  11.544  1.00  0.00     0.124 A 
HETATM   20  F2  UNL     1      11.254  43.123  10.729  1.00  0.00    -0.206 F 
HETATM   21  C19 UNL     1      11.025  41.547  12.570  1.00  0.00     0.004 A 
HETATM   22  C20 UNL     1      12.472  41.669  12.533  1.00  0.00     0.087 C 
HETATM   23  C21 UNL     1      13.350  42.146  13.594  1.00  0.00     0.156 C 
HETATM   24  O7  UNL     1      14.368  41.118  13.747  1.00  0.00    -0.364 OA
HETATM   25  C31 UNL     1      13.056  40.241  12.400  1.00  0.00     0.167 C 
ENDROOT
BRANCH  23  26
HETATM   26  C22 UNL     1      14.235  43.287  13.084  1.00  0.00     0.002 C 
HETATM   27  C23 UNL     1      14.071  43.794  11.876  1.00  0.00    -0.024 C 
BRANCH  27  28
HETATM   28  C24 UNL     1      14.931  44.887  11.409  1.00  0.00     0.060 C 
BRANCH  28  29
HETATM   29  C25 UNL     1      14.372  45.616  10.244  1.00  0.00    -0.084 C 
HETATM   30  C26 UNL     1      12.918  45.699   9.976  1.00  0.00     0.043 C 
HETATM   31  C27 UNL     1      15.198  46.237   9.414  1.00  0.00    -0.024 C 
BRANCH  31  32
HETATM   32  C28 UNL     1      14.778  46.998   8.214  1.00  0.00     0.034 C 
BRANCH  32  33
HETATM   33  C29 UNL     1      15.150  48.434   8.200  1.00  0.00     0.073 C 
BRANCH  33  34
HETATM   34  C30 UNL     1      14.639  49.275   9.269  1.00  0.00     0.231 C 
HETATM   35  O6  UNL     1      13.478  49.304   9.602  1.00  0.00    -0.307 OA
ENDBRANCH  33  34
ENDBRANCH  32  33
ENDBRANCH  31  32
ENDBRANCH  28  29
ENDBRANCH  27  28
ENDBRANCH  23  26
BRANCH  25  36
HETATM   36  O8  UNL     1      12.334  39.703  11.439  1.00  0.00    -0.392 OA
ATOM     37  H8  UNL     1      11.426  39.530  11.215  1.00  0.00     0.210 HD
ENDBRANCH  25  36
BRANCH   7  38
HETATM   38  O3  UNL     1      14.957  38.776  14.887  1.00  0.00    -0.380 OA
ATOM     39  H3  UNL     1      15.132  39.670  15.156  1.00  0.00     0.211 HD
ENDBRANCH   7  38
BRANCH   5  40
HETATM   40  O2  UNL     1      14.091  36.458  14.316  1.00  0.00    -0.379 OA
ATOM     41  H2  UNL     1      13.297  36.034  14.618  1.00  0.00     0.211 HD
ENDBRANCH   5  40
BRANCH  10  42
HETATM   42  O4  UNL     1      12.787  38.365  16.427  1.00  0.00    -0.378 OA
HETATM   43  C10 UNL     1      12.824  38.825  17.627  1.00  0.00     0.202 C 
ENDBRANCH  10  42
BRANCH  11  44
HETATM   44  O5  UNL     1      10.547  37.931  15.745  1.00  0.00    -0.377 OA
ATOM     45  H5  UNL     1      11.235  38.104  16.377  1.00  0.00     0.211 HD
ENDBRANCH  11  44
TORSDOF 11
ENDMDL
MODEL 3
REMARK VINA RESULT: -7.354528908      6.865     10.273
REMARK  11 active torsions:
REMARK  status: ('A' for Active; 'I' for Inactive)
REMARK    1  A    between atoms: C4_5  and  O2_7 
REMARK    2  A    between atoms: C6_9  and  O3_10 
REMARK    3  A    between atoms: C9_14  and  O4_15 
REMARK    4  A    between atoms: C11_17  and  O5_18 
REMARK    5  A    between atoms: C21_31  and  C22_32 
REMARK    6  A    between atoms: C23_33  and  C24_34 
REMARK    7  A    between atoms: C24_34  and  C25_35 
REMARK    8  A    between atoms: C27_37  and  C28_38 
REMARK    9  A    between atoms: C28_38  and  C29_39 
REMARK   10  A    between atoms: C29_39  and  C30_40 
REMARK   11  A    between atoms: C31_43  and  O8_44 
ROOT
HETATM    1  C1  UNL     1      15.401  35.451  21.668  1.00  0.00     0.026 C 
HETATM    2  C2  UNL     1      15.855  35.164  20.486  1.00  0.00     0.024 C 
HETATM    3  C3  UNL     1      15.408  33.889  19.882  1.00  0.00     0.195 C 
HETATM    4  O1  UNL     1      14.555  33.169  20.482  1.00  0.00    -0.289 OA
HETATM    5  C4  UNL     1      15.899  33.380  18.594  1.00  0.00     0.156 C 
HETATM    6  C5  UNL     1      14.856  32.625  17.822  1.00  0.00     0.058 C 
HETATM    7  C6  UNL     1      16.624  34.368  17.738  1.00  0.00     0.164 C 
HETATM    8  C7  UNL     1      15.950  35.495  17.128  1.00  0.00     0.128 C 
HETATM    9  C8  UNL     1      17.153  36.288  17.389  1.00  0.00     0.089 C 
HETATM   10  C9  UNL     1      17.454  35.330  18.549  1.00  0.00     0.140 C 
HETATM   11  C11 UNL     1      16.776  36.005  19.694  1.00  0.00     0.149 C 
HETATM   12  C12 UNL     1      16.410  37.437  19.515  1.00  0.00    -0.012 C 
HETATM   13  C13 UNL     1      17.427  38.274  19.875  1.00  0.00     0.023 C 
HETATM   14  C14 UNL     1      15.202  38.108  19.050  1.00  0.00     0.021 A 
HETATM   15  C15 UNL     1      14.736  39.068  19.978  1.00  0.00     0.128 A 
HETATM   16  F1  UNL     1      15.363  39.307  21.189  1.00  0.00    -0.205 F 
HETATM   17  C16 UNL     1      13.642  39.872  19.829  1.00  0.00     0.046 A 
HETATM   18  C17 UNL     1      12.907  39.765  18.692  1.00  0.00     0.046 A 
HETATM   19  C18 UNL     1      13.306  38.854  17.753  1.00  0.00     0.124 A 
HETATM   20  F2  UNL     1      12.522  38.813  16.634  1.00  0.00    -0.206 F 
HETATM   21  C19 UNL     1      14.444  38.006  17.891  1.00  0.00     0.004 A 
HETATM   22  C20 UNL     1      14.549  37.159  16.716  1.00  0.00     0.087 C 
HETATM   23  C21 UNL     1      15.656  37.084  15.771  1.00  0.00     0.156 C 
HETATM   24  O7  UNL     1      15.992  35.672  15.677  1.00  0.00    -0.364 OA
HETATM   25  C31 UNL     1      14.587  35.690  17.203  1.00  0.00     0.167 C 
ENDROOT
BRANCH  23  26
HETATM   26  C22 UNL     1      15.154  37.308  14.341  1.00  0.00     0.002 C 
HETATM   27  C23 UNL     1      14.555  38.430  13.992  1.00  0.00    -0.024 C 
BRANCH  27  28
HETATM   28  C24 UNL     1      14.083  38.621  12.616  1.00  0.00     0.060 C 
BRANCH  28  29
HETATM   29  C25 UNL     1      13.015  37.668  12.225  1.00  0.00    -0.084 C 
HETATM   30  C26 UNL     1      11.724  37.577  12.944  1.00  0.00     0.043 C 
HETATM   31  C27 UNL     1      13.207  36.877  11.180  1.00  0.00    -0.024 C 
BRANCH  31  32
HETATM   32  C28 UNL     1      12.229  35.880  10.682  1.00  0.00     0.034 C 
BRANCH  32  33
HETATM   33  C29 UNL     1      12.269  35.614   9.224  1.00  0.00     0.073 C 
BRANCH  33  34
HETATM   34  C30 UNL     1      13.559  35.312   8.626  1.00  0.00     0.231 C 
HETATM   35  O6  UNL     1      14.167  34.289   8.826  1.00  0.00    -0.307 OA
ENDBRANCH  33  34
ENDBRANCH  32  33
ENDBRANCH  31  32
ENDBRANCH  28  29
ENDBRANCH  27  28
ENDBRANCH  23  26
BRANCH  25  36
HETATM   36  O8  UNL     1      13.600  35.630  18.074  1.00  0.00    -0.392 OA
ATOM     37  H8  UNL     1      12.867  36.148  18.385  1.00  0.00     0.210 HD
ENDBRANCH  25  36
BRANCH   7  38
HETATM   38  O3  UNL     1      17.363  33.672  16.795  1.00  0.00    -0.380 OA
ATOM     39  H3  UNL     1      18.155  34.163  16.612  1.00  0.00     0.211 HD
ENDBRANCH   7  38
BRANCH   5  40
HETATM   40  O2  UNL     1      16.885  32.414  18.949  1.00  0.00    -0.379 OA
ATOM     41  H2  UNL     1      16.436  31.827  19.546  1.00  0.00     0.211 HD
ENDBRANCH   5  40
BRANCH  10  42
HETATM   42  O4  UNL     1      18.697  34.958  18.749  1.00  0.00    -0.378 OA
HETATM   43  C10 UNL     1      19.825  35.560  18.883  1.00  0.00     0.202 C 
ENDBRANCH  10  42
BRANCH  11  44
HETATM   44  O5  UNL     1      17.820  35.992  20.707  1.00  0.00    -0.377 OA
ATOM     45  H5  UNL     1      18.484  35.660  20.114  1.00  0.00     0.211 HD
ENDBRANCH  11  44
TORSDOF 11
ENDMDL
MODEL 4
REMARK VINA RESULT: -7.194885963      1.173      1.484
REMARK  11 active torsions:
REMARK  status: ('A' for Active; 'I' for Inactive)
REMARK    1  A    between atoms: C4_5  and  O2_7 
REMARK    2  A    between atoms: C6_9  and  O3_10 
REMARK    3  A    between atoms: C9_14  and  O4_15 
REMARK    4  A    between atoms: C11_17  and  O5_18 
REMARK    5  A    between atoms: C21_31  and  C22_32 
REMARK    6  A    between atoms: C23_33  and  C24_34 
REMARK    7  A    between atoms: C24_34  and  C25_35 
REMARK    8  A    between atoms: C27_37  and  C28_38 
REMARK    9  A    between atoms: C28_38  and  C29_39 
REMARK   10  A    between atoms: C29_39  and  C30_40 
REMARK   11  A    between atoms: C31_43  and  O8_44 
ROOT
HETATM    1  C1  UNL     1      10.066  46.961  12.964  1.00  0.00     0.026 C 
HETATM    2  C2  UNL     1      11.321  46.630  13.015  1.00  0.00     0.024 C 
HETATM    3  C3  UNL     1      12.051  46.938  14.264  1.00  0.00     0.195 C 
HETATM    4  O1  UNL     1      11.431  47.429  15.255  1.00  0.00    -0.289 OA
HETATM    5  C4  UNL     1      13.490  46.709  14.446  1.00  0.00     0.156 C 
HETATM    6  C5  UNL     1      13.853  46.313  15.848  1.00  0.00     0.058 C 
HETATM    7  C6  UNL     1      14.142  45.827  13.429  1.00  0.00     0.164 C 
HETATM    8  C7  UNL     1      13.845  44.413  13.337  1.00  0.00     0.128 C 
HETATM    9  C8  UNL     1      13.946  44.540  11.882  1.00  0.00     0.089 C 
HETATM   10  C9  UNL     1      13.564  46.017  12.050  1.00  0.00     0.140 C 
HETATM   11  C11 UNL     1      12.077  45.969  11.932  1.00  0.00     0.149 C 
HETATM   12  C12 UNL     1      11.485  44.739  11.336  1.00  0.00    -0.012 C 
HETATM   13  C13 UNL     1      11.398  44.819   9.976  1.00  0.00     0.023 C 
HETATM   14  C14 UNL     1      10.981  43.496  11.909  1.00  0.00     0.021 A 
HETATM   15  C15 UNL     1       9.661  43.214  11.489  1.00  0.00     0.128 A 
HETATM   16  F1  UNL     1       8.947  44.050  10.647  1.00  0.00    -0.205 F 
HETATM   17  C16 UNL     1       8.919  42.121  11.835  1.00  0.00     0.046 A 
HETATM   18  C17 UNL     1       9.471  41.196  12.661  1.00  0.00     0.046 A 
HETATM   19  C18 UNL     1      10.748  41.410  13.103  1.00  0.00     0.124 A 
HETATM   20  F2  UNL     1      11.236  40.431  13.922  1.00  0.00    -0.206 F 
HETATM   21  C19 UNL     1      11.537  42.545  12.753  1.00  0.00     0.004 A 
HETATM   22  C20 UNL     1      12.825  42.450  13.419  1.00  0.00     0.087 C 
HETATM   23  C21 UNL     1      14.143  42.393  12.801  1.00  0.00     0.156 C 
HETATM   24  O7  UNL     1      14.924  43.432  13.454  1.00  0.00    -0.364 OA
HETATM   25  C31 UNL     1      13.027  43.754  14.230  1.00  0.00     0.167 C 
ENDROOT
BRANCH  23  26
HETATM   26  C22 UNL     1      14.914  41.166  13.296  1.00  0.00     0.002 C 
HETATM   27  C23 UNL     1      14.494  39.942  13.035  1.00  0.00    -0.024 C 
BRANCH  27  28
HETATM   28  C24 UNL     1      15.250  38.781  13.519  1.00  0.00     0.060 C 
BRANCH  28  29
HETATM   29  C25 UNL     1      14.583  37.486  13.233  1.00  0.00    -0.084 C 
HETATM   30  C26 UNL     1      14.486  36.400  14.235  1.00  0.00     0.043 C 
HETATM   31  C27 UNL     1      14.033  37.292  12.044  1.00  0.00    -0.024 C 
BRANCH  31  32
HETATM   32  C28 UNL     1      13.340  36.052  11.624  1.00  0.00     0.034 C 
BRANCH  32  33
HETATM   33  C29 UNL     1      13.085  35.918  10.169  1.00  0.00     0.073 C 
BRANCH  33  34
HETATM   34  C30 UNL     1      14.160  35.400   9.339  1.00  0.00     0.231 C 
HETATM   35  O6  UNL     1      14.156  34.295   8.852  1.00  0.00    -0.307 OA
ENDBRANCH  33  34
ENDBRANCH  32  33
ENDBRANCH  31  32
ENDBRANCH  28  29
ENDBRANCH  27  28
ENDBRANCH  23  26
BRANCH  25  36
HETATM   36  O8  UNL     1      11.878  43.907  14.856  1.00  0.00    -0.392 OA
ATOM     37  H8  UNL     1      10.944  43.911  14.680  1.00  0.00     0.210 HD
ENDBRANCH  25  36
BRANCH   7  38
HETATM   38  O3  UNL     1      15.511  46.037  13.480  1.00  0.00    -0.380 OA
ATOM     39  H3  UNL     1      15.699  46.886  13.099  1.00  0.00     0.211 HD
ENDBRANCH   7  38
BRANCH   5  40
HETATM   40  O2  UNL     1      14.081  47.990  14.248  1.00  0.00    -0.379 OA
ATOM     41  H2  UNL     1      14.936  47.801  13.881  1.00  0.00     0.211 HD
ENDBRANCH   5  40
BRANCH  10  42
HETATM   42  O4  UNL     1      14.176  46.912  11.311  1.00  0.00    -0.378 OA
HETATM   43  C10 UNL     1      14.837  46.895  10.209  1.00  0.00     0.202 C 
ENDBRANCH  10  42
BRANCH  11  44
HETATM   44  O5  UNL     1      11.822  47.031  10.969  1.00  0.00    -0.377 OA
ATOM     45  H5  UNL     1      12.041  46.492  10.217  1.00  0.00     0.211 HD
ENDBRANCH  11  44
TORSDOF 11
ENDMDL
MODEL 5
REMARK VINA RESULT: -7.188547715      2.854      4.412
REMARK  11 active torsions:
REMARK  status: ('A' for Active; 'I' for Inactive)
REMARK    1  A    between atoms: C4_5  and  O2_7 
REMARK    2  A    between atoms: C6_9  and  O3_10 
REMARK    3  A    between atoms: C9_14  and  O4_15 
REMARK    4  A    between atoms: C11_17  and  O5_18 
REMARK    5  A    between atoms: C21_31  and  C22_32 
REMARK    6  A    between atoms: C23_33  and  C24_34 
REMARK    7  A    between atoms: C24_34  and  C25_35 
REMARK    8  A    between atoms: C27_37  and  C28_38 
REMARK    9  A    between atoms: C28_38  and  C29_39 
REMARK   10  A    between atoms: C29_39  and  C30_40 
REMARK   11  A    between atoms: C31_43  and  O8_44 
ROOT
HETATM    1  C1  UNL     1      12.963  45.732  16.207  1.00  0.00     0.026 C 
HETATM    2  C2  UNL     1      13.761  44.723  16.381  1.00  0.00     0.024 C 
HETATM    3  C3  UNL     1      13.391  43.742  17.426  1.00  0.00     0.195 C 
HETATM    4  O1  UNL     1      12.294  43.865  18.049  1.00  0.00    -0.289 OA
HETATM    5  C4  UNL     1      14.230  42.598  17.806  1.00  0.00     0.156 C 
HETATM    6  C5  UNL     1      13.436  41.387  18.201  1.00  0.00     0.058 C 
HETATM    7  C6  UNL     1      15.334  42.258  16.855  1.00  0.00     0.164 C 
HETATM    8  C7  UNL     1      15.071  41.730  15.532  1.00  0.00     0.128 C 
HETATM    9  C8  UNL     1      16.199  42.529  15.048  1.00  0.00     0.089 C 
HETATM   10  C9  UNL     1      15.945  43.482  16.223  1.00  0.00     0.140 C 
HETATM   11  C11 UNL     1      15.003  44.471  15.623  1.00  0.00     0.149 C 
HETATM   12  C12 UNL     1      14.916  44.508  14.137  1.00  0.00    -0.012 C 
HETATM   13  C13 UNL     1      15.842  45.348  13.590  1.00  0.00     0.023 C 
HETATM   14  C14 UNL     1      14.047  43.843  13.172  1.00  0.00     0.021 A 
HETATM   15  C15 UNL     1      13.415  44.763  12.304  1.00  0.00     0.128 A 
HETATM   16  F1  UNL     1      13.604  46.132  12.396  1.00  0.00    -0.205 F 
HETATM   17  C16 UNL     1      12.559  44.456  11.285  1.00  0.00     0.046 A 
HETATM   18  C17 UNL     1      12.263  43.151  11.056  1.00  0.00     0.046 A 
HETATM   19  C18 UNL     1      12.843  42.211  11.862  1.00  0.00     0.124 A 
HETATM   20  F2  UNL     1      12.503  40.921  11.563  1.00  0.00    -0.206 F 
HETATM   21  C19 UNL     1      13.738  42.511  12.930  1.00  0.00     0.004 A 
HETATM   22  C20 UNL     1      14.136  41.274  13.578  1.00  0.00     0.087 C 
HETATM   23  C21 UNL     1      15.484  40.737  13.716  1.00  0.00     0.156 C 
HETATM   24  O7  UNL     1      15.643  40.445  15.132  1.00  0.00    -0.364 OA
HETATM   25  C31 UNL     1      13.807  41.410  15.085  1.00  0.00     0.167 C 
ENDROOT
BRANCH  23  26
HETATM   26  C22 UNL     1      15.550  39.309  13.167  1.00  0.00     0.002 C 
HETATM   27  C23 UNL     1      14.545  38.468  13.320  1.00  0.00    -0.024 C 
BRANCH  27  28
HETATM   28  C24 UNL     1      14.632  37.105  12.785  1.00  0.00     0.060 C 
BRANCH  28  29
HETATM   29  C25 UNL     1      13.653  36.837  11.702  1.00  0.00    -0.084 C 
HETATM   30  C26 UNL     1      12.416  37.632  11.528  1.00  0.00     0.043 C 
HETATM   31  C27 UNL     1      13.896  35.860  10.840  1.00  0.00    -0.024 C 
BRANCH  31  32
HETATM   32  C28 UNL     1      13.007  35.484   9.715  1.00  0.00     0.034 C 
BRANCH  32  33
HETATM   33  C29 UNL     1      13.656  35.394   8.385  1.00  0.00     0.073 C 
BRANCH  33  34
HETATM   34  C30 UNL     1      12.802  35.449   7.210  1.00  0.00     0.231 C 
HETATM   35  O6  UNL     1      11.682  35.900   7.217  1.00  0.00    -0.307 OA
ENDBRANCH  33  34
ENDBRANCH  32  33
ENDBRANCH  31  32
ENDBRANCH  28  29
ENDBRANCH  27  28
ENDBRANCH  23  26
BRANCH  25  36
HETATM   36  O8  UNL     1      12.579  41.886  15.088  1.00  0.00    -0.392 OA
ATOM     37  H8  UNL     1      12.115  42.714  15.144  1.00  0.00     0.210 HD
ENDBRANCH  25  36
BRANCH   7  38
HETATM   38  O3  UNL     1      16.258  41.468  17.520  1.00  0.00    -0.380 OA
ATOM     39  H3  UNL     1      16.084  41.525  18.453  1.00  0.00     0.211 HD
ENDBRANCH   7  38
BRANCH   5  40
HETATM   40  O2  UNL     1      14.893  43.024  18.993  1.00  0.00    -0.379 OA
ATOM     41  H2  UNL     1      14.226  42.968  19.667  1.00  0.00     0.211 HD
ENDBRANCH   5  40
BRANCH  10  42
HETATM   42  O4  UNL     1      16.977  43.979  16.863  1.00  0.00    -0.378 OA
HETATM   43  C10 UNL     1      18.254  43.941  16.715  1.00  0.00     0.202 C 
ENDBRANCH  10  42
BRANCH  11  44
HETATM   44  O5  UNL     1      15.614  45.735  16.009  1.00  0.00    -0.377 OA
ATOM     45  H5  UNL     1      16.491  45.459  15.770  1.00  0.00     0.211 HD
ENDBRANCH  11  44
TORSDOF 11
ENDMDL
