MODEL 1
REMARK VINA RESULT: -6.468207844      0.000      0.000
REMARK  10 active torsions:
REMARK  status: ('A' for Active; 'I' for Inactive)
REMARK    1  A    between atoms: C2_2  and  C3_3 
REMARK    2  A    between atoms: C3_3  and  S1_4 
REMARK    3  A    between atoms: S1_4  and  N1_7 
REMARK    4  A    between atoms: N1_7  and  C4_9 
REMARK    5  A    between atoms: C11_18  and  C12_19 
REMARK    6  A    between atoms: C12_19  and  N2_20 
REMARK       I    between atoms: N2_20  and  C13_22 
REMARK    7  A    between atoms: C13_22  and  O4_24 
REMARK    8  A    between atoms: O4_24  and  C14_25 
REMARK    9  A    between atoms: C19_30  and  O5_31 
REMARK   10  A    between atoms: N3_34  and  C22_36 
ROOT
HETATM    1  C22 UNL     1      14.336  35.283  10.905  1.00  0.00     0.245 C 
HETATM    2  C23 UNL     1      14.052  35.089   9.462  1.00  0.00     0.078 C 
HETATM    3  N4  UNL     1      13.842  34.946   8.344  1.00  0.00    -0.196 NA
ENDROOT
BRANCH   1   4
HETATM    4  N3  UNL     1      13.490  36.316  11.411  1.00  0.00    -0.365 N 
HETATM    5  C21 UNL     1      13.644  36.992  12.490  1.00  0.00     0.117 C 
HETATM    6  C19 UNL     1      12.588  37.975  12.706  1.00  0.00     0.127 C 
HETATM    7  N5  UNL     1      14.814  36.618  13.207  1.00  0.00    -0.310 N 
HETATM    8  C10 UNL     1      12.476  38.725  13.929  1.00  0.00     0.071 C 
HETATM    9  C18 UNL     1      12.951  39.264  11.955  1.00  0.00     0.054 C 
HETATM   10  C8  UNL     1      12.987  38.269  15.196  1.00  0.00     0.008 A 
HETATM   11  C11 UNL     1      13.320  39.842  13.294  1.00  0.00     0.019 C 
HETATM   12  C7  UNL     1      14.055  37.447  15.575  1.00  0.00     0.064 A 
HETATM   13  C9  UNL     1      12.261  38.765  16.255  1.00  0.00     0.151 A 
HETATM   14  C6  UNL     1      14.366  37.149  16.865  1.00  0.00     0.052 A 
HETATM   15  C24 UNL     1      14.958  36.800  14.633  1.00  0.00     0.259 C 
HETATM   16  C5  UNL     1      13.594  37.682  17.892  1.00  0.00     0.058 A 
HETATM   17 CL1  UNL     1      15.727  36.108  17.211  1.00  0.00    -0.083 Cl
HETATM   18  C4  UNL     1      12.544  38.488  17.598  1.00  0.00     0.083 A 
HETATM   19  O6  UNL     1      16.029  36.315  15.073  1.00  0.00    -0.267 OA
HETATM   20  F1  UNL     1      11.199  39.570  16.028  1.00  0.00    -0.203 F 
ATOM     21  H5  UNL     1      15.588  36.201  12.690  1.00  0.00     0.170 HD
ATOM     22  H3  UNL     1      12.668  36.541  10.850  1.00  0.00     0.161 HD
BRANCH   6  23
HETATM   23  O5  UNL     1      11.372  37.474  12.238  1.00  0.00    -0.376 OA
HETATM   24  C20 UNL     1      10.350  38.264  12.736  1.00  0.00     0.203 C 
ENDBRANCH   6  23
BRANCH  18  25
HETATM   25  N1  UNL     1      11.714  39.039  18.610  1.00  0.00    -0.281 N 
ATOM     26  H1  UNL     1      12.054  39.894  19.051  1.00  0.00     0.178 HD
BRANCH  25  27
HETATM   27  S1  UNL     1      10.234  38.452  19.170  1.00  0.00     0.231 S 
HETATM   28  O1  UNL     1      10.301  36.933  19.353  1.00  0.00    -0.206 OA
HETATM   29  O2  UNL     1       9.994  39.013  20.556  1.00  0.00    -0.206 OA
BRANCH  27  30
HETATM   30  C3  UNL     1       8.836  38.766  18.168  1.00  0.00     0.163 C 
BRANCH  30  31
HETATM   31  C2  UNL     1       8.482  37.470  17.442  1.00  0.00     0.012 C 
HETATM   32  C1  UNL     1       8.551  37.577  15.957  1.00  0.00     0.006 C 
ENDBRANCH  30  31
ENDBRANCH  27  30
ENDBRANCH  25  27
ENDBRANCH  18  25
BRANCH  11  33
HETATM   33  C12 UNL     1      12.882  41.235  13.560  1.00  0.00     0.130 C 
BRANCH  33  34
HETATM   34  N2  UNL     1      13.834  42.249  13.240  1.00  0.00    -0.336 N 
HETATM   35  C13 UNL     1      13.686  42.957  12.013  1.00  0.00     0.361 C 
HETATM   36  O3  UNL     1      12.728  42.699  11.208  1.00  0.00    -0.238 OA
ATOM     37  H2  UNL     1      14.602  42.463  13.876  1.00  0.00     0.164 HD
BRANCH  35  38
HETATM   38  O4  UNL     1      14.546  43.952  11.605  1.00  0.00    -0.294 OA
BRANCH  38  39
HETATM   39  C14 UNL     1      14.499  45.276  12.102  1.00  0.00     0.061 C 
HETATM   40  C15 UNL     1      15.022  46.197  11.024  1.00  0.00     0.046 C 
HETATM   41  C16 UNL     1      13.081  45.700  12.403  1.00  0.00     0.046 C 
HETATM   42  C17 UNL     1      15.296  45.433  13.370  1.00  0.00     0.046 C 
ENDBRANCH  38  39
ENDBRANCH  35  38
ENDBRANCH  33  34
ENDBRANCH  11  33
ENDBRANCH   1   4
TORSDOF 10
ENDMDL
MODEL 2
REMARK VINA RESULT: -6.445931770      1.376      2.024
REMARK  10 active torsions:
REMARK  status: ('A' for Active; 'I' for Inactive)
REMARK    1  A    between atoms: C2_2  and  C3_3 
REMARK    2  A    between atoms: C3_3  and  S1_4 
REMARK    3  A    between atoms: S1_4  and  N1_7 
REMARK    4  A    between atoms: N1_7  and  C4_9 
REMARK    5  A    between atoms: C11_18  and  C12_19 
REMARK    6  A    between atoms: C12_19  and  N2_20 
REMARK       I    between atoms: N2_20  and  C13_22 
REMARK    7  A    between atoms: C13_22  and  O4_24 
REMARK    8  A    between atoms: O4_24  and  C14_25 
REMARK    9  A    between atoms: C19_30  and  O5_31 
REMARK   10  A    between atoms: N3_34  and  C22_36 
ROOT
HETATM    1  C22 UNL     1      14.323  35.322  10.801  1.00  0.00     0.245 C 
HETATM    2  C23 UNL     1      14.004  35.111   9.367  1.00  0.00     0.078 C 
HETATM    3  N4  UNL     1      13.769  34.955   8.256  1.00  0.00    -0.196 NA
ENDROOT
BRANCH   1   4
HETATM    4  N3  UNL     1      13.470  36.344  11.321  1.00  0.00    -0.365 N 
HETATM    5  C21 UNL     1      13.627  37.015  12.403  1.00  0.00     0.117 C 
HETATM    6  C19 UNL     1      12.563  37.985  12.634  1.00  0.00     0.127 C 
HETATM    7  N5  UNL     1      14.807  36.648  13.107  1.00  0.00    -0.310 N 
HETATM    8  C10 UNL     1      12.454  38.728  13.863  1.00  0.00     0.071 C 
HETATM    9  C18 UNL     1      12.907  39.283  11.888  1.00  0.00     0.054 C 
HETATM   10  C8  UNL     1      12.980  38.269  15.123  1.00  0.00     0.008 A 
HETATM   11  C11 UNL     1      13.281  39.856  13.227  1.00  0.00     0.019 C 
HETATM   12  C7  UNL     1      14.059  37.455  15.487  1.00  0.00     0.064 A 
HETATM   13  C9  UNL     1      12.258  38.751  16.191  1.00  0.00     0.151 A 
HETATM   14  C6  UNL     1      14.385  37.152  16.772  1.00  0.00     0.052 A 
HETATM   15  C24 UNL     1      14.961  36.822  14.534  1.00  0.00     0.259 C 
HETATM   16  C5  UNL     1      13.616  37.671  17.810  1.00  0.00     0.058 A 
HETATM   17 CL1  UNL     1      15.759  36.123  17.100  1.00  0.00    -0.083 Cl
HETATM   18  C4  UNL     1      12.556  38.468  17.529  1.00  0.00     0.083 A 
HETATM   19  O6  UNL     1      16.040  36.346  14.961  1.00  0.00    -0.267 OA
HETATM   20  F1  UNL     1      11.187  39.546  15.978  1.00  0.00    -0.203 F 
ATOM     21  H5  UNL     1      15.581  36.242  12.581  1.00  0.00     0.170 HD
ATOM     22  H3  UNL     1      12.641  36.564  10.768  1.00  0.00     0.161 HD
BRANCH   6  23
HETATM   23  O5  UNL     1      11.348  37.475  12.174  1.00  0.00    -0.376 OA
HETATM   24  C20 UNL     1      10.319  38.172  12.784  1.00  0.00     0.203 C 
ENDBRANCH   6  23
BRANCH  18  25
HETATM   25  N1  UNL     1      11.730  39.004  18.551  1.00  0.00    -0.281 N 
ATOM     26  H1  UNL     1      11.041  38.367  18.952  1.00  0.00     0.178 HD
BRANCH  25  27
HETATM   27  S1  UNL     1      11.748  40.569  19.185  1.00  0.00     0.231 S 
HETATM   28  O1  UNL     1      10.658  41.420  18.528  1.00  0.00    -0.206 OA
HETATM   29  O2  UNL     1      11.370  40.493  20.650  1.00  0.00    -0.206 OA
BRANCH  27  30
HETATM   30  C3  UNL     1      13.241  41.464  19.017  1.00  0.00     0.163 C 
BRANCH  30  31
HETATM   31  C2  UNL     1      13.290  42.026  17.597  1.00  0.00     0.012 C 
HETATM   32  C1  UNL     1      14.499  41.610  16.830  1.00  0.00     0.006 C 
ENDBRANCH  30  31
ENDBRANCH  27  30
ENDBRANCH  25  27
ENDBRANCH  18  25
BRANCH  11  33
HETATM   33  C12 UNL     1      12.832  41.244  13.506  1.00  0.00     0.130 C 
BRANCH  33  34
HETATM   34  N2  UNL     1      13.773  42.269  13.189  1.00  0.00    -0.336 N 
HETATM   35  C13 UNL     1      13.635  42.960  11.952  1.00  0.00     0.361 C 
HETATM   36  O3  UNL     1      12.693  42.678  11.134  1.00  0.00    -0.238 OA
ATOM     37  H2  UNL     1      14.528  42.501  13.835  1.00  0.00     0.164 HD
BRANCH  35  38
HETATM   38  O4  UNL     1      14.485  43.964  11.546  1.00  0.00    -0.294 OA
BRANCH  38  39
HETATM   39  C14 UNL     1      14.468  45.269  12.092  1.00  0.00     0.061 C 
HETATM   40  C15 UNL     1      15.035  46.214  11.059  1.00  0.00     0.046 C 
HETATM   41  C16 UNL     1      13.059  45.723  12.389  1.00  0.00     0.046 C 
HETATM   42  C17 UNL     1      15.250  45.355  13.378  1.00  0.00     0.046 C 
ENDBRANCH  38  39
ENDBRANCH  35  38
ENDBRANCH  33  34
ENDBRANCH  11  33
ENDBRANCH   1   4
TORSDOF 10
ENDMDL
MODEL 3
REMARK VINA RESULT: -6.331176317      3.131      5.481
REMARK  10 active torsions:
REMARK  status: ('A' for Active; 'I' for Inactive)
REMARK    1  A    between atoms: C2_2  and  C3_3 
REMARK    2  A    between atoms: C3_3  and  S1_4 
REMARK    3  A    between atoms: S1_4  and  N1_7 
REMARK    4  A    between atoms: N1_7  and  C4_9 
REMARK    5  A    between atoms: C11_18  and  C12_19 
REMARK    6  A    between atoms: C12_19  and  N2_20 
REMARK       I    between atoms: N2_20  and  C13_22 
REMARK    7  A    between atoms: C13_22  and  O4_24 
REMARK    8  A    between atoms: O4_24  and  C14_25 
REMARK    9  A    between atoms: C19_30  and  O5_31 
REMARK   10  A    between atoms: N3_34  and  C22_36 
ROOT
HETATM    1  C22 UNL     1       7.632  39.731  13.218  1.00  0.00     0.245 C 
HETATM    2  C23 UNL     1       7.328  40.917  12.381  1.00  0.00     0.078 C 
HETATM    3  N4  UNL     1       7.098  41.829  11.724  1.00  0.00    -0.196 NA
ENDROOT
BRANCH   1   4
HETATM    4  N3  UNL     1       8.793  40.003  14.006  1.00  0.00    -0.365 N 
HETATM    5  C21 UNL     1      10.005  39.667  13.750  1.00  0.00     0.117 C 
HETATM    6  C19 UNL     1      10.948  40.108  14.771  1.00  0.00     0.127 C 
HETATM    7  N5  UNL     1      10.127  38.949  12.529  1.00  0.00    -0.310 N 
HETATM    8  C10 UNL     1      12.329  39.700  14.769  1.00  0.00     0.071 C 
HETATM    9  C18 UNL     1      11.379  41.549  14.457  1.00  0.00     0.054 C 
HETATM   10  C8  UNL     1      12.802  38.485  14.158  1.00  0.00     0.008 A 
HETATM   11  C11 UNL     1      12.676  40.965  13.968  1.00  0.00     0.019 C 
HETATM   12  C7  UNL     1      12.374  37.712  13.072  1.00  0.00     0.064 A 
HETATM   13  C9  UNL     1      13.925  37.995  14.784  1.00  0.00     0.151 A 
HETATM   14  C6  UNL     1      12.992  36.575  12.655  1.00  0.00     0.052 A 
HETATM   15  C24 UNL     1      11.205  38.024  12.261  1.00  0.00     0.259 C 
HETATM   16  C5  UNL     1      14.126  36.130  13.330  1.00  0.00     0.058 A 
HETATM   17 CL1  UNL     1      12.361  35.696  11.283  1.00  0.00    -0.083 Cl
HETATM   18  C4  UNL     1      14.597  36.831  14.391  1.00  0.00     0.083 A 
HETATM   19  O6  UNL     1      11.067  37.432  11.163  1.00  0.00    -0.267 OA
HETATM   20  F1  UNL     1      14.441  38.644  15.851  1.00  0.00    -0.203 F 
ATOM     21  H5  UNL     1       9.421  39.095  11.807  1.00  0.00     0.170 HD
ATOM     22  H3  UNL     1       8.641  40.524  14.869  1.00  0.00     0.161 HD
BRANCH   6  23
HETATM   23  O5  UNL     1      10.345  40.051  16.029  1.00  0.00    -0.376 OA
HETATM   24  C20 UNL     1      11.336  40.113  16.995  1.00  0.00     0.203 C 
ENDBRANCH   6  23
BRANCH  18  25
HETATM   25  N1  UNL     1      15.736  36.407  15.124  1.00  0.00    -0.281 N 
ATOM     26  H1  UNL     1      16.610  36.888  14.911  1.00  0.00     0.178 HD
BRANCH  25  27
HETATM   27  S1  UNL     1      15.820  35.204  16.305  1.00  0.00     0.231 S 
HETATM   28  O1  UNL     1      14.424  34.907  16.860  1.00  0.00    -0.206 OA
HETATM   29  O2  UNL     1      16.271  33.918  15.644  1.00  0.00    -0.206 OA
BRANCH  27  30
HETATM   30  C3  UNL     1      16.839  35.533  17.687  1.00  0.00     0.163 C 
BRANCH  30  31
HETATM   31  C2  UNL     1      16.851  34.284  18.566  1.00  0.00     0.012 C 
HETATM   32  C1  UNL     1      18.001  34.227  19.512  1.00  0.00     0.006 C 
ENDBRANCH  30  31
ENDBRANCH  27  30
ENDBRANCH  25  27
ENDBRANCH  18  25
BRANCH  11  33
HETATM   33  C12 UNL     1      13.917  41.679  14.364  1.00  0.00     0.130 C 
BRANCH  33  34
HETATM   34  N2  UNL     1      14.526  42.465  13.340  1.00  0.00    -0.336 N 
HETATM   35  C13 UNL     1      14.331  43.875  13.359  1.00  0.00     0.361 C 
HETATM   36  O3  UNL     1      13.629  44.437  14.268  1.00  0.00    -0.238 OA
ATOM     37  H2  UNL     1      15.088  42.026  12.611  1.00  0.00     0.164 HD
BRANCH  35  38
HETATM   38  O4  UNL     1      14.871  44.727  12.421  1.00  0.00    -0.294 OA
BRANCH  38  39
HETATM   39  C14 UNL     1      14.176  45.158  11.267  1.00  0.00     0.061 C 
HETATM   40  C15 UNL     1      13.709  46.575  11.505  1.00  0.00     0.046 C 
HETATM   41  C16 UNL     1      15.080  45.182  10.057  1.00  0.00     0.046 C 
HETATM   42  C17 UNL     1      13.009  44.261  10.941  1.00  0.00     0.046 C 
ENDBRANCH  38  39
ENDBRANCH  35  38
ENDBRANCH  33  34
ENDBRANCH  11  33
ENDBRANCH   1   4
TORSDOF 10
ENDMDL
MODEL 4
REMARK VINA RESULT: -6.311110525      3.918      6.419
REMARK  10 active torsions:
REMARK  status: ('A' for Active; 'I' for Inactive)
REMARK    1  A    between atoms: C2_2  and  C3_3 
REMARK    2  A    between atoms: C3_3  and  S1_4 
REMARK    3  A    between atoms: S1_4  and  N1_7 
REMARK    4  A    between atoms: N1_7  and  C4_9 
REMARK    5  A    between atoms: C11_18  and  C12_19 
REMARK    6  A    between atoms: C12_19  and  N2_20 
REMARK       I    between atoms: N2_20  and  C13_22 
REMARK    7  A    between atoms: C13_22  and  O4_24 
REMARK    8  A    between atoms: O4_24  and  C14_25 
REMARK    9  A    between atoms: C19_30  and  O5_31 
REMARK   10  A    between atoms: N3_34  and  C22_36 
ROOT
HETATM    1  C22 UNL     1       7.800  34.926  13.704  1.00  0.00     0.245 C 
HETATM    2  C23 UNL     1       6.524  34.793  12.960  1.00  0.00     0.078 C 
HETATM    3  N4  UNL     1       5.543  34.690  12.375  1.00  0.00    -0.196 NA
ENDROOT
BRANCH   1   4
HETATM    4  N3  UNL     1       7.969  36.288  14.098  1.00  0.00    -0.365 N 
HETATM    5  C21 UNL     1       8.757  37.158  13.580  1.00  0.00     0.117 C 
HETATM    6  C19 UNL     1       8.677  38.462  14.229  1.00  0.00     0.127 C 
HETATM    7  N5  UNL     1       9.512  36.634  12.495  1.00  0.00    -0.310 N 
HETATM    8  C10 UNL     1       9.586  39.533  13.916  1.00  0.00     0.071 C 
HETATM    9  C18 UNL     1       7.528  39.260  13.594  1.00  0.00     0.054 C 
HETATM   10  C8  UNL     1      10.912  39.328  13.393  1.00  0.00     0.008 A 
HETATM   11  C11 UNL     1       8.586  40.045  12.868  1.00  0.00     0.019 C 
HETATM   12  C7  UNL     1      11.501  38.340  12.594  1.00  0.00     0.064 A 
HETATM   13  C9  UNL     1      11.775  40.336  13.760  1.00  0.00     0.151 A 
HETATM   14  C6  UNL     1      12.803  38.351  12.204  1.00  0.00     0.052 A 
HETATM   15  C24 UNL     1      10.791  37.171  12.091  1.00  0.00     0.259 C 
HETATM   16  C5  UNL     1      13.625  39.398  12.608  1.00  0.00     0.058 A 
HETATM   17 CL1  UNL     1      13.421  37.057  11.204  1.00  0.00    -0.083 Cl
HETATM   18  C4  UNL     1      13.122  40.390  13.383  1.00  0.00     0.083 A 
HETATM   19  O6  UNL     1      11.325  36.500  11.174  1.00  0.00    -0.267 OA
HETATM   20  F1  UNL     1      11.336  41.351  14.537  1.00  0.00    -0.203 F 
ATOM     21  H5  UNL     1       9.132  35.842  11.977  1.00  0.00     0.170 HD
ATOM     22  H3  UNL     1       7.397  36.606  14.881  1.00  0.00     0.161 HD
BRANCH   6  23
HETATM   23  O5  UNL     1       8.448  38.297  15.596  1.00  0.00    -0.376 OA
HETATM   24  C20 UNL     1       8.650  39.514  16.226  1.00  0.00     0.203 C 
ENDBRANCH   6  23
BRANCH  18  25
HETATM   25  N1  UNL     1      13.926  41.469  13.837  1.00  0.00    -0.281 N 
ATOM     26  H1  UNL     1      14.541  41.268  14.626  1.00  0.00     0.178 HD
BRANCH  25  27
HETATM   27  S1  UNL     1      13.987  43.043  13.230  1.00  0.00     0.231 S 
HETATM   28  O1  UNL     1      12.830  43.873  13.791  1.00  0.00    -0.206 OA
HETATM   29  O2  UNL     1      15.246  43.704  13.752  1.00  0.00    -0.206 OA
BRANCH  27  30
HETATM   30  C3  UNL     1      13.920  43.215  11.491  1.00  0.00     0.163 C 
BRANCH  30  31
HETATM   31  C2  UNL     1      13.952  44.708  11.170  1.00  0.00     0.012 C 
HETATM   32  C1  UNL     1      14.965  45.078  10.141  1.00  0.00     0.006 C 
ENDBRANCH  30  31
ENDBRANCH  27  30
ENDBRANCH  25  27
ENDBRANCH  18  25
BRANCH  11  33
HETATM   33  C12 UNL     1       8.393  41.516  12.801  1.00  0.00     0.130 C 
BRANCH  33  34
HETATM   34  N2  UNL     1       8.428  42.080  11.490  1.00  0.00    -0.336 N 
HETATM   35  C13 UNL     1       8.005  43.429  11.319  1.00  0.00     0.361 C 
HETATM   36  O3  UNL     1       7.601  44.130  12.309  1.00  0.00    -0.238 OA
ATOM     37  H2  UNL     1       8.750  41.529  10.694  1.00  0.00     0.164 HD
BRANCH  35  38
HETATM   38  O4  UNL     1       7.998  44.071  10.101  1.00  0.00    -0.294 OA
BRANCH  38  39
HETATM   39  C14 UNL     1       9.046  44.910   9.655  1.00  0.00     0.061 C 
HETATM   40  C15 UNL     1       9.155  44.764   8.156  1.00  0.00     0.046 C 
HETATM   41  C16 UNL     1       8.748  46.363   9.942  1.00  0.00     0.046 C 
HETATM   42  C17 UNL     1      10.358  44.579  10.320  1.00  0.00     0.046 C 
ENDBRANCH  38  39
ENDBRANCH  35  38
ENDBRANCH  33  34
ENDBRANCH  11  33
ENDBRANCH   1   4
TORSDOF 10
ENDMDL
MODEL 5
REMARK VINA RESULT: -6.302189150      5.492      9.303
REMARK  10 active torsions:
REMARK  status: ('A' for Active; 'I' for Inactive)
REMARK    1  A    between atoms: C2_2  and  C3_3 
REMARK    2  A    between atoms: C3_3  and  S1_4 
REMARK    3  A    between atoms: S1_4  and  N1_7 
REMARK    4  A    between atoms: N1_7  and  C4_9 
REMARK    5  A    between atoms: C11_18  and  C12_19 
REMARK    6  A    between atoms: C12_19  and  N2_20 
REMARK       I    between atoms: N2_20  and  C13_22 
REMARK    7  A    between atoms: C13_22  and  O4_24 
REMARK    8  A    between atoms: O4_24  and  C14_25 
REMARK    9  A    between atoms: C19_30  and  O5_31 
REMARK   10  A    between atoms: N3_34  and  C22_36 
ROOT
HETATM    1  C22 UNL     1      15.263  38.356  13.633  1.00  0.00     0.245 C 
HETATM    2  C23 UNL     1      14.218  38.027  12.632  1.00  0.00     0.078 C 
HETATM    3  N4  UNL     1      13.403  37.780  11.864  1.00  0.00    -0.196 NA
ENDROOT
BRANCH   1   4
HETATM    4  N3  UNL     1      15.408  37.255  14.531  1.00  0.00    -0.365 N 
HETATM    5  C21 UNL     1      15.600  37.303  15.799  1.00  0.00     0.117 C 
HETATM    6  C19 UNL     1      15.704  35.984  16.413  1.00  0.00     0.127 C 
HETATM    7  N5  UNL     1      15.660  38.635  16.293  1.00  0.00    -0.310 N 
HETATM    8  C10 UNL     1      16.080  35.805  17.791  1.00  0.00     0.071 C 
HETATM    9  C18 UNL     1      14.290  35.478  16.740  1.00  0.00     0.054 C 
HETATM   10  C8  UNL     1      16.871  36.753  18.532  1.00  0.00     0.008 A 
HETATM   11  C11 UNL     1      14.592  35.815  18.174  1.00  0.00     0.019 C 
HETATM   12  C7  UNL     1      17.037  38.142  18.469  1.00  0.00     0.064 A 
HETATM   13  C9  UNL     1      17.613  36.146  19.520  1.00  0.00     0.151 A 
HETATM   14  C6  UNL     1      17.852  38.850  19.295  1.00  0.00     0.052 A 
HETATM   15  C24 UNL     1      16.365  38.998  17.501  1.00  0.00     0.259 C 
HETATM   16  C5  UNL     1      18.577  38.179  20.275  1.00  0.00     0.058 A 
HETATM   17 CL1  UNL     1      17.975  40.584  19.116  1.00  0.00    -0.083 Cl
HETATM   18  C4  UNL     1      18.464  36.833  20.395  1.00  0.00     0.083 A 
HETATM   19  O6  UNL     1      16.369  40.238  17.700  1.00  0.00    -0.267 OA
HETATM   20  F1  UNL     1      17.549  34.807  19.687  1.00  0.00    -0.203 F 
ATOM     21  H5  UNL     1      15.183  39.369  15.769  1.00  0.00     0.170 HD
ATOM     22  H3  UNL     1      15.352  36.324  14.118  1.00  0.00     0.161 HD
BRANCH   6  23
HETATM   23  O5  UNL     1      16.337  35.102  15.536  1.00  0.00    -0.376 OA
HETATM   24  C20 UNL     1      16.884  34.065  16.274  1.00  0.00     0.203 C 
ENDBRANCH   6  23
BRANCH  18  25
HETATM   25  N1  UNL     1      19.198  36.102  21.365  1.00  0.00    -0.281 N 
ATOM     26  H1  UNL     1      20.214  36.170  21.303  1.00  0.00     0.178 HD
BRANCH  25  27
HETATM   27  S1  UNL     1      18.594  35.133  22.609  1.00  0.00     0.231 S 
HETATM   28  O1  UNL     1      18.938  33.664  22.351  1.00  0.00    -0.206 OA
HETATM   29  O2  UNL     1      19.317  35.497  23.888  1.00  0.00    -0.206 OA
BRANCH  27  30
HETATM   30  C3  UNL     1      16.867  35.195  22.881  1.00  0.00     0.163 C 
BRANCH  30  31
HETATM   31  C2  UNL     1      16.280  33.851  22.454  1.00  0.00     0.012 C 
HETATM   32  C1  UNL     1      14.860  33.660  22.865  1.00  0.00     0.006 C 
ENDBRANCH  30  31
ENDBRANCH  27  30
ENDBRANCH  25  27
ENDBRANCH  18  25
BRANCH  11  33
HETATM   33  C12 UNL     1      14.164  34.824  19.194  1.00  0.00     0.130 C 
BRANCH  33  34
HETATM   34  N2  UNL     1      14.702  33.511  19.037  1.00  0.00    -0.336 N 
HETATM   35  C13 UNL     1      13.816  32.450  18.698  1.00  0.00     0.361 C 
HETATM   36  O3  UNL     1      12.564  32.654  18.535  1.00  0.00    -0.238 OA
ATOM     37  H2  UNL     1      15.699  33.338  19.164  1.00  0.00     0.164 HD
BRANCH  35  38
HETATM   38  O4  UNL     1      14.227  31.147  18.523  1.00  0.00    -0.294 OA
BRANCH  38  39
HETATM   39  C14 UNL     1      14.646  30.312  19.585  1.00  0.00     0.061 C 
HETATM   40  C15 UNL     1      14.906  28.934  19.021  1.00  0.00     0.046 C 
HETATM   41  C16 UNL     1      15.941  30.799  20.190  1.00  0.00     0.046 C 
HETATM   42  C17 UNL     1      13.626  30.250  20.693  1.00  0.00     0.046 C 
ENDBRANCH  38  39
ENDBRANCH  35  38
ENDBRANCH  33  34
ENDBRANCH  11  33
ENDBRANCH   1   4
TORSDOF 10
ENDMDL
