MODEL 1
REMARK VINA RESULT: -6.737208547      0.000      0.000
REMARK  13 active torsions:
REMARK  status: ('A' for Active; 'I' for Inactive)
REMARK       I    between atoms: C2_2  and  N1_4 
REMARK    1  A    between atoms: C3_6  and  O2_7 
REMARK    2  A    between atoms: C3_6  and  N2_9 
REMARK    3  A    between atoms: C4_11  and  O3_12 
REMARK    4  A    between atoms: C4_11  and  C5_14 
REMARK    5  A    between atoms: C9_20  and  O4_21 
REMARK    6  A    between atoms: O4_21  and  C10_22 
REMARK    7  A    between atoms: C10_22  and  C11_23 
REMARK    8  A    between atoms: C11_23  and  C12_25 
REMARK    9  A    between atoms: C12_25  and  O6_26 
REMARK   10  A    between atoms: C12_25  and  C13_28 
REMARK   11  A    between atoms: C13_28  and  C14_29 
REMARK   12  A    between atoms: C14_29  and  S1_30 
REMARK   13  A    between atoms: C15_32  and  O7_33 
ROOT
HETATM    1  C5  UNL     1      14.382  37.591  14.489  1.00  0.00     0.068 A 
HETATM    2  C6  UNL     1      13.174  38.112  14.832  1.00  0.00     0.029 A 
HETATM    3 BR1  UNL     1      11.868  38.718  13.582  1.00  0.00    -0.050 Br
HETATM    4  C7  UNL     1      12.776  38.179  16.183  1.00  0.00     0.042 A 
HETATM    5  C8  UNL     1      13.580  37.724  17.170  1.00  0.00     0.048 A 
HETATM    6 BR2  UNL     1      13.020  37.823  19.002  1.00  0.00    -0.048 Br
HETATM    7  C9  UNL     1      14.822  37.177  16.887  1.00  0.00     0.120 A 
HETATM    8  C15 UNL     1      15.223  37.108  15.565  1.00  0.00     0.116 A 
ENDROOT
BRANCH   1   9
HETATM    9  C4  UNL     1      14.890  37.508  13.156  1.00  0.00     0.157 C 
HETATM   10  N2  UNL     1      14.885  36.909  11.962  1.00  0.00    -0.302 N 
ATOM     11  H2  UNL     1      15.627  37.391  11.454  1.00  0.00     0.171 HD
BRANCH  10  12
HETATM   12  C3  UNL     1      14.408  35.974  11.031  1.00  0.00     0.225 C 
HETATM   13  N1  UNL     1      14.842  35.536   9.839  1.00  0.00    -0.290 N 
HETATM   14  C2  UNL     1      13.307  35.456   9.065  1.00  0.00     0.238 C 
ATOM     15  H1  UNL     1      15.779  35.320   9.501  1.00  0.00     0.172 HD
HETATM   16  C1  UNL     1      12.223  36.077   9.649  1.00  0.00     0.091 C 
HETATM   17  O1  UNL     1      13.463  34.822   8.037  1.00  0.00    -0.269 OA
BRANCH  12  18
HETATM   18  O2  UNL     1      13.244  35.441  11.517  1.00  0.00    -0.332 OA
ATOM     19  H2  UNL     1      13.221  35.201  12.436  1.00  0.00     0.221 HD
ENDBRANCH  12  18
ENDBRANCH  10  12
BRANCH   9  20
HETATM   20  O3  UNL     1      15.824  38.546  13.034  1.00  0.00    -0.345 OA
ATOM     21  H3  UNL     1      15.312  39.306  12.782  1.00  0.00     0.219 HD
ENDBRANCH   9  20
ENDBRANCH   1   9
BRANCH   8  22
HETATM   22  O7  UNL     1      16.406  36.585  15.356  1.00  0.00    -0.357 OA
ATOM     23  H7  UNL     1      17.079  36.559  16.025  1.00  0.00     0.217 HD
ENDBRANCH   8  22
BRANCH   7  24
HETATM   24  O4  UNL     1      15.575  36.759  17.904  1.00  0.00    -0.340 OA
BRANCH  24  25
HETATM   25  C10 UNL     1      15.657  35.696  18.755  1.00  0.00     0.257 C 
BRANCH  25  26
HETATM   26  C11 UNL     1      16.565  34.692  18.131  1.00  0.00     0.179 C 
HETATM   27  O5  UNL     1      17.759  34.830  18.289  1.00  0.00    -0.293 OA
BRANCH  26  28
HETATM   28  C12 UNL     1      16.070  33.539  17.348  1.00  0.00     0.190 C 
BRANCH  28  29
HETATM   29  O6  UNL     1      16.416  33.669  15.992  1.00  0.00    -0.388 OA
ATOM     30  H6  UNL     1      15.670  33.487  15.434  1.00  0.00     0.210 HD
ENDBRANCH  28  29
BRANCH  28  31
HETATM   31  C13 UNL     1      14.613  33.277  17.545  1.00  0.00     0.050 C 
BRANCH  31  32
HETATM   32  C14 UNL     1      14.319  31.869  17.941  1.00  0.00     0.090 C 
BRANCH  32  33
HETATM   33  S1  UNL     1      15.656  30.976  18.676  1.00  0.00    -0.085 SA
HETATM   34  S2  UNL     1      16.078  31.325  20.681  1.00  0.00    -0.013 SA
ENDBRANCH  32  33
ENDBRANCH  31  32
ENDBRANCH  28  31
ENDBRANCH  26  28
ENDBRANCH  25  26
ENDBRANCH  24  25
ENDBRANCH   7  24
TORSDOF 13
ENDMDL
MODEL 2
REMARK VINA RESULT: -6.650740033      0.962      1.227
REMARK  13 active torsions:
REMARK  status: ('A' for Active; 'I' for Inactive)
REMARK       I    between atoms: C2_2  and  N1_4 
REMARK    1  A    between atoms: C3_6  and  O2_7 
REMARK    2  A    between atoms: C3_6  and  N2_9 
REMARK    3  A    between atoms: C4_11  and  O3_12 
REMARK    4  A    between atoms: C4_11  and  C5_14 
REMARK    5  A    between atoms: C9_20  and  O4_21 
REMARK    6  A    between atoms: O4_21  and  C10_22 
REMARK    7  A    between atoms: C10_22  and  C11_23 
REMARK    8  A    between atoms: C11_23  and  C12_25 
REMARK    9  A    between atoms: C12_25  and  O6_26 
REMARK   10  A    between atoms: C12_25  and  C13_28 
REMARK   11  A    between atoms: C13_28  and  C14_29 
REMARK   12  A    between atoms: C14_29  and  S1_30 
REMARK   13  A    between atoms: C15_32  and  O7_33 
ROOT
HETATM    1  C5  UNL     1      14.424  37.500  14.460  1.00  0.00     0.068 A 
HETATM    2  C6  UNL     1      13.264  38.093  14.850  1.00  0.00     0.029 A 
HETATM    3 BR1  UNL     1      11.995  38.867  13.656  1.00  0.00    -0.050 Br
HETATM    4  C7  UNL     1      12.888  38.114  16.208  1.00  0.00     0.042 A 
HETATM    5  C8  UNL     1      13.665  37.544  17.157  1.00  0.00     0.048 A 
HETATM    6 BR2  UNL     1      13.136  37.584  18.999  1.00  0.00    -0.048 Br
HETATM    7  C9  UNL     1      14.858  36.920  16.824  1.00  0.00     0.120 A 
HETATM    8  C15 UNL     1      15.237  36.895  15.494  1.00  0.00     0.116 A 
ENDROOT
BRANCH   1   9
HETATM    9  C4  UNL     1      14.908  37.453  13.116  1.00  0.00     0.157 C 
HETATM   10  N2  UNL     1      14.900  36.871  11.914  1.00  0.00    -0.302 N 
ATOM     11  H2  UNL     1      15.615  37.384  11.399  1.00  0.00     0.171 HD
BRANCH  10  12
HETATM   12  C3  UNL     1      14.436  35.934  10.978  1.00  0.00     0.225 C 
HETATM   13  N1  UNL     1      14.888  35.492   9.794  1.00  0.00    -0.290 N 
HETATM   14  C2  UNL     1      13.364  35.413   8.997  1.00  0.00     0.238 C 
ATOM     15  H1  UNL     1      15.830  35.274   9.471  1.00  0.00     0.172 HD
HETATM   16  C1  UNL     1      12.273  36.036   9.562  1.00  0.00     0.091 C 
HETATM   17  O1  UNL     1      13.535  34.775   7.973  1.00  0.00    -0.269 OA
BRANCH  12  18
HETATM   18  O2  UNL     1      13.264  35.404  11.448  1.00  0.00    -0.332 OA
ATOM     19  H2  UNL     1      13.107  34.480  11.292  1.00  0.00     0.221 HD
ENDBRANCH  12  18
ENDBRANCH  10  12
BRANCH   9  20
HETATM   20  O3  UNL     1      15.805  38.523  12.992  1.00  0.00    -0.345 OA
ATOM     21  H3  UNL     1      16.646  38.168  13.256  1.00  0.00     0.219 HD
ENDBRANCH   9  20
ENDBRANCH   1   9
BRANCH   8  22
HETATM   22  O7  UNL     1      16.373  36.294  15.238  1.00  0.00    -0.357 OA
ATOM     23  H7  UNL     1      16.949  35.975  15.923  1.00  0.00     0.217 HD
ENDBRANCH   8  22
BRANCH   7  24
HETATM   24  O4  UNL     1      15.588  36.389  17.805  1.00  0.00    -0.340 OA
BRANCH  24  25
HETATM   25  C10 UNL     1      16.591  36.752  18.654  1.00  0.00     0.257 C 
BRANCH  25  26
HETATM   26  C11 UNL     1      17.784  35.925  18.317  1.00  0.00     0.179 C 
HETATM   27  O5  UNL     1      18.817  36.501  18.051  1.00  0.00    -0.293 OA
BRANCH  26  28
HETATM   28  C12 UNL     1      17.761  34.447  18.310  1.00  0.00     0.190 C 
BRANCH  28  29
HETATM   29  O6  UNL     1      17.112  33.962  17.162  1.00  0.00    -0.388 OA
ATOM     30  H6  UNL     1      17.417  33.089  16.944  1.00  0.00     0.210 HD
ENDBRANCH  28  29
BRANCH  28  31
HETATM   31  C13 UNL     1      17.211  33.861  19.569  1.00  0.00     0.050 C 
BRANCH  31  32
HETATM   32  C14 UNL     1      15.961  33.077  19.355  1.00  0.00     0.090 C 
BRANCH  32  33
HETATM   33  S1  UNL     1      15.997  31.396  19.899  1.00  0.00    -0.085 SA
HETATM   34  S2  UNL     1      15.260  29.937  18.614  1.00  0.00    -0.013 SA
ENDBRANCH  32  33
ENDBRANCH  31  32
ENDBRANCH  28  31
ENDBRANCH  26  28
ENDBRANCH  25  26
ENDBRANCH  24  25
ENDBRANCH   7  24
TORSDOF 13
ENDMDL
MODEL 3
REMARK VINA RESULT: -6.575025312      5.624      7.711
REMARK  13 active torsions:
REMARK  status: ('A' for Active; 'I' for Inactive)
REMARK       I    between atoms: C2_2  and  N1_4 
REMARK    1  A    between atoms: C3_6  and  O2_7 
REMARK    2  A    between atoms: C3_6  and  N2_9 
REMARK    3  A    between atoms: C4_11  and  O3_12 
REMARK    4  A    between atoms: C4_11  and  C5_14 
REMARK    5  A    between atoms: C9_20  and  O4_21 
REMARK    6  A    between atoms: O4_21  and  C10_22 
REMARK    7  A    between atoms: C10_22  and  C11_23 
REMARK    8  A    between atoms: C11_23  and  C12_25 
REMARK    9  A    between atoms: C12_25  and  O6_26 
REMARK   10  A    between atoms: C12_25  and  C13_28 
REMARK   11  A    between atoms: C13_28  and  C14_29 
REMARK   12  A    between atoms: C14_29  and  S1_30 
REMARK   13  A    between atoms: C15_32  and  O7_33 
ROOT
HETATM    1  C5  UNL     1      13.522  37.800  13.327  1.00  0.00     0.068 A 
HETATM    2  C6  UNL     1      13.406  37.519  14.653  1.00  0.00     0.029 A 
HETATM    3 BR1  UNL     1      14.617  36.418  15.631  1.00  0.00    -0.050 Br
HETATM    4  C7  UNL     1      12.377  38.097  15.424  1.00  0.00     0.042 A 
HETATM    5  C8  UNL     1      11.484  38.948  14.870  1.00  0.00     0.048 A 
HETATM    6 BR2  UNL     1      10.093  39.725  15.936  1.00  0.00    -0.048 Br
HETATM    7  C9  UNL     1      11.551  39.280  13.526  1.00  0.00     0.120 A 
HETATM    8  C15 UNL     1      12.555  38.717  12.759  1.00  0.00     0.116 A 
ENDROOT
BRANCH   1   9
HETATM    9  C4  UNL     1      14.507  37.243  12.455  1.00  0.00     0.157 C 
HETATM   10  N2  UNL     1      14.805  36.487  11.396  1.00  0.00    -0.302 N 
ATOM     11  H2  UNL     1      15.825  36.484  11.388  1.00  0.00     0.171 HD
BRANCH  10  12
HETATM   12  C3  UNL     1      14.469  35.694  10.288  1.00  0.00     0.225 C 
HETATM   13  N1  UNL     1      14.884  35.644   9.013  1.00  0.00    -0.290 N 
HETATM   14  C2  UNL     1      13.343  35.375   8.294  1.00  0.00     0.238 C 
ATOM     15  H1  UNL     1      15.812  35.737   8.601  1.00  0.00     0.172 HD
HETATM   16  C1  UNL     1      12.204  35.577   9.043  1.00  0.00     0.091 C 
HETATM   17  O1  UNL     1      13.546  35.038   7.141  1.00  0.00    -0.269 OA
BRANCH  12  18
HETATM   18  O2  UNL     1      13.501  34.806  10.674  1.00  0.00    -0.332 OA
ATOM     19  H2  UNL     1      13.720  33.882  10.656  1.00  0.00     0.221 HD
ENDBRANCH  12  18
ENDBRANCH  10  12
BRANCH   9  20
HETATM   20  O3  UNL     1      15.742  37.719  12.916  1.00  0.00    -0.345 OA
ATOM     21  H3  UNL     1      16.306  37.717  12.151  1.00  0.00     0.219 HD
ENDBRANCH   9  20
ENDBRANCH   1   9
BRANCH   8  22
HETATM   22  O7  UNL     1      12.569  39.064  11.496  1.00  0.00    -0.357 OA
ATOM     23  H7  UNL     1      11.914  39.637  11.115  1.00  0.00     0.217 HD
ENDBRANCH   8  22
BRANCH   7  24
HETATM   24  O4  UNL     1      10.634  40.114  13.034  1.00  0.00    -0.340 OA
BRANCH  24  25
HETATM   25  C10 UNL     1      10.314  41.438  13.086  1.00  0.00     0.257 C 
BRANCH  25  26
HETATM   26  C11 UNL     1      11.590  42.206  13.124  1.00  0.00     0.179 C 
HETATM   27  O5  UNL     1      12.033  42.521  14.208  1.00  0.00    -0.293 OA
BRANCH  26  28
HETATM   28  C12 UNL     1      12.338  42.583  11.904  1.00  0.00     0.190 C 
BRANCH  28  29
HETATM   29  O6  UNL     1      12.032  41.716  10.842  1.00  0.00    -0.388 OA
ATOM     30  H6  UNL     1      11.624  42.189  10.126  1.00  0.00     0.210 HD
ENDBRANCH  28  29
BRANCH  28  31
HETATM   31  C13 UNL     1      13.808  42.712  12.133  1.00  0.00     0.050 C 
BRANCH  31  32
HETATM   32  C14 UNL     1      14.313  44.101  11.932  1.00  0.00     0.090 C 
BRANCH  32  33
HETATM   33  S1  UNL     1      13.456  45.070  10.727  1.00  0.00    -0.085 SA
HETATM   34  S2  UNL     1      14.588  46.147   9.356  1.00  0.00    -0.013 SA
ENDBRANCH  32  33
ENDBRANCH  31  32
ENDBRANCH  28  31
ENDBRANCH  26  28
ENDBRANCH  25  26
ENDBRANCH  24  25
ENDBRANCH   7  24
TORSDOF 13
ENDMDL
MODEL 4
REMARK VINA RESULT: -6.521181767      7.079      9.156
REMARK  13 active torsions:
REMARK  status: ('A' for Active; 'I' for Inactive)
REMARK       I    between atoms: C2_2  and  N1_4 
REMARK    1  A    between atoms: C3_6  and  O2_7 
REMARK    2  A    between atoms: C3_6  and  N2_9 
REMARK    3  A    between atoms: C4_11  and  O3_12 
REMARK    4  A    between atoms: C4_11  and  C5_14 
REMARK    5  A    between atoms: C9_20  and  O4_21 
REMARK    6  A    between atoms: O4_21  and  C10_22 
REMARK    7  A    between atoms: C10_22  and  C11_23 
REMARK    8  A    between atoms: C11_23  and  C12_25 
REMARK    9  A    between atoms: C12_25  and  O6_26 
REMARK   10  A    between atoms: C12_25  and  C13_28 
REMARK   11  A    between atoms: C13_28  and  C14_29 
REMARK   12  A    between atoms: C14_29  and  S1_30 
REMARK   13  A    between atoms: C15_32  and  O7_33 
ROOT
HETATM    1  C5  UNL     1      13.591  39.311  12.902  1.00  0.00     0.068 A 
HETATM    2  C6  UNL     1      14.400  38.768  13.850  1.00  0.00     0.029 A 
HETATM    3 BR1  UNL     1      14.475  36.909  14.267  1.00  0.00    -0.050 Br
HETATM    4  C7  UNL     1      15.312  39.572  14.564  1.00  0.00     0.042 A 
HETATM    5  C8  UNL     1      15.410  40.899  14.324  1.00  0.00     0.048 A 
HETATM    6 BR2  UNL     1      16.657  41.974  15.305  1.00  0.00    -0.048 Br
HETATM    7  C9  UNL     1      14.616  41.513  13.367  1.00  0.00     0.120 A 
HETATM    8  C15 UNL     1      13.717  40.734  12.662  1.00  0.00     0.116 A 
ENDROOT
BRANCH   1   9
HETATM    9  C4  UNL     1      12.614  38.590  12.148  1.00  0.00     0.157 C 
HETATM   10  N2  UNL     1      12.305  37.553  11.367  1.00  0.00    -0.302 N 
ATOM     11  H2  UNL     1      11.330  37.723  11.123  1.00  0.00     0.171 HD
BRANCH  10  12
HETATM   12  C3  UNL     1      12.602  36.354  10.701  1.00  0.00     0.225 C 
HETATM   13  N1  UNL     1      13.736  35.690  10.429  1.00  0.00    -0.290 N 
HETATM   14  C2  UNL     1      13.326  35.203   8.830  1.00  0.00     0.238 C 
ATOM     15  H1  UNL     1      14.572  35.526  10.990  1.00  0.00     0.172 HD
HETATM   16  C1  UNL     1      12.255  35.797   8.197  1.00  0.00     0.091 C 
HETATM   17  O1  UNL     1      14.136  34.355   8.501  1.00  0.00    -0.269 OA
BRANCH  12  18
HETATM   18  O2  UNL     1      11.427  35.807  10.259  1.00  0.00    -0.332 OA
ATOM     19  H2  UNL     1      10.692  35.801  10.861  1.00  0.00     0.221 HD
ENDBRANCH  12  18
ENDBRANCH  10  12
BRANCH   9  20
HETATM   20  O3  UNL     1      11.410  39.290  12.309  1.00  0.00    -0.345 OA
ATOM     21  H3  UNL     1      11.075  39.406  11.427  1.00  0.00     0.219 HD
ENDBRANCH   9  20
ENDBRANCH   1   9
BRANCH   8  22
HETATM   22  O7  UNL     1      12.992  41.367  11.772  1.00  0.00    -0.357 OA
ATOM     23  H7  UNL     1      13.310  41.564  10.899  1.00  0.00     0.217 HD
ENDBRANCH   8  22
BRANCH   7  24
HETATM   24  O4  UNL     1      14.748  42.827  13.185  1.00  0.00    -0.340 OA
BRANCH  24  25
HETATM   25  C10 UNL     1      14.176  43.988  13.614  1.00  0.00     0.257 C 
BRANCH  25  26
HETATM   26  C11 UNL     1      14.549  45.056  12.644  1.00  0.00     0.179 C 
HETATM   27  O5  UNL     1      15.355  45.889  12.999  1.00  0.00    -0.293 OA
BRANCH  26  28
HETATM   28  C12 UNL     1      13.991  45.130  11.277  1.00  0.00     0.190 C 
BRANCH  28  29
HETATM   29  O6  UNL     1      13.067  44.095  11.056  1.00  0.00    -0.388 OA
ATOM     30  H6  UNL     1      12.820  44.052  10.140  1.00  0.00     0.210 HD
ENDBRANCH  28  29
BRANCH  28  31
HETATM   31  C13 UNL     1      15.041  45.197  10.216  1.00  0.00     0.050 C 
BRANCH  31  32
HETATM   32  C14 UNL     1      14.704  46.146   9.116  1.00  0.00     0.090 C 
BRANCH  32  33
HETATM   33  S1  UNL     1      14.664  47.858   9.554  1.00  0.00    -0.085 SA
HETATM   34  S2  UNL     1      15.326  49.241   8.151  1.00  0.00    -0.013 SA
ENDBRANCH  32  33
ENDBRANCH  31  32
ENDBRANCH  28  31
ENDBRANCH  26  28
ENDBRANCH  25  26
ENDBRANCH  24  25
ENDBRANCH   7  24
TORSDOF 13
ENDMDL
MODEL 5
REMARK VINA RESULT: -6.515056716      6.183      8.164
REMARK  13 active torsions:
REMARK  status: ('A' for Active; 'I' for Inactive)
REMARK       I    between atoms: C2_2  and  N1_4 
REMARK    1  A    between atoms: C3_6  and  O2_7 
REMARK    2  A    between atoms: C3_6  and  N2_9 
REMARK    3  A    between atoms: C4_11  and  O3_12 
REMARK    4  A    between atoms: C4_11  and  C5_14 
REMARK    5  A    between atoms: C9_20  and  O4_21 
REMARK    6  A    between atoms: O4_21  and  C10_22 
REMARK    7  A    between atoms: C10_22  and  C11_23 
REMARK    8  A    between atoms: C11_23  and  C12_25 
REMARK    9  A    between atoms: C12_25  and  O6_26 
REMARK   10  A    between atoms: C12_25  and  C13_28 
REMARK   11  A    between atoms: C13_28  and  C14_29 
REMARK   12  A    between atoms: C14_29  and  S1_30 
REMARK   13  A    between atoms: C15_32  and  O7_33 
ROOT
HETATM    1  C5  UNL     1      13.937  38.593  12.646  1.00  0.00     0.068 A 
HETATM    2  C6  UNL     1      12.585  38.664  12.772  1.00  0.00     0.029 A 
HETATM    3 BR1  UNL     1      11.404  37.182  12.563  1.00  0.00    -0.050 Br
HETATM    4  C7  UNL     1      11.958  39.872  13.141  1.00  0.00     0.042 A 
HETATM    5  C8  UNL     1      12.683  40.988  13.382  1.00  0.00     0.048 A 
HETATM    6 BR2  UNL     1      11.812  42.621  13.883  1.00  0.00    -0.048 Br
HETATM    7  C9  UNL     1      14.065  40.981  13.276  1.00  0.00     0.120 A 
HETATM    8  C15 UNL     1      14.689  39.801  12.913  1.00  0.00     0.116 A 
ENDROOT
BRANCH   1   9
HETATM    9  C4  UNL     1      14.662  37.428  12.248  1.00  0.00     0.157 C 
HETATM   10  N2  UNL     1      14.812  36.401  11.408  1.00  0.00    -0.302 N 
ATOM     11  H2  UNL     1      15.593  35.881  11.808  1.00  0.00     0.171 HD
BRANCH  10  12
HETATM   12  C3  UNL     1      14.472  35.653  10.271  1.00  0.00     0.225 C 
HETATM   13  N1  UNL     1      14.900  35.636   8.999  1.00  0.00    -0.290 N 
HETATM   14  C2  UNL     1      13.363  35.426   8.254  1.00  0.00     0.238 C 
ATOM     15  H1  UNL     1      15.836  35.720   8.602  1.00  0.00     0.172 HD
HETATM   16  C1  UNL     1      12.220  35.629   8.996  1.00  0.00     0.091 C 
HETATM   17  O1  UNL     1      13.573  35.122   7.093  1.00  0.00    -0.269 OA
BRANCH  12  18
HETATM   18  O2  UNL     1      13.479  34.775  10.616  1.00  0.00    -0.332 OA
ATOM     19  H2  UNL     1      13.740  33.911  10.911  1.00  0.00     0.221 HD
ENDBRANCH  12  18
ENDBRANCH  10  12
BRANCH   9  20
HETATM   20  O3  UNL     1      15.723  37.307  13.156  1.00  0.00    -0.345 OA
ATOM     21  H3  UNL     1      15.523  37.925  13.850  1.00  0.00     0.219 HD
ENDBRANCH   9  20
ENDBRANCH   1   9
BRANCH   8  22
HETATM   22  O7  UNL     1      15.996  39.852  12.826  1.00  0.00    -0.357 OA
ATOM     23  H7  UNL     1      16.567  39.326  13.373  1.00  0.00     0.217 HD
ENDBRANCH   8  22
BRANCH   7  24
HETATM   24  O4  UNL     1      14.723  42.115  13.513  1.00  0.00    -0.340 OA
BRANCH  24  25
HETATM   25  C10 UNL     1      15.425  42.706  14.522  1.00  0.00     0.257 C 
BRANCH  25  26
HETATM   26  C11 UNL     1      15.115  44.163  14.490  1.00  0.00     0.179 C 
HETATM   27  O5  UNL     1      14.663  44.670  15.494  1.00  0.00    -0.293 OA
BRANCH  26  28
HETATM   28  C12 UNL     1      15.348  45.008  13.298  1.00  0.00     0.190 C 
BRANCH  28  29
HETATM   29  O6  UNL     1      15.960  46.221  13.657  1.00  0.00    -0.388 OA
ATOM     30  H6  UNL     1      16.683  46.420  13.074  1.00  0.00     0.210 HD
ENDBRANCH  28  29
BRANCH  28  31
HETATM   31  C13 UNL     1      14.120  45.209  12.471  1.00  0.00     0.050 C 
BRANCH  31  32
HETATM   32  C14 UNL     1      14.206  44.566  11.128  1.00  0.00     0.090 C 
BRANCH  32  33
HETATM   33  S1  UNL     1      15.012  45.509   9.868  1.00  0.00    -0.085 SA
HETATM   34  S2  UNL     1      14.657  47.555   9.803  1.00  0.00    -0.013 SA
ENDBRANCH  32  33
ENDBRANCH  31  32
ENDBRANCH  28  31
ENDBRANCH  26  28
ENDBRANCH  25  26
ENDBRANCH  24  25
ENDBRANCH   7  24
TORSDOF 13
ENDMDL
