MODEL 1
REMARK VINA RESULT: -6.811405706      0.000      0.000
REMARK  11 active torsions:
REMARK  status: ('A' for Active; 'I' for Inactive)
REMARK    1  A    between atoms: C3_3  and  C4_4 
REMARK    2  A    between atoms: C4_4  and  C7_7 
REMARK    3  A    between atoms: C8_8  and  O1_9 
REMARK    4  A    between atoms: C9_11  and  S1_12 
REMARK    5  A    between atoms: S1_12  and  C10_15 
REMARK    6  A    between atoms: N2_26  and  C18_27 
REMARK    7  A    between atoms: C18_27  and  C19_28 
REMARK       I    between atoms: C19_28  and  N3_30 
REMARK    8  A    between atoms: N3_30  and  C20_32 
REMARK    9  A    between atoms: C20_32  and  C21_33 
REMARK   10  A    between atoms: C20_32  and  C25_37 
REMARK   11  A    between atoms: C21_33  and  C22_34 
ROOT
HETATM    1  C1  UNL     1      19.765  42.459  18.217  1.00  0.00     0.112 C 
HETATM    2  C2  UNL     1      18.377  42.056  18.138  1.00  0.00    -0.110 C 
HETATM    3  C3  UNL     1      17.217  41.733  18.067  1.00  0.00    -0.091 C 
ENDROOT
BRANCH   3   4
HETATM    4  C4  UNL     1      15.775  41.302  17.972  1.00  0.00     0.061 C 
HETATM    5  C5  UNL     1      15.053  42.654  17.797  1.00  0.00     0.035 C 
HETATM    6  C6  UNL     1      15.460  40.703  19.303  1.00  0.00     0.035 C 
BRANCH   4   7
HETATM    7  C7  UNL     1      15.660  40.466  16.795  1.00  0.00     0.068 A 
HETATM    8  C8  UNL     1      15.268  39.097  16.903  1.00  0.00     0.115 A 
HETATM    9  C9  UNL     1      15.260  38.535  15.663  1.00  0.00     0.140 A 
HETATM   10  C17 UNL     1      15.639  39.531  14.805  1.00  0.00     0.144 A 
HETATM   11  N1  UNL     1      15.749  39.324  13.402  1.00  0.00    -0.081 NA
HETATM   12  N2  UNL     1      15.876  40.693  15.506  1.00  0.00    -0.325 N 
BRANCH   8  13
HETATM   13  O1  UNL     1      14.946  38.444  18.075  1.00  0.00    -0.357 OA
ATOM     14  H1  UNL     1      14.185  38.620  18.614  1.00  0.00     0.217 HD
ENDBRANCH   8  13
BRANCH   9  15
HETATM   15  S1  UNL     1      14.851  36.866  15.271  1.00  0.00     0.213 S 
HETATM   16  O2  UNL     1      14.053  36.204  16.351  1.00  0.00    -0.217 OA
HETATM   17  O3  UNL     1      16.153  36.089  15.195  1.00  0.00    -0.217 OA
BRANCH  15  18
HETATM   18  C10 UNL     1      13.967  36.764  13.787  1.00  0.00     0.072 A 
HETATM   19  C11 UNL     1      14.512  36.069  12.735  1.00  0.00     0.050 A 
HETATM   20  C12 UNL     1      13.872  35.939  11.513  1.00  0.00     0.057 A 
HETATM   21 CL1  UNL     1      14.581  35.046  10.176  1.00  0.00    -0.083 Cl
HETATM   22  C13 UNL     1      12.638  36.527  11.330  1.00  0.00     0.056 A 
HETATM   23 CL2  UNL     1      11.800  36.381   9.796  1.00  0.00    -0.083 Cl
HETATM   24  C14 UNL     1      12.096  37.224  12.391  1.00  0.00     0.033 A 
HETATM   25  C15 UNL     1      12.738  37.354  13.616  1.00  0.00    -0.038 A 
HETATM   26  C16 UNL     1      12.098  38.129  14.739  1.00  0.00     0.050 C 
ENDBRANCH  15  18
ENDBRANCH   9  15
BRANCH  12  27
HETATM   27  C18 UNL     1      16.273  41.886  14.791  1.00  0.00     0.233 C 
BRANCH  27  28
HETATM   28  C19 UNL     1      15.146  42.599  14.147  1.00  0.00     0.236 C 
HETATM   29  O4  UNL     1      14.734  43.661  14.664  1.00  0.00    -0.272 OA
HETATM   30  N3  UNL     1      14.499  42.150  12.973  1.00  0.00    -0.344 N 
ATOM     31  H3  UNL     1      14.817  41.286  12.534  1.00  0.00     0.163 HD
BRANCH  30  32
HETATM   32  C20 UNL     1      13.365  42.899  12.353  1.00  0.00     0.197 C 
BRANCH  32  33
HETATM   33  C21 UNL     1      13.871  43.576  11.151  1.00  0.00     0.009 C 
BRANCH  33  34
HETATM   34  C22 UNL     1      14.571  44.858  11.188  1.00  0.00    -0.089 C 
HETATM   35  C23 UNL     1      13.887  45.931  12.041  1.00  0.00     0.042 C 
HETATM   36  C24 UNL     1      15.201  45.384   9.953  1.00  0.00     0.042 C 
ENDBRANCH  33  34
ENDBRANCH  32  33
BRANCH  32  37
HETATM   37  C25 UNL     1      12.181  42.085  12.305  1.00  0.00     0.257 C 
HETATM   38  N4  UNL     1      10.877  42.560  12.099  1.00  0.00    -0.060 NA
HETATM   39  O5  UNL     1      12.288  40.816  12.463  1.00  0.00    -0.274 OA
ENDBRANCH  32  37
ENDBRANCH  30  32
ENDBRANCH  27  28
ENDBRANCH  12  27
ENDBRANCH   4   7
ENDBRANCH   3   4
TORSDOF 11
ENDMDL
MODEL 2
REMARK VINA RESULT: -6.530701452      2.704      6.197
REMARK  11 active torsions:
REMARK  status: ('A' for Active; 'I' for Inactive)
REMARK    1  A    between atoms: C3_3  and  C4_4 
REMARK    2  A    between atoms: C4_4  and  C7_7 
REMARK    3  A    between atoms: C8_8  and  O1_9 
REMARK    4  A    between atoms: C9_11  and  S1_12 
REMARK    5  A    between atoms: S1_12  and  C10_15 
REMARK    6  A    between atoms: N2_26  and  C18_27 
REMARK    7  A    between atoms: C18_27  and  C19_28 
REMARK       I    between atoms: C19_28  and  N3_30 
REMARK    8  A    between atoms: N3_30  and  C20_32 
REMARK    9  A    between atoms: C20_32  and  C21_33 
REMARK   10  A    between atoms: C20_32  and  C25_37 
REMARK   11  A    between atoms: C21_33  and  C22_34 
ROOT
HETATM    1  C1  UNL     1      15.049  45.172   9.972  1.00  0.00     0.112 C 
HETATM    2  C2  UNL     1      14.198  44.361  10.816  1.00  0.00    -0.110 C 
HETATM    3  C3  UNL     1      13.500  43.678  11.524  1.00  0.00    -0.091 C 
ENDROOT
BRANCH   3   4
HETATM    4  C4  UNL     1      12.610  42.848  12.414  1.00  0.00     0.061 C 
HETATM    5  C5  UNL     1      11.458  42.482  11.453  1.00  0.00     0.035 C 
HETATM    6  C6  UNL     1      12.136  43.785  13.475  1.00  0.00     0.035 C 
BRANCH   4   7
HETATM    7  C7  UNL     1      13.376  41.685  12.812  1.00  0.00     0.068 A 
HETATM    8  C8  UNL     1      12.827  40.372  12.703  1.00  0.00     0.115 A 
HETATM    9  C9  UNL     1      13.735  39.468  13.162  1.00  0.00     0.140 A 
HETATM   10  C17 UNL     1      14.823  40.201  13.548  1.00  0.00     0.144 A 
HETATM   11  N1  UNL     1      15.992  39.599  14.089  1.00  0.00    -0.081 NA
HETATM   12  N2  UNL     1      14.589  41.542  13.329  1.00  0.00    -0.325 N 
BRANCH   8  13
HETATM   13  O1  UNL     1      11.576  40.063  12.210  1.00  0.00    -0.357 OA
ATOM     14  H1  UNL     1      10.758  40.149  12.684  1.00  0.00     0.217 HD
ENDBRANCH   8  13
BRANCH   9  15
HETATM   15  S1  UNL     1      13.525  37.719  13.239  1.00  0.00     0.213 S 
HETATM   16  O2  UNL     1      14.290  37.003  12.170  1.00  0.00    -0.217 OA
HETATM   17  O3  UNL     1      12.062  37.427  12.954  1.00  0.00    -0.217 OA
BRANCH  15  18
HETATM   18  C10 UNL     1      14.005  37.093  14.780  1.00  0.00     0.072 A 
HETATM   19  C11 UNL     1      14.921  36.070  14.825  1.00  0.00     0.050 A 
HETATM   20  C12 UNL     1      15.358  35.512  16.016  1.00  0.00     0.057 A 
HETATM   21 CL1  UNL     1      16.530  34.203  16.061  1.00  0.00    -0.083 Cl
HETATM   22  C13 UNL     1      14.861  35.990  17.210  1.00  0.00     0.056 A 
HETATM   23 CL2  UNL     1      15.394  35.306  18.735  1.00  0.00    -0.083 Cl
HETATM   24  C14 UNL     1      13.941  37.017  17.156  1.00  0.00     0.033 A 
HETATM   25  C15 UNL     1      13.503  37.578  15.963  1.00  0.00    -0.038 A 
HETATM   26  C16 UNL     1      12.496  38.698  15.965  1.00  0.00     0.050 C 
ENDBRANCH  15  18
ENDBRANCH   9  15
BRANCH  12  27
HETATM   27  C18 UNL     1      15.620  42.503  13.650  1.00  0.00     0.233 C 
BRANCH  27  28
HETATM   28  C19 UNL     1      15.966  42.550  15.090  1.00  0.00     0.236 C 
HETATM   29  O4  UNL     1      15.114  42.978  15.898  1.00  0.00    -0.272 OA
HETATM   30  N3  UNL     1      17.213  42.135  15.612  1.00  0.00    -0.344 N 
ATOM     31  H3  UNL     1      17.924  41.783  14.971  1.00  0.00     0.163 HD
BRANCH  30  32
HETATM   32  C20 UNL     1      17.523  42.196  17.072  1.00  0.00     0.197 C 
BRANCH  32  33
HETATM   33  C21 UNL     1      17.844  40.836  17.526  1.00  0.00     0.009 C 
BRANCH  33  34
HETATM   34  C22 UNL     1      16.839  39.788  17.691  1.00  0.00    -0.089 C 
HETATM   35  C23 UNL     1      15.492  40.280  18.227  1.00  0.00     0.042 C 
HETATM   36  C24 UNL     1      17.246  38.461  18.213  1.00  0.00     0.042 C 
ENDBRANCH  33  34
ENDBRANCH  32  33
BRANCH  32  37
HETATM   37  C25 UNL     1      18.395  43.303  17.362  1.00  0.00     0.257 C 
HETATM   38  N4  UNL     1      19.784  43.215  17.545  1.00  0.00    -0.060 NA
HETATM   39  O5  UNL     1      17.897  44.479  17.473  1.00  0.00    -0.274 OA
ENDBRANCH  32  37
ENDBRANCH  30  32
ENDBRANCH  27  28
ENDBRANCH  12  27
ENDBRANCH   4   7
ENDBRANCH   3   4
TORSDOF 11
ENDMDL
MODEL 3
REMARK VINA RESULT: -6.442187707      1.951      5.939
REMARK  11 active torsions:
REMARK  status: ('A' for Active; 'I' for Inactive)
REMARK    1  A    between atoms: C3_3  and  C4_4 
REMARK    2  A    between atoms: C4_4  and  C7_7 
REMARK    3  A    between atoms: C8_8  and  O1_9 
REMARK    4  A    between atoms: C9_11  and  S1_12 
REMARK    5  A    between atoms: S1_12  and  C10_15 
REMARK    6  A    between atoms: N2_26  and  C18_27 
REMARK    7  A    between atoms: C18_27  and  C19_28 
REMARK       I    between atoms: C19_28  and  N3_30 
REMARK    8  A    between atoms: N3_30  and  C20_32 
REMARK    9  A    between atoms: C20_32  and  C21_33 
REMARK   10  A    between atoms: C20_32  and  C25_37 
REMARK   11  A    between atoms: C21_33  and  C22_34 
ROOT
HETATM    1  C1  UNL     1      15.184  45.293   9.965  1.00  0.00     0.112 C 
HETATM    2  C2  UNL     1      14.088  44.635  10.643  1.00  0.00    -0.110 C 
HETATM    3  C3  UNL     1      13.183  44.080  11.217  1.00  0.00    -0.091 C 
ENDROOT
BRANCH   3   4
HETATM    4  C4  UNL     1      12.036  43.409  11.929  1.00  0.00     0.061 C 
HETATM    5  C5  UNL     1      11.046  43.165  10.770  1.00  0.00     0.035 C 
HETATM    6  C6  UNL     1      11.505  44.441  12.869  1.00  0.00     0.035 C 
BRANCH   4   7
HETATM    7  C7  UNL     1      12.546  42.171  12.480  1.00  0.00     0.068 A 
HETATM    8  C8  UNL     1      11.736  40.995  12.513  1.00  0.00     0.115 A 
HETATM    9  C9  UNL     1      12.438  39.986  13.098  1.00  0.00     0.140 A 
HETATM   10  C17 UNL     1      13.654  40.521  13.421  1.00  0.00     0.144 A 
HETATM   11  N1  UNL     1      14.675  39.762  14.057  1.00  0.00    -0.081 NA
HETATM   12  N2  UNL     1      13.703  41.845  13.039  1.00  0.00    -0.325 N 
BRANCH   8  13
HETATM   13  O1  UNL     1      10.448  40.893  12.030  1.00  0.00    -0.357 OA
ATOM     14  H1  UNL     1       9.665  40.803  12.559  1.00  0.00     0.217 HD
ENDBRANCH   8  13
BRANCH   9  15
HETATM   15  S1  UNL     1      11.872  38.340  13.376  1.00  0.00     0.213 S 
HETATM   16  O2  UNL     1      10.385  38.218  13.256  1.00  0.00    -0.217 OA
HETATM   17  O3  UNL     1      12.191  37.991  14.820  1.00  0.00    -0.217 OA
BRANCH  15  18
HETATM   18  C10 UNL     1      12.611  37.223  12.280  1.00  0.00     0.072 A 
HETATM   19  C11 UNL     1      12.081  37.077  11.022  1.00  0.00     0.050 A 
HETATM   20  C12 UNL     1      12.611  36.205  10.084  1.00  0.00     0.057 A 
HETATM   21 CL1  UNL     1      11.923  36.027   8.477  1.00  0.00    -0.083 Cl
HETATM   22  C13 UNL     1      13.715  35.447  10.413  1.00  0.00     0.056 A 
HETATM   23 CL2  UNL     1      14.412  34.335   9.250  1.00  0.00    -0.083 Cl
HETATM   24  C14 UNL     1      14.243  35.600  11.679  1.00  0.00     0.033 A 
HETATM   25  C15 UNL     1      13.711  36.473  12.619  1.00  0.00    -0.038 A 
HETATM   26  C16 UNL     1      14.330  36.598  13.988  1.00  0.00     0.050 C 
ENDBRANCH  15  18
ENDBRANCH   9  15
BRANCH  12  27
HETATM   27  C18 UNL     1      14.911  42.606  13.270  1.00  0.00     0.233 C 
BRANCH  27  28
HETATM   28  C19 UNL     1      15.327  42.650  14.691  1.00  0.00     0.236 C 
HETATM   29  O4  UNL     1      14.519  43.087  15.539  1.00  0.00    -0.272 OA
HETATM   30  N3  UNL     1      16.594  42.224  15.153  1.00  0.00    -0.344 N 
ATOM     31  H3  UNL     1      17.269  41.865  14.478  1.00  0.00     0.163 HD
BRANCH  30  32
HETATM   32  C20 UNL     1      16.975  42.284  16.595  1.00  0.00     0.197 C 
BRANCH  32  33
HETATM   33  C21 UNL     1      17.470  40.957  16.990  1.00  0.00     0.009 C 
BRANCH  33  34
HETATM   34  C22 UNL     1      16.787  40.103  17.958  1.00  0.00    -0.089 C 
HETATM   35  C23 UNL     1      17.698  39.106  18.680  1.00  0.00     0.042 C 
HETATM   36  C24 UNL     1      15.443  39.565  17.637  1.00  0.00     0.042 C 
ENDBRANCH  33  34
ENDBRANCH  32  33
BRANCH  32  37
HETATM   37  C25 UNL     1      17.734  43.474  16.874  1.00  0.00     0.257 C 
HETATM   38  N4  UNL     1      19.133  43.575  16.823  1.00  0.00    -0.060 NA
HETATM   39  O5  UNL     1      17.114  44.548  17.202  1.00  0.00    -0.274 OA
ENDBRANCH  32  37
ENDBRANCH  30  32
ENDBRANCH  27  28
ENDBRANCH  12  27
ENDBRANCH   4   7
ENDBRANCH   3   4
TORSDOF 11
ENDMDL
MODEL 4
REMARK VINA RESULT: -6.297741108      5.008      8.283
REMARK  11 active torsions:
REMARK  status: ('A' for Active; 'I' for Inactive)
REMARK    1  A    between atoms: C3_3  and  C4_4 
REMARK    2  A    between atoms: C4_4  and  C7_7 
REMARK    3  A    between atoms: C8_8  and  O1_9 
REMARK    4  A    between atoms: C9_11  and  S1_12 
REMARK    5  A    between atoms: S1_12  and  C10_15 
REMARK    6  A    between atoms: N2_26  and  C18_27 
REMARK    7  A    between atoms: C18_27  and  C19_28 
REMARK       I    between atoms: C19_28  and  N3_30 
REMARK    8  A    between atoms: N3_30  and  C20_32 
REMARK    9  A    between atoms: C20_32  and  C21_33 
REMARK   10  A    between atoms: C20_32  and  C25_37 
REMARK   11  A    between atoms: C21_33  and  C22_34 
ROOT
HETATM    1  C1  UNL     1      20.623  35.710  20.064  1.00  0.00     0.112 C 
HETATM    2  C2  UNL     1      19.265  36.193  19.939  1.00  0.00    -0.110 C 
HETATM    3  C3  UNL     1      18.137  36.605  19.824  1.00  0.00    -0.091 C 
ENDROOT
BRANCH   3   4
HETATM    4  C4  UNL     1      16.716  37.092  19.689  1.00  0.00     0.061 C 
HETATM    5  C5  UNL     1      16.813  38.512  20.287  1.00  0.00     0.035 C 
HETATM    6  C6  UNL     1      15.912  36.199  20.574  1.00  0.00     0.035 C 
BRANCH   4   7
HETATM    7  C7  UNL     1      16.411  37.117  18.273  1.00  0.00     0.068 A 
HETATM    8  C8  UNL     1      15.850  38.281  17.665  1.00  0.00     0.115 A 
HETATM    9  C9  UNL     1      15.639  38.036  16.342  1.00  0.00     0.140 A 
HETATM   10  C17 UNL     1      16.058  36.751  16.134  1.00  0.00     0.144 A 
HETATM   11  N1  UNL     1      15.994  36.128  14.857  1.00  0.00    -0.081 NA
HETATM   12  N2  UNL     1      16.524  36.210  17.313  1.00  0.00    -0.325 N 
BRANCH   8  13
HETATM   13  O1  UNL     1      15.566  39.467  18.310  1.00  0.00    -0.357 OA
ATOM     14  H1  UNL     1      16.103  39.874  18.978  1.00  0.00     0.217 HD
ENDBRANCH   8  13
BRANCH   9  15
HETATM   15  S1  UNL     1      14.958  39.157  15.165  1.00  0.00     0.213 S 
HETATM   16  O2  UNL     1      15.900  39.447  14.039  1.00  0.00    -0.217 OA
HETATM   17  O3  UNL     1      14.752  40.485  15.873  1.00  0.00    -0.217 OA
BRANCH  15  18
HETATM   18  C10 UNL     1      13.474  38.557  14.506  1.00  0.00     0.072 A 
HETATM   19  C11 UNL     1      13.440  38.170  13.189  1.00  0.00     0.050 A 
HETATM   20  C12 UNL     1      12.293  37.680  12.584  1.00  0.00     0.057 A 
HETATM   21 CL1  UNL     1      12.263  37.188  10.897  1.00  0.00    -0.083 Cl
HETATM   22  C13 UNL     1      11.133  37.571  13.320  1.00  0.00     0.056 A 
HETATM   23 CL2  UNL     1       9.665  36.954  12.586  1.00  0.00    -0.083 Cl
HETATM   24  C14 UNL     1      11.174  37.963  14.644  1.00  0.00     0.033 A 
HETATM   25  C15 UNL     1      12.323  38.454  15.250  1.00  0.00    -0.038 A 
HETATM   26  C16 UNL     1      12.310  38.866  16.700  1.00  0.00     0.050 C 
ENDBRANCH  15  18
ENDBRANCH   9  15
BRANCH  12  27
HETATM   27  C18 UNL     1      17.037  34.857  17.319  1.00  0.00     0.233 C 
BRANCH  27  28
HETATM   28  C19 UNL     1      16.013  33.832  17.624  1.00  0.00     0.236 C 
HETATM   29  O4  UNL     1      15.245  33.460  16.711  1.00  0.00    -0.272 OA
HETATM   30  N3  UNL     1      15.849  33.239  18.897  1.00  0.00    -0.344 N 
ATOM     31  H3  UNL     1      16.464  33.527  19.658  1.00  0.00     0.163 HD
BRANCH  30  32
HETATM   32  C20 UNL     1      14.805  32.206  19.165  1.00  0.00     0.197 C 
BRANCH  32  33
HETATM   33  C21 UNL     1      15.428  31.117  19.931  1.00  0.00     0.009 C 
BRANCH  33  34
HETATM   34  C22 UNL     1      15.071  29.711  19.759  1.00  0.00    -0.089 C 
HETATM   35  C23 UNL     1      15.245  29.182  18.332  1.00  0.00     0.042 C 
HETATM   36  C24 UNL     1      13.883  29.168  20.460  1.00  0.00     0.042 C 
ENDBRANCH  33  34
ENDBRANCH  32  33
BRANCH  32  37
HETATM   37  C25 UNL     1      13.581  32.820  19.606  1.00  0.00     0.257 C 
HETATM   38  N4  UNL     1      12.339  32.710  18.960  1.00  0.00    -0.060 NA
HETATM   39  O5  UNL     1      13.589  33.535  20.671  1.00  0.00    -0.274 OA
ENDBRANCH  32  37
ENDBRANCH  30  32
ENDBRANCH  27  28
ENDBRANCH  12  27
ENDBRANCH   4   7
ENDBRANCH   3   4
TORSDOF 11
ENDMDL
MODEL 5
REMARK VINA RESULT: -6.291343368      2.869      4.568
REMARK  11 active torsions:
REMARK  status: ('A' for Active; 'I' for Inactive)
REMARK    1  A    between atoms: C3_3  and  C4_4 
REMARK    2  A    between atoms: C4_4  and  C7_7 
REMARK    3  A    between atoms: C8_8  and  O1_9 
REMARK    4  A    between atoms: C9_11  and  S1_12 
REMARK    5  A    between atoms: S1_12  and  C10_15 
REMARK    6  A    between atoms: N2_26  and  C18_27 
REMARK    7  A    between atoms: C18_27  and  C19_28 
REMARK       I    between atoms: C19_28  and  N3_30 
REMARK    8  A    between atoms: N3_30  and  C20_32 
REMARK    9  A    between atoms: C20_32  and  C21_33 
REMARK   10  A    between atoms: C20_32  and  C25_37 
REMARK   11  A    between atoms: C21_33  and  C22_34 
ROOT
HETATM    1  C1  UNL     1      17.955  42.528  16.218  1.00  0.00     0.112 C 
HETATM    2  C2  UNL     1      16.869  43.212  15.549  1.00  0.00    -0.110 C 
HETATM    3  C3  UNL     1      15.970  43.781  14.980  1.00  0.00    -0.091 C 
ENDROOT
BRANCH   3   4
HETATM    4  C4  UNL     1      14.827  44.480  14.287  1.00  0.00     0.061 C 
HETATM    5  C5  UNL     1      15.575  45.460  13.359  1.00  0.00     0.035 C 
HETATM    6  C6  UNL     1      14.110  45.219  15.369  1.00  0.00     0.035 C 
BRANCH   4   7
HETATM    7  C7  UNL     1      14.102  43.471  13.543  1.00  0.00     0.068 A 
HETATM    8  C8  UNL     1      13.546  42.332  14.202  1.00  0.00     0.115 A 
HETATM    9  C9  UNL     1      12.943  41.533  13.280  1.00  0.00     0.140 A 
HETATM   10  C17 UNL     1      13.119  42.160  12.077  1.00  0.00     0.144 A 
HETATM   11  N1  UNL     1      12.620  41.621  10.859  1.00  0.00    -0.081 NA
HETATM   12  N2  UNL     1      13.823  43.332  12.254  1.00  0.00    -0.325 N 
BRANCH   8  13
HETATM   13  O1  UNL     1      13.608  42.079  15.556  1.00  0.00    -0.357 OA
ATOM     14  H1  UNL     1      12.895  42.193  16.173  1.00  0.00     0.217 HD
ENDBRANCH   8  13
BRANCH   9  15
HETATM   15  S1  UNL     1      12.117  40.008  13.595  1.00  0.00     0.213 S 
HETATM   16  O2  UNL     1      10.683  40.034  13.164  1.00  0.00    -0.217 OA
HETATM   17  O3  UNL     1      12.083  39.817  15.102  1.00  0.00    -0.217 OA
BRANCH  15  18
HETATM   18  C10 UNL     1      12.909  38.686  12.809  1.00  0.00     0.072 A 
HETATM   19  C11 UNL     1      12.247  38.011  11.814  1.00  0.00     0.050 A 
HETATM   20  C12 UNL     1      12.809  36.941  11.135  1.00  0.00     0.057 A 
HETATM   21 CL1  UNL     1      11.950  36.085   9.863  1.00  0.00    -0.083 Cl
HETATM   22  C13 UNL     1      14.083  36.526  11.461  1.00  0.00     0.056 A 
HETATM   23 CL2  UNL     1      14.823  35.177  10.621  1.00  0.00    -0.083 Cl
HETATM   24  C14 UNL     1      14.743  37.210  12.462  1.00  0.00     0.033 A 
HETATM   25  C15 UNL     1      14.180  38.282  13.143  1.00  0.00    -0.038 A 
HETATM   26  C16 UNL     1      14.948  38.991  14.228  1.00  0.00     0.050 C 
ENDBRANCH  15  18
ENDBRANCH   9  15
BRANCH  12  27
HETATM   27  C18 UNL     1      14.108  44.168  11.110  1.00  0.00     0.233 C 
BRANCH  27  28
HETATM   28  C19 UNL     1      12.986  45.055  10.723  1.00  0.00     0.236 C 
HETATM   29  O4  UNL     1      12.996  45.573   9.585  1.00  0.00    -0.272 OA
HETATM   30  N3  UNL     1      11.893  45.354  11.568  1.00  0.00    -0.344 N 
ATOM     31  H3  UNL     1      11.864  44.943  12.501  1.00  0.00     0.163 HD
BRANCH  30  32
HETATM   32  C20 UNL     1      10.780  46.253  11.140  1.00  0.00     0.197 C 
BRANCH  32  33
HETATM   33  C21 UNL     1       9.527  45.488  11.210  1.00  0.00     0.009 C 
BRANCH  33  34
HETATM   34  C22 UNL     1       9.145  44.484  10.219  1.00  0.00    -0.089 C 
HETATM   35  C23 UNL     1       9.245  43.038  10.710  1.00  0.00     0.042 C 
HETATM   36  C24 UNL     1       9.545  44.667   8.803  1.00  0.00     0.042 C 
ENDBRANCH  33  34
ENDBRANCH  32  33
BRANCH  32  37
HETATM   37  C25 UNL     1      10.899  47.544  11.762  1.00  0.00     0.257 C 
HETATM   38  N4  UNL     1      11.122  48.754  11.086  1.00  0.00    -0.060 NA
HETATM   39  O5  UNL     1      10.801  47.635  13.038  1.00  0.00    -0.274 OA
ENDBRANCH  32  37
ENDBRANCH  30  32
ENDBRANCH  27  28
ENDBRANCH  12  27
ENDBRANCH   4   7
ENDBRANCH   3   4
TORSDOF 11
ENDMDL
