MODEL 1
REMARK VINA RESULT: -6.317894268      0.000      0.000
REMARK  11 active torsions:
REMARK  status: ('A' for Active; 'I' for Inactive)
REMARK    1  A    between atoms: C2_2  and  N1_4 
REMARK       I    between atoms: N1_4  and  C4_6 
REMARK       I    between atoms: C4_6  and  N2_7 
REMARK       I    between atoms: C4_6  and  N4_12 
REMARK    2  A    between atoms: N2_7  and  N3_9 
REMARK    3  A    between atoms: N4_12  and  C5_14 
REMARK    4  A    between atoms: C6_19  and  C7_20 
REMARK    5  A    between atoms: C7_20  and  C8_21 
REMARK    6  A    between atoms: C8_21  and  S1_22 
REMARK    7  A    between atoms: S1_22  and  C9_23 
REMARK    8  A    between atoms: C9_23  and  C10_24 
REMARK    9  A    between atoms: C10_24  and  C11_25 
REMARK       I    between atoms: N9_31  and  C13_33 
REMARK   10  A    between atoms: C13_33  and  C14_35 
REMARK   11  A    between atoms: C14_35  and  C15_36 
ROOT
HETATM    1  S1  UNL     1      13.552  36.476  12.154  1.00  0.00    -0.168 SA
ENDROOT
BRANCH   1   2
HETATM    2  C8  UNL     1      14.985  37.227  12.893  1.00  0.00     0.080 C 
BRANCH   2   3
HETATM    3  C7  UNL     1      14.870  37.433  14.376  1.00  0.00     0.076 C 
BRANCH   3   4
HETATM    4  C6  UNL     1      15.205  38.866  14.715  1.00  0.00     0.070 A 
HETATM    5  N6  UNL     1      15.928  39.732  14.024  1.00  0.00    -0.296 N 
HETATM    6  N5  UNL     1      16.112  40.911  14.461  1.00  0.00    -0.279 N 
ATOM      7  H6  UNL     1      16.340  39.452  13.135  1.00  0.00     0.187 HD
HETATM    8  C5  UNL     1      15.565  41.261  15.628  1.00  0.00     0.180 A 
ATOM      9  H5  UNL     1      16.669  41.579  13.929  1.00  0.00     0.189 HD
HETATM   10  S3  UNL     1      14.765  39.804  16.073  1.00  0.00    -0.037 SA
BRANCH   8  11
HETATM   11  N4  UNL     1      15.630  42.392  16.244  1.00  0.00    -0.168 N 
HETATM   12  C4  UNL     1      16.678  43.316  16.205  1.00  0.00     0.694 C 
HETATM   13  N1  UNL     1      16.370  44.710  15.959  1.00  0.00    -0.221 N 
HETATM   14  N2  UNL     1      17.904  42.970  16.385  1.00  0.00    -0.139 N 
ATOM     15  H1  UNL     1      16.898  45.233  15.261  1.00  0.00     0.178 HD
ATOM     16  H2  UNL     1      18.151  41.995  16.559  1.00  0.00     0.205 HD
ATOM     17  H4  UNL     1      14.828  42.640  16.823  1.00  0.00     0.186 HD
BRANCH  13  18
HETATM   18  C2  UNL     1      15.327  45.351  16.694  1.00  0.00     0.091 C 
HETATM   19  C1  UNL     1      14.505  46.212  15.756  1.00  0.00     0.032 C 
HETATM   20  C3  UNL     1      15.882  46.166  17.835  1.00  0.00     0.032 C 
ENDBRANCH  13  18
BRANCH  14  21
HETATM   21  N3  UNL     1      18.888  43.955  16.336  1.00  0.00    -0.331 N 
ATOM     22  H32 UNL     1      18.632  44.916  16.107  1.00  0.00     0.177 HD
ATOM     23  H31 UNL     1      19.853  43.690  16.531  1.00  0.00     0.177 HD
ENDBRANCH  14  21
ENDBRANCH   8  11
ENDBRANCH   3   4
ENDBRANCH   2   3
ENDBRANCH   1   2
BRANCH   1  24
HETATM   24  C9  UNL     1      12.344  37.632  11.589  1.00  0.00     0.080 C 
BRANCH  24  25
HETATM   25  C10 UNL     1      11.239  37.964  12.548  1.00  0.00     0.076 C 
BRANCH  25  26
HETATM   26  C11 UNL     1      11.582  39.346  13.086  1.00  0.00     0.070 A 
HETATM   27  N7  UNL     1      11.069  39.947  14.146  1.00  0.00    -0.296 N 
HETATM   28  N8  UNL     1      11.457  41.110  14.469  1.00  0.00    -0.279 N 
ATOM     29  H7  UNL     1      10.359  39.474  14.704  1.00  0.00     0.187 HD
HETATM   30  C12 UNL     1      12.393  41.706  13.715  1.00  0.00     0.167 A 
ATOM     31  H8  UNL     1      11.066  41.583  15.284  1.00  0.00     0.189 HD
HETATM   32  N9  UNL     1      12.909  42.901  13.906  1.00  0.00    -0.306 N 
HETATM   33  S2  UNL     1      12.686  40.518  12.523  1.00  0.00    -0.038 SA
HETATM   34  C13 UNL     1      13.890  43.333  12.977  1.00  0.00     0.227 C 
ATOM     35  H9  UNL     1      12.616  43.490  14.685  1.00  0.00     0.171 HD
HETATM   36  O1  UNL     1      15.040  43.674  13.353  1.00  0.00    -0.273 OA
BRANCH  34  37
HETATM   37  C14 UNL     1      13.501  43.369  11.528  1.00  0.00     0.141 C 
BRANCH  37  38
HETATM   38  C15 UNL     1      13.861  44.698  10.958  1.00  0.00    -0.048 A 
HETATM   39  C16 UNL     1      14.864  44.828  10.030  1.00  0.00     0.009 A 
HETATM   40  C17 UNL     1      15.172  46.096   9.522  1.00  0.00     0.026 A 
HETATM   41  C18 UNL     1      14.460  47.205   9.962  1.00  0.00     0.055 A 
HETATM   42 CL1  UNL     1      14.870  48.777   9.311  1.00  0.00    -0.083 Cl
HETATM   43  C19 UNL     1      13.447  47.062  10.901  1.00  0.00     0.056 A 
HETATM   44 CL2  UNL     1      12.544  48.454  11.460  1.00  0.00    -0.083 Cl
HETATM   45  C20 UNL     1      13.158  45.806  11.390  1.00  0.00     0.033 A 
ENDBRANCH  37  38
ENDBRANCH  34  37
ENDBRANCH  25  26
ENDBRANCH  24  25
ENDBRANCH   1  24
TORSDOF 11
ENDMDL
MODEL 2
REMARK VINA RESULT: -6.205012458      3.903      5.549
REMARK  11 active torsions:
REMARK  status: ('A' for Active; 'I' for Inactive)
REMARK    1  A    between atoms: C2_2  and  N1_4 
REMARK       I    between atoms: N1_4  and  C4_6 
REMARK       I    between atoms: C4_6  and  N2_7 
REMARK       I    between atoms: C4_6  and  N4_12 
REMARK    2  A    between atoms: N2_7  and  N3_9 
REMARK    3  A    between atoms: N4_12  and  C5_14 
REMARK    4  A    between atoms: C6_19  and  C7_20 
REMARK    5  A    between atoms: C7_20  and  C8_21 
REMARK    6  A    between atoms: C8_21  and  S1_22 
REMARK    7  A    between atoms: S1_22  and  C9_23 
REMARK    8  A    between atoms: C9_23  and  C10_24 
REMARK    9  A    between atoms: C10_24  and  C11_25 
REMARK       I    between atoms: N9_31  and  C13_33 
REMARK   10  A    between atoms: C13_33  and  C14_35 
REMARK   11  A    between atoms: C14_35  and  C15_36 
ROOT
HETATM    1  S1  UNL     1      12.494  36.074  11.609  1.00  0.00    -0.168 SA
ENDROOT
BRANCH   1   2
HETATM    2  C8  UNL     1      14.117  36.215  12.322  1.00  0.00     0.080 C 
BRANCH   2   3
HETATM    3  C7  UNL     1      14.194  37.166  13.482  1.00  0.00     0.076 C 
BRANCH   3   4
HETATM    4  C6  UNL     1      14.893  36.496  14.640  1.00  0.00     0.070 A 
HETATM    5  N6  UNL     1      15.272  35.234  14.759  1.00  0.00    -0.296 N 
HETATM    6  N5  UNL     1      15.854  34.832  15.815  1.00  0.00    -0.279 N 
ATOM      7  H6  UNL     1      15.097  34.579  13.997  1.00  0.00     0.187 HD
HETATM    8  C5  UNL     1      16.076  35.705  16.802  1.00  0.00     0.180 A 
ATOM      9  H5  UNL     1      16.147  33.860  15.907  1.00  0.00     0.189 HD
HETATM   10  S3  UNL     1      15.404  37.142  16.136  1.00  0.00    -0.037 SA
BRANCH   8  11
HETATM   11  N4  UNL     1      16.642  35.505  17.943  1.00  0.00    -0.168 N 
HETATM   12  C4  UNL     1      16.968  34.276  18.522  1.00  0.00     0.694 C 
HETATM   13  N1  UNL     1      18.300  34.089  19.060  1.00  0.00    -0.221 N 
HETATM   14  N2  UNL     1      16.124  33.307  18.596  1.00  0.00    -0.139 N 
ATOM     15  H1  UNL     1      18.833  33.253  18.821  1.00  0.00     0.178 HD
ATOM     16  H2  UNL     1      15.179  33.410  18.225  1.00  0.00     0.205 HD
ATOM     17  H4  UNL     1      16.879  36.337  18.484  1.00  0.00     0.186 HD
BRANCH  13  18
HETATM   18  C2  UNL     1      18.866  35.076  19.924  1.00  0.00     0.091 C 
HETATM   19  C1  UNL     1      20.127  35.632  19.295  1.00  0.00     0.032 C 
HETATM   20  C3  UNL     1      19.145  34.510  21.294  1.00  0.00     0.032 C 
ENDBRANCH  13  18
BRANCH  14  21
HETATM   21  N3  UNL     1      16.528  32.116  19.193  1.00  0.00    -0.331 N 
ATOM     22  H32 UNL     1      17.381  32.093  19.753  1.00  0.00     0.177 HD
ATOM     23  H31 UNL     1      15.955  31.283  19.056  1.00  0.00     0.177 HD
ENDBRANCH  14  21
ENDBRANCH   8  11
ENDBRANCH   3   4
ENDBRANCH   2   3
ENDBRANCH   1   2
BRANCH   1  24
HETATM   24  C9  UNL     1      11.623  37.606  11.495  1.00  0.00     0.080 C 
BRANCH  24  25
HETATM   25  C10 UNL     1      10.662  37.910  12.606  1.00  0.00     0.076 C 
BRANCH  25  26
HETATM   26  C11 UNL     1      11.098  39.262  13.150  1.00  0.00     0.070 A 
HETATM   27  N7  UNL     1      10.584  39.922  14.174  1.00  0.00    -0.296 N 
HETATM   28  N8  UNL     1      11.058  41.050  14.508  1.00  0.00    -0.279 N 
ATOM     29  H7  UNL     1       9.806  39.522  14.697  1.00  0.00     0.187 HD
HETATM   30  C12 UNL     1      12.083  41.549  13.801  1.00  0.00     0.167 A 
ATOM     31  H8  UNL     1      10.667  41.566  15.296  1.00  0.00     0.189 HD
HETATM   32  N9  UNL     1      12.693  42.696  14.009  1.00  0.00    -0.306 N 
HETATM   33  S2  UNL     1      12.331  40.324  12.638  1.00  0.00    -0.038 SA
HETATM   34  C13 UNL     1      13.758  43.026  13.133  1.00  0.00     0.227 C 
ATOM     35  H9  UNL     1      12.412  43.320  14.766  1.00  0.00     0.171 HD
HETATM   36  O1  UNL     1      14.911  43.268  13.568  1.00  0.00    -0.273 OA
BRANCH  34  37
HETATM   37  C14 UNL     1      13.453  43.076  11.664  1.00  0.00     0.141 C 
BRANCH  37  38
HETATM   38  C15 UNL     1      13.747  44.443  11.150  1.00  0.00    -0.048 A 
HETATM   39  C16 UNL     1      14.809  44.676  10.311  1.00  0.00     0.009 A 
HETATM   40  C17 UNL     1      15.052  45.977   9.854  1.00  0.00     0.026 A 
HETATM   41  C18 UNL     1      14.218  47.014  10.253  1.00  0.00     0.055 A 
HETATM   42 CL1  UNL     1      14.550  48.630   9.666  1.00  0.00    -0.083 Cl
HETATM   43  C19 UNL     1      13.147  46.767  11.101  1.00  0.00     0.056 A 
HETATM   44 CL2  UNL     1      12.091  48.068  11.609  1.00  0.00    -0.083 Cl
HETATM   45  C20 UNL     1      12.923  45.480  11.542  1.00  0.00     0.033 A 
ENDBRANCH  37  38
ENDBRANCH  34  37
ENDBRANCH  25  26
ENDBRANCH  24  25
ENDBRANCH   1  24
TORSDOF 11
ENDMDL
MODEL 3
REMARK VINA RESULT: -6.160043497      4.860      7.984
REMARK  11 active torsions:
REMARK  status: ('A' for Active; 'I' for Inactive)
REMARK    1  A    between atoms: C2_2  and  N1_4 
REMARK       I    between atoms: N1_4  and  C4_6 
REMARK       I    between atoms: C4_6  and  N2_7 
REMARK       I    between atoms: C4_6  and  N4_12 
REMARK    2  A    between atoms: N2_7  and  N3_9 
REMARK    3  A    between atoms: N4_12  and  C5_14 
REMARK    4  A    between atoms: C6_19  and  C7_20 
REMARK    5  A    between atoms: C7_20  and  C8_21 
REMARK    6  A    between atoms: C8_21  and  S1_22 
REMARK    7  A    between atoms: S1_22  and  C9_23 
REMARK    8  A    between atoms: C9_23  and  C10_24 
REMARK    9  A    between atoms: C10_24  and  C11_25 
REMARK       I    between atoms: N9_31  and  C13_33 
REMARK   10  A    between atoms: C13_33  and  C14_35 
REMARK   11  A    between atoms: C14_35  and  C15_36 
ROOT
HETATM    1  S1  UNL     1      10.915  42.390  13.645  1.00  0.00    -0.168 SA
ENDROOT
BRANCH   1   2
HETATM    2  C8  UNL     1      10.834  42.884  11.938  1.00  0.00     0.080 C 
BRANCH   2   3
HETATM    3  C7  UNL     1      12.098  42.629  11.168  1.00  0.00     0.076 C 
BRANCH   3   4
HETATM    4  C6  UNL     1      12.901  43.905  11.079  1.00  0.00     0.070 A 
HETATM    5  N6  UNL     1      14.216  44.056  11.074  1.00  0.00    -0.296 N 
HETATM    6  N5  UNL     1      14.731  45.214  10.992  1.00  0.00    -0.279 N 
ATOM      7  H6  UNL     1      14.819  43.237  11.137  1.00  0.00     0.187 HD
HETATM    8  C5  UNL     1      13.925  46.276  10.910  1.00  0.00     0.180 A 
ATOM      9  H5  UNL     1      15.744  45.332  10.988  1.00  0.00     0.189 HD
HETATM   10  S3  UNL     1      12.377  45.526  10.957  1.00  0.00    -0.037 SA
BRANCH   8  11
HETATM   11  N4  UNL     1      14.239  47.524  10.823  1.00  0.00    -0.168 N 
HETATM   12  C4  UNL     1      14.568  48.233   9.665  1.00  0.00     0.694 C 
HETATM   13  N1  UNL     1      13.920  49.505   9.418  1.00  0.00    -0.221 N 
HETATM   14  N2  UNL     1      15.429  47.796   8.814  1.00  0.00    -0.139 N 
ATOM     15  H1  UNL     1      13.513  49.701   8.504  1.00  0.00     0.178 HD
ATOM     16  H2  UNL     1      15.900  46.903   8.961  1.00  0.00     0.205 HD
ATOM     17  H4  UNL     1      14.248  48.052  11.696  1.00  0.00     0.186 HD
BRANCH  13  18
HETATM   18  C2  UNL     1      13.852  50.485  10.456  1.00  0.00     0.091 C 
HETATM   19  C1  UNL     1      12.470  51.105  10.473  1.00  0.00     0.032 C 
HETATM   20  C3  UNL     1      14.920  51.537  10.286  1.00  0.00     0.032 C 
ENDBRANCH  13  18
BRANCH  14  21
HETATM   21  N3  UNL     1      15.704  48.568   7.688  1.00  0.00    -0.331 N 
ATOM     22  H32 UNL     1      16.551  48.392   7.148  1.00  0.00     0.177 HD
ATOM     23  H31 UNL     1      15.044  49.300   7.427  1.00  0.00     0.177 HD
ENDBRANCH  14  21
ENDBRANCH   8  11
ENDBRANCH   3   4
ENDBRANCH   2   3
ENDBRANCH   1   2
BRANCH   1  24
HETATM   24  C9  UNL     1      11.912  43.442  14.653  1.00  0.00     0.080 C 
BRANCH  24  25
HETATM   25  C10 UNL     1      12.781  42.763  15.669  1.00  0.00     0.076 C 
BRANCH  25  26
HETATM   26  C11 UNL     1      13.607  41.758  14.879  1.00  0.00     0.070 A 
HETATM   27  N7  UNL     1      14.428  42.005  13.874  1.00  0.00    -0.296 N 
HETATM   28  N8  UNL     1      15.049  41.054  13.309  1.00  0.00    -0.279 N 
ATOM     29  H7  UNL     1      14.564  42.963  13.551  1.00  0.00     0.187 HD
HETATM   30  C12 UNL     1      14.850  39.805  13.756  1.00  0.00     0.167 A 
ATOM     31  H8  UNL     1      15.684  41.235  12.532  1.00  0.00     0.189 HD
HETATM   32  N9  UNL     1      15.409  38.708  13.291  1.00  0.00    -0.306 N 
HETATM   33  S2  UNL     1      13.733  40.063  15.021  1.00  0.00    -0.038 SA
HETATM   34  C13 UNL     1      15.050  37.488  13.918  1.00  0.00     0.227 C 
ATOM     35  H9  UNL     1      16.070  38.735  12.515  1.00  0.00     0.171 HD
HETATM   36  O1  UNL     1      15.917  36.736  14.430  1.00  0.00    -0.273 OA
BRANCH  34  37
HETATM   37  C14 UNL     1      13.593  37.129  13.946  1.00  0.00     0.141 C 
BRANCH  37  38
HETATM   38  C15 UNL     1      13.145  36.791  12.566  1.00  0.00    -0.048 A 
HETATM   39  C16 UNL     1      11.975  37.292  12.053  1.00  0.00     0.009 A 
HETATM   40  C17 UNL     1      11.589  36.945  10.752  1.00  0.00     0.026 A 
HETATM   41  C18 UNL     1      12.394  36.101   9.998  1.00  0.00     0.055 A 
HETATM   42 CL1  UNL     1      11.884  35.685   8.376  1.00  0.00    -0.083 Cl
HETATM   43  C19 UNL     1      13.577  35.601  10.526  1.00  0.00     0.056 A 
HETATM   44 CL2  UNL     1      14.597  34.537   9.582  1.00  0.00    -0.083 Cl
HETATM   45  C20 UNL     1      13.940  35.952  11.809  1.00  0.00     0.033 A 
ENDBRANCH  37  38
ENDBRANCH  34  37
ENDBRANCH  25  26
ENDBRANCH  24  25
ENDBRANCH   1  24
TORSDOF 11
ENDMDL
MODEL 4
REMARK VINA RESULT: -6.091063270      1.510      2.137
REMARK  11 active torsions:
REMARK  status: ('A' for Active; 'I' for Inactive)
REMARK    1  A    between atoms: C2_2  and  N1_4 
REMARK       I    between atoms: N1_4  and  C4_6 
REMARK       I    between atoms: C4_6  and  N2_7 
REMARK       I    between atoms: C4_6  and  N4_12 
REMARK    2  A    between atoms: N2_7  and  N3_9 
REMARK    3  A    between atoms: N4_12  and  C5_14 
REMARK    4  A    between atoms: C6_19  and  C7_20 
REMARK    5  A    between atoms: C7_20  and  C8_21 
REMARK    6  A    between atoms: C8_21  and  S1_22 
REMARK    7  A    between atoms: S1_22  and  C9_23 
REMARK    8  A    between atoms: C9_23  and  C10_24 
REMARK    9  A    between atoms: C10_24  and  C11_25 
REMARK       I    between atoms: N9_31  and  C13_33 
REMARK   10  A    between atoms: C13_33  and  C14_35 
REMARK   11  A    between atoms: C14_35  and  C15_36 
ROOT
HETATM    1  S1  UNL     1      12.192  36.078  11.332  1.00  0.00    -0.168 SA
ENDROOT
BRANCH   1   2
HETATM    2  C8  UNL     1      13.911  36.054  11.784  1.00  0.00     0.080 C 
BRANCH   2   3
HETATM    3  C7  UNL     1      14.159  36.229  13.255  1.00  0.00     0.076 C 
BRANCH   3   4
HETATM    4  C6  UNL     1      14.813  37.568  13.502  1.00  0.00     0.070 A 
HETATM    5  N6  UNL     1      15.271  38.440  12.619  1.00  0.00    -0.296 N 
HETATM    6  N5  UNL     1      15.799  39.530  13.003  1.00  0.00    -0.279 N 
ATOM      7  H6  UNL     1      15.201  38.235  11.622  1.00  0.00     0.187 HD
HETATM    8  C5  UNL     1      15.882  39.781  14.313  1.00  0.00     0.180 A 
ATOM      9  H5  UNL     1      16.153  40.202  12.323  1.00  0.00     0.189 HD
HETATM   10  S3  UNL     1      15.160  38.365  14.972  1.00  0.00    -0.037 SA
BRANCH   8  11
HETATM   11  N4  UNL     1      16.376  40.813  14.907  1.00  0.00    -0.168 N 
HETATM   12  C4  UNL     1      15.957  41.373  16.116  1.00  0.00     0.694 C 
HETATM   13  N1  UNL     1      16.951  41.678  17.125  1.00  0.00    -0.221 N 
HETATM   14  N2  UNL     1      14.720  41.630  16.361  1.00  0.00    -0.139 N 
ATOM     15  H1  UNL     1      16.805  41.382  18.091  1.00  0.00     0.178 HD
ATOM     16  H2  UNL     1      13.998  41.425  15.670  1.00  0.00     0.205 HD
ATOM     17  H4  UNL     1      17.160  41.272  14.443  1.00  0.00     0.186 HD
BRANCH  13  18
HETATM   18  C2  UNL     1      18.136  42.391  16.768  1.00  0.00     0.091 C 
HETATM   19  C1  UNL     1      19.116  42.350  17.922  1.00  0.00     0.032 C 
HETATM   20  C3  UNL     1      17.820  43.812  16.371  1.00  0.00     0.032 C 
ENDBRANCH  13  18
BRANCH  14  21
HETATM   21  N3  UNL     1      14.388  42.193  17.591  1.00  0.00    -0.331 N 
ATOM     22  H32 UNL     1      13.583  42.815  17.663  1.00  0.00     0.177 HD
ATOM     23  H31 UNL     1      14.964  41.968  18.402  1.00  0.00     0.177 HD
ENDBRANCH  14  21
ENDBRANCH   8  11
ENDBRANCH   3   4
ENDBRANCH   2   3
ENDBRANCH   1   2
BRANCH   1  24
HETATM   24  C9  UNL     1      11.436  37.669  11.460  1.00  0.00     0.080 C 
BRANCH  24  25
HETATM   25  C10 UNL     1      10.574  37.903  12.665  1.00  0.00     0.076 C 
BRANCH  25  26
HETATM   26  C11 UNL     1      10.991  39.268  13.194  1.00  0.00     0.070 A 
HETATM   27  N7  UNL     1      10.442  39.949  14.185  1.00  0.00    -0.296 N 
HETATM   28  N8  UNL     1      10.903  41.085  14.509  1.00  0.00    -0.279 N 
ATOM     29  H7  UNL     1       9.646  39.560  14.689  1.00  0.00     0.187 HD
HETATM   30  C12 UNL     1      11.951  41.570  13.827  1.00  0.00     0.167 A 
ATOM     31  H8  UNL     1      10.485  41.619  15.272  1.00  0.00     0.189 HD
HETATM   32  N9  UNL     1      12.553  42.722  14.030  1.00  0.00    -0.306 N 
HETATM   33  S2  UNL     1      12.240  40.319  12.701  1.00  0.00    -0.038 SA
HETATM   34  C13 UNL     1      13.647  43.034  13.183  1.00  0.00     0.227 C 
ATOM     35  H9  UNL     1      12.246  43.362  14.763  1.00  0.00     0.171 HD
HETATM   36  O1  UNL     1      14.785  43.287  13.653  1.00  0.00    -0.273 OA
BRANCH  34  37
HETATM   37  C14 UNL     1      13.392  43.051  11.705  1.00  0.00     0.141 C 
BRANCH  37  38
HETATM   38  C15 UNL     1      13.722  44.401  11.167  1.00  0.00    -0.048 A 
HETATM   39  C16 UNL     1      14.801  44.595  10.340  1.00  0.00     0.009 A 
HETATM   40  C17 UNL     1      15.077  45.881   9.860  1.00  0.00     0.026 A 
HETATM   41  C18 UNL     1      14.259  46.943  10.225  1.00  0.00     0.055 A 
HETATM   42 CL1  UNL     1      14.632  48.539   9.611  1.00  0.00    -0.083 Cl
HETATM   43  C19 UNL     1      13.170  46.735  11.062  1.00  0.00     0.056 A 
HETATM   44 CL2  UNL     1      12.134  48.067  11.527  1.00  0.00    -0.083 Cl
HETATM   45  C20 UNL     1      12.914  45.462  11.525  1.00  0.00     0.033 A 
ENDBRANCH  37  38
ENDBRANCH  34  37
ENDBRANCH  25  26
ENDBRANCH  24  25
ENDBRANCH   1  24
TORSDOF 11
ENDMDL
MODEL 5
REMARK VINA RESULT: -6.083529956      4.745      8.207
REMARK  11 active torsions:
REMARK  status: ('A' for Active; 'I' for Inactive)
REMARK    1  A    between atoms: C2_2  and  N1_4 
REMARK       I    between atoms: N1_4  and  C4_6 
REMARK       I    between atoms: C4_6  and  N2_7 
REMARK       I    between atoms: C4_6  and  N4_12 
REMARK    2  A    between atoms: N2_7  and  N3_9 
REMARK    3  A    between atoms: N4_12  and  C5_14 
REMARK    4  A    between atoms: C6_19  and  C7_20 
REMARK    5  A    between atoms: C7_20  and  C8_21 
REMARK    6  A    between atoms: C8_21  and  S1_22 
REMARK    7  A    between atoms: S1_22  and  C9_23 
REMARK    8  A    between atoms: C9_23  and  C10_24 
REMARK    9  A    between atoms: C10_24  and  C11_25 
REMARK       I    between atoms: N9_31  and  C13_33 
REMARK   10  A    between atoms: C13_33  and  C14_35 
REMARK   11  A    between atoms: C14_35  and  C15_36 
ROOT
HETATM    1  S1  UNL     1      18.351  39.816  20.134  1.00  0.00    -0.168 SA
ENDROOT
BRANCH   1   2
HETATM    2  C8  UNL     1      18.922  41.490  19.952  1.00  0.00     0.080 C 
BRANCH   2   3
HETATM    3  C7  UNL     1      19.690  41.738  18.685  1.00  0.00     0.076 C 
BRANCH   3   4
HETATM    4  C6  UNL     1      18.782  42.378  17.661  1.00  0.00     0.070 A 
HETATM    5  N6  UNL     1      19.040  43.384  16.841  1.00  0.00    -0.296 N 
HETATM    6  N5  UNL     1      18.152  43.802  16.035  1.00  0.00    -0.279 N 
ATOM      7  H6  UNL     1      19.959  43.827  16.857  1.00  0.00     0.187 HD
HETATM    8  C5  UNL     1      16.954  43.209  16.028  1.00  0.00     0.180 A 
ATOM      9  H5  UNL     1      18.349  44.577  15.403  1.00  0.00     0.189 HD
HETATM   10  S3  UNL     1      17.167  42.012  17.246  1.00  0.00    -0.037 SA
BRANCH   8  11
HETATM   11  N4  UNL     1      15.925  43.477  15.299  1.00  0.00    -0.168 N 
HETATM   12  C4  UNL     1      15.574  44.715  14.755  1.00  0.00     0.694 C 
HETATM   13  N1  UNL     1      15.221  44.785  13.351  1.00  0.00    -0.221 N 
HETATM   14  N2  UNL     1      15.551  45.792  15.459  1.00  0.00    -0.139 N 
ATOM     15  H1  UNL     1      15.638  45.500  12.756  1.00  0.00     0.178 HD
ATOM     16  H2  UNL     1      15.796  45.774  16.449  1.00  0.00     0.205 HD
ATOM     17  H4  UNL     1      15.297  42.699  15.098  1.00  0.00     0.186 HD
BRANCH  13  18
HETATM   18  C2  UNL     1      14.289  43.852  12.802  1.00  0.00     0.091 C 
HETATM   19  C1  UNL     1      14.284  43.975  11.293  1.00  0.00     0.032 C 
HETATM   20  C3  UNL     1      12.908  44.059  13.371  1.00  0.00     0.032 C 
ENDBRANCH  13  18
BRANCH  14  21
HETATM   21  N3  UNL     1      15.184  46.985  14.839  1.00  0.00    -0.331 N 
ATOM     22  H32 UNL     1      14.316  47.033  14.306  1.00  0.00     0.177 HD
ATOM     23  H31 UNL     1      15.801  47.792  14.932  1.00  0.00     0.177 HD
ENDBRANCH  14  21
ENDBRANCH   8  11
ENDBRANCH   3   4
ENDBRANCH   2   3
ENDBRANCH   1   2
BRANCH   1  24
HETATM   24  C9  UNL     1      19.460  38.770  21.026  1.00  0.00     0.080 C 
BRANCH  24  25
HETATM   25  C10 UNL     1      19.011  37.355  21.245  1.00  0.00     0.076 C 
BRANCH  25  26
HETATM   26  C11 UNL     1      18.778  36.792  19.850  1.00  0.00     0.070 A 
HETATM   27  N7  UNL     1      19.640  36.739  18.849  1.00  0.00    -0.296 N 
HETATM   28  N8  UNL     1      19.295  36.239  17.736  1.00  0.00    -0.279 N 
ATOM     29  H7  UNL     1      20.585  37.102  18.972  1.00  0.00     0.187 HD
HETATM   30  C12 UNL     1      18.045  35.769  17.605  1.00  0.00     0.167 A 
ATOM     31  H8  UNL     1      19.953  36.194  16.958  1.00  0.00     0.189 HD
HETATM   32  N9  UNL     1      17.524  35.220  16.530  1.00  0.00    -0.306 N 
HETATM   33  S2  UNL     1      17.393  36.082  19.153  1.00  0.00    -0.038 SA
HETATM   34  C13 UNL     1      16.174  34.793  16.616  1.00  0.00     0.227 C 
ATOM     35  H9  UNL     1      18.065  35.106  15.673  1.00  0.00     0.171 HD
HETATM   36  O1  UNL     1      15.849  33.601  16.387  1.00  0.00    -0.273 OA
BRANCH  34  37
HETATM   37  C14 UNL     1      15.147  35.822  16.991  1.00  0.00     0.141 C 
BRANCH  37  38
HETATM   38  C15 UNL     1      15.156  36.914  15.978  1.00  0.00    -0.048 A 
HETATM   39  C16 UNL     1      15.500  38.199  16.318  1.00  0.00     0.009 A 
HETATM   40  C17 UNL     1      15.490  39.197  15.335  1.00  0.00     0.026 A 
HETATM   41  C18 UNL     1      15.136  38.875  14.031  1.00  0.00     0.055 A 
HETATM   42 CL1  UNL     1      15.132  40.145  12.826  1.00  0.00    -0.083 Cl
HETATM   43  C19 UNL     1      14.791  37.572  13.698  1.00  0.00     0.056 A 
HETATM   44 CL2  UNL     1      14.343  37.157  12.058  1.00  0.00    -0.083 Cl
HETATM   45  C20 UNL     1      14.804  36.603  14.679  1.00  0.00     0.033 A 
ENDBRANCH  37  38
ENDBRANCH  34  37
ENDBRANCH  25  26
ENDBRANCH  24  25
ENDBRANCH   1  24
TORSDOF 11
ENDMDL
