MODEL 1
REMARK VINA RESULT: -5.369960698      0.000      0.000
REMARK  8 active torsions:
REMARK  status: ('A' for Active; 'I' for Inactive)
REMARK    1  A    between atoms: C1_2  and  C2_3 
REMARK       I    between atoms: C1_2  and  N1_5 
REMARK    2  A    between atoms: N1_5  and  C3_7 
REMARK    3  A    between atoms: C3_7  and  C4_8 
REMARK    4  A    between atoms: C4_8  and  N2_9 
REMARK    5  A    between atoms: C4_8  and  S1_25 
REMARK    6  A    between atoms: N2_9  and  C5_11 
REMARK    7  A    between atoms: C5_11  and  C6_12 
REMARK       I    between atoms: C6_12  and  N3_14 
REMARK    8  A    between atoms: N3_14  and  C7_16 
ROOT
HETATM    1  C5  UNL     1      10.918  19.898  22.140  1.00  0.00     0.222 C 
ENDROOT
BRANCH   1   2
HETATM    2  N2  UNL     1       9.725  19.171  21.840  1.00  0.00    -0.377 N 
ATOM      3  H2  UNL     1       9.114  18.885  22.605  1.00  0.00     0.160 HD
BRANCH   2   4
HETATM    4  C4  UNL     1       9.360  18.830  20.484  1.00  0.00     0.076 C 
BRANCH   4   5
HETATM    5  C3  UNL     1       8.266  19.587  19.877  1.00  0.00     0.188 C 
BRANCH   5   6
HETATM    6  N1  UNL     1       8.675  20.798  19.208  1.00  0.00    -0.354 N 
HETATM    7  C1  UNL     1       8.267  22.088  19.654  1.00  0.00     0.227 C 
HETATM    8  O1  UNL     1       7.534  22.234  20.669  1.00  0.00    -0.273 OA
ATOM      9  H1  UNL     1       9.277  20.728  18.389  1.00  0.00     0.162 HD
BRANCH   7  10
HETATM   10  C2  UNL     1       8.694  23.298  18.929  1.00  0.00     0.187 C 
HETATM   11 BR1  UNL     1       7.268  24.499  18.518  1.00  0.00    -0.087 Br
ENDBRANCH   7  10
ENDBRANCH   5   6
ENDBRANCH   4   5
BRANCH   4  12
HETATM   12  S1  UNL     1      10.126  17.611  19.736  1.00  0.00    -0.004 SA
HETATM   13 CL1  UNL     1      11.714  16.554  20.610  1.00  0.00    -0.037 Cl
ENDBRANCH   4  12
ENDBRANCH   2   4
ENDBRANCH   1   2
BRANCH   1  14
HETATM   14  C6  UNL     1      10.762  21.357  22.204  1.00  0.00     0.235 C 
HETATM   15  O2  UNL     1       9.841  21.793  22.981  1.00  0.00    -0.272 OA
HETATM   16  N3  UNL     1      11.493  22.327  21.523  1.00  0.00    -0.355 N 
ATOM     17  H3  UNL     1      12.232  22.004  20.899  1.00  0.00     0.162 HD
BRANCH  16  18
HETATM   18  C7  UNL     1      11.292  23.752  21.630  1.00  0.00     0.092 C 
HETATM   19  C8  UNL     1      11.635  24.418  20.310  1.00  0.00     0.058 C 
HETATM   20  C9  UNL     1      12.511  25.603  20.668  1.00  0.00     0.188 C 
HETATM   21  C10 UNL     1      11.972  25.909  22.078  1.00  0.00     0.041 C 
HETATM   22  N4  UNL     1      13.815  25.105  20.998  1.00  0.00    -0.070 N 
HETATM   23  C11 UNL     1      12.170  24.465  22.588  1.00  0.00     0.036 C 
HETATM   24  C12 UNL     1      13.612  24.288  22.185  1.00  0.00     0.239 C 
ATOM     25  H42 UNL     1      14.278  24.616  20.232  1.00  0.00     0.277 HD
ATOM     26  H41 UNL     1      14.521  25.833  21.112  1.00  0.00     0.277 HD
ENDBRANCH  16  18
ENDBRANCH   1  14
TORSDOF 8
ENDMDL
MODEL 2
REMARK VINA RESULT: -5.344120672      4.972      7.204
REMARK  8 active torsions:
REMARK  status: ('A' for Active; 'I' for Inactive)
REMARK    1  A    between atoms: C1_2  and  C2_3 
REMARK       I    between atoms: C1_2  and  N1_5 
REMARK    2  A    between atoms: N1_5  and  C3_7 
REMARK    3  A    between atoms: C3_7  and  C4_8 
REMARK    4  A    between atoms: C4_8  and  N2_9 
REMARK    5  A    between atoms: C4_8  and  S1_25 
REMARK    6  A    between atoms: N2_9  and  C5_11 
REMARK    7  A    between atoms: C5_11  and  C6_12 
REMARK       I    between atoms: C6_12  and  N3_14 
REMARK    8  A    between atoms: N3_14  and  C7_16 
ROOT
HETATM    1  C5  UNL     1      13.468  24.119  22.027  1.00  0.00     0.222 C 
ENDROOT
BRANCH   1   2
HETATM    2  N2  UNL     1      13.680  24.993  20.916  1.00  0.00    -0.377 N 
ATOM      3  H2  UNL     1      13.209  24.794  20.033  1.00  0.00     0.160 HD
BRANCH   2   4
HETATM    4  C4  UNL     1      14.542  26.148  21.008  1.00  0.00     0.076 C 
BRANCH   4   5
HETATM    5  C3  UNL     1      14.839  26.860  19.765  1.00  0.00     0.188 C 
BRANCH   5   6
HETATM    6  N1  UNL     1      15.914  26.290  18.990  1.00  0.00    -0.354 N 
HETATM    7  C1  UNL     1      15.702  25.238  18.053  1.00  0.00     0.227 C 
HETATM    8  O1  UNL     1      14.552  24.762  17.845  1.00  0.00    -0.273 OA
ATOM      9  H1  UNL     1      16.858  26.652  19.118  1.00  0.00     0.162 HD
BRANCH   7  10
HETATM   10  C2  UNL     1      16.832  24.674  17.296  1.00  0.00     0.187 C 
HETATM   11 BR1  UNL     1      16.722  24.957  15.411  1.00  0.00    -0.087 Br
ENDBRANCH   7  10
ENDBRANCH   5   6
ENDBRANCH   4   5
BRANCH   4  12
HETATM   12  S1  UNL     1      15.174  26.559  22.444  1.00  0.00    -0.004 SA
HETATM   13 CL1  UNL     1      16.816  27.852  22.640  1.00  0.00    -0.037 Cl
ENDBRANCH   4  12
ENDBRANCH   2   4
ENDBRANCH   1   2
BRANCH   1  14
HETATM   14  C6  UNL     1      12.120  23.544  22.123  1.00  0.00     0.235 C 
HETATM   15  O2  UNL     1      11.734  23.202  23.296  1.00  0.00    -0.272 OA
HETATM   16  N3  UNL     1      11.207  23.325  21.095  1.00  0.00    -0.355 N 
ATOM     17  H3  UNL     1      11.491  23.590  20.152  1.00  0.00     0.162 HD
BRANCH  16  18
HETATM   18  C7  UNL     1       9.891  22.756  21.254  1.00  0.00     0.092 C 
HETATM   19  C8  UNL     1       9.844  21.387  20.600  1.00  0.00     0.058 C 
HETATM   20  C9  UNL     1       8.571  21.374  19.775  1.00  0.00     0.188 C 
HETATM   21  C10 UNL     1       7.717  22.356  20.598  1.00  0.00     0.041 C 
HETATM   22  N4  UNL     1       8.798  22.163  18.598  1.00  0.00    -0.070 N 
HETATM   23  C11 UNL     1       8.784  23.473  20.579  1.00  0.00     0.036 C 
HETATM   24  C12 UNL     1       9.031  23.512  19.093  1.00  0.00     0.239 C 
ATOM     25  H42 UNL     1       9.543  21.807  17.998  1.00  0.00     0.277 HD
ATOM     26  H41 UNL     1       8.053  22.099  17.905  1.00  0.00     0.277 HD
ENDBRANCH  16  18
ENDBRANCH   1  14
TORSDOF 8
ENDMDL
MODEL 3
REMARK VINA RESULT: -5.332997048      5.555      7.288
REMARK  8 active torsions:
REMARK  status: ('A' for Active; 'I' for Inactive)
REMARK    1  A    between atoms: C1_2  and  C2_3 
REMARK       I    between atoms: C1_2  and  N1_5 
REMARK    2  A    between atoms: N1_5  and  C3_7 
REMARK    3  A    between atoms: C3_7  and  C4_8 
REMARK    4  A    between atoms: C4_8  and  N2_9 
REMARK    5  A    between atoms: C4_8  and  S1_25 
REMARK    6  A    between atoms: N2_9  and  C5_11 
REMARK    7  A    between atoms: C5_11  and  C6_12 
REMARK       I    between atoms: C6_12  and  N3_14 
REMARK    8  A    between atoms: N3_14  and  C7_16 
ROOT
HETATM    1  C5  UNL     1      13.173  26.849  19.537  1.00  0.00     0.222 C 
ENDROOT
BRANCH   1   2
HETATM    2  N2  UNL     1      12.875  26.277  20.812  1.00  0.00    -0.377 N 
ATOM      3  H2  UNL     1      11.907  26.257  21.132  1.00  0.00     0.160 HD
BRANCH   2   4
HETATM    4  C4  UNL     1      13.907  25.727  21.661  1.00  0.00     0.076 C 
BRANCH   4   5
HETATM    5  C3  UNL     1      13.703  24.367  22.163  1.00  0.00     0.188 C 
BRANCH   5   6
HETATM    6  N1  UNL     1      12.688  23.617  21.465  1.00  0.00    -0.354 N 
HETATM    7  C1  UNL     1      11.663  22.904  22.150  1.00  0.00     0.227 C 
HETATM    8  O1  UNL     1      11.587  22.905  23.408  1.00  0.00    -0.273 OA
ATOM      9  H1  UNL     1      12.704  23.598  20.445  1.00  0.00     0.162 HD
BRANCH   7  10
HETATM   10  C2  UNL     1      10.657  22.136  21.396  1.00  0.00     0.187 C 
HETATM   11 BR1  UNL     1      10.377  20.366  22.057  1.00  0.00    -0.087 Br
ENDBRANCH   7  10
ENDBRANCH   5   6
ENDBRANCH   4   5
BRANCH   4  12
HETATM   12  S1  UNL     1      15.186  26.642  22.056  1.00  0.00    -0.004 SA
HETATM   13 CL1  UNL     1      16.562  27.353  20.639  1.00  0.00    -0.037 Cl
ENDBRANCH   4  12
ENDBRANCH   2   4
ENDBRANCH   1   2
BRANCH   1  14
HETATM   14  C6  UNL     1      13.793  25.934  18.570  1.00  0.00     0.235 C 
HETATM   15  O2  UNL     1      13.267  24.769  18.478  1.00  0.00    -0.272 OA
HETATM   16  N3  UNL     1      14.882  26.176  17.738  1.00  0.00    -0.355 N 
ATOM     17  H3  UNL     1      15.318  27.097  17.793  1.00  0.00     0.162 HD
BRANCH  16  18
HETATM   18  C7  UNL     1      15.446  25.232  16.804  1.00  0.00     0.092 C 
HETATM   19  C8  UNL     1      16.702  24.617  17.394  1.00  0.00     0.058 C 
HETATM   20  C9  UNL     1      17.744  24.685  16.293  1.00  0.00     0.188 C 
HETATM   21  C10 UNL     1      16.824  24.620  15.060  1.00  0.00     0.041 C 
HETATM   22  N4  UNL     1      18.199  26.042  16.198  1.00  0.00    -0.070 N 
HETATM   23  C11 UNL     1      15.934  25.795  15.523  1.00  0.00     0.036 C 
HETATM   24  C12 UNL     1      17.025  26.800  15.790  1.00  0.00     0.239 C 
ATOM     25  H42 UNL     1      18.643  26.391  17.047  1.00  0.00     0.277 HD
ATOM     26  H41 UNL     1      19.005  26.167  15.586  1.00  0.00     0.277 HD
ENDBRANCH  16  18
ENDBRANCH   1  14
TORSDOF 8
ENDMDL
MODEL 4
REMARK VINA RESULT: -5.322145838      5.213      6.692
REMARK  8 active torsions:
REMARK  status: ('A' for Active; 'I' for Inactive)
REMARK    1  A    between atoms: C1_2  and  C2_3 
REMARK       I    between atoms: C1_2  and  N1_5 
REMARK    2  A    between atoms: N1_5  and  C3_7 
REMARK    3  A    between atoms: C3_7  and  C4_8 
REMARK    4  A    between atoms: C4_8  and  N2_9 
REMARK    5  A    between atoms: C4_8  and  S1_25 
REMARK    6  A    between atoms: N2_9  and  C5_11 
REMARK    7  A    between atoms: C5_11  and  C6_12 
REMARK       I    between atoms: C6_12  and  N3_14 
REMARK    8  A    between atoms: N3_14  and  C7_16 
ROOT
HETATM    1  C5  UNL     1      13.948  25.950  20.215  1.00  0.00     0.222 C 
ENDROOT
BRANCH   1   2
HETATM    2  N2  UNL     1      13.827  25.028  21.300  1.00  0.00    -0.377 N 
ATOM      3  H2  UNL     1      14.669  24.587  21.671  1.00  0.00     0.160 HD
BRANCH   2   4
HETATM    4  C4  UNL     1      12.547  24.702  21.885  1.00  0.00     0.076 C 
BRANCH   4   5
HETATM    5  C3  UNL     1      11.721  23.723  21.179  1.00  0.00     0.188 C 
BRANCH   5   6
HETATM    6  N1  UNL     1      11.524  22.483  21.888  1.00  0.00    -0.354 N 
HETATM    7  C1  UNL     1      10.718  21.429  21.370  1.00  0.00     0.227 C 
HETATM    8  O1  UNL     1      10.145  21.526  20.251  1.00  0.00    -0.273 OA
ATOM      9  H1  UNL     1      11.979  22.356  22.792  1.00  0.00     0.162 HD
BRANCH   7  10
HETATM   10  C2  UNL     1      10.532  20.185  22.138  1.00  0.00     0.187 C 
HETATM   11 BR1  UNL     1       9.772  18.756  21.124  1.00  0.00    -0.087 Br
ENDBRANCH   7  10
ENDBRANCH   5   6
ENDBRANCH   4   5
BRANCH   4  12
HETATM   12  S1  UNL     1      12.072  25.463  23.236  1.00  0.00    -0.004 SA
HETATM   13 CL1  UNL     1      10.793  24.584  24.650  1.00  0.00    -0.037 Cl
ENDBRANCH   4  12
ENDBRANCH   2   4
ENDBRANCH   1   2
BRANCH   1  14
HETATM   14  C6  UNL     1      14.348  25.358  18.932  1.00  0.00     0.235 C 
HETATM   15  O2  UNL     1      13.438  24.713  18.301  1.00  0.00    -0.272 OA
HETATM   16  N3  UNL     1      15.594  25.412  18.314  1.00  0.00    -0.355 N 
ATOM     17  H3  UNL     1      16.335  25.921  18.798  1.00  0.00     0.162 HD
BRANCH  16  18
HETATM   18  C7  UNL     1      15.925  24.808  17.046  1.00  0.00     0.092 C 
HETATM   19  C8  UNL     1      17.369  24.342  17.062  1.00  0.00     0.058 C 
HETATM   20  C9  UNL     1      17.971  24.837  15.761  1.00  0.00     0.188 C 
HETATM   21  C10 UNL     1      16.709  24.848  14.878  1.00  0.00     0.041 C 
HETATM   22  N4  UNL     1      18.203  26.247  15.888  1.00  0.00    -0.070 N 
HETATM   23  C11 UNL     1      15.890  25.706  15.868  1.00  0.00     0.036 C 
HETATM   24  C12 UNL     1      16.879  26.829  16.052  1.00  0.00     0.239 C 
ATOM     25  H42 UNL     1      18.859  26.494  16.629  1.00  0.00     0.277 HD
ATOM     26  H41 UNL     1      18.740  26.650  15.121  1.00  0.00     0.277 HD
ENDBRANCH  16  18
ENDBRANCH   1  14
TORSDOF 8
ENDMDL
MODEL 5
REMARK VINA RESULT: -5.282509915      3.881      4.962
REMARK  8 active torsions:
REMARK  status: ('A' for Active; 'I' for Inactive)
REMARK    1  A    between atoms: C1_2  and  C2_3 
REMARK       I    between atoms: C1_2  and  N1_5 
REMARK    2  A    between atoms: N1_5  and  C3_7 
REMARK    3  A    between atoms: C3_7  and  C4_8 
REMARK    4  A    between atoms: C4_8  and  N2_9 
REMARK    5  A    between atoms: C4_8  and  S1_25 
REMARK    6  A    between atoms: N2_9  and  C5_11 
REMARK    7  A    between atoms: C5_11  and  C6_12 
REMARK       I    between atoms: C6_12  and  N3_14 
REMARK    8  A    between atoms: N3_14  and  C7_16 
ROOT
HETATM    1  C5  UNL     1       9.755  24.796  19.853  1.00  0.00     0.222 C 
ENDROOT
BRANCH   1   2
HETATM    2  N2  UNL     1       9.464  24.902  21.248  1.00  0.00    -0.377 N 
ATOM      3  H2  UNL     1       8.675  25.475  21.547  1.00  0.00     0.160 HD
BRANCH   2   4
HETATM    4  C4  UNL     1      10.255  24.220  22.246  1.00  0.00     0.076 C 
BRANCH   4   5
HETATM    5  C3  UNL     1       9.758  22.930  22.725  1.00  0.00     0.188 C 
BRANCH   5   6
HETATM    6  N1  UNL     1       9.887  21.850  21.777  1.00  0.00    -0.354 N 
HETATM    7  C1  UNL     1       8.822  21.463  20.914  1.00  0.00     0.227 C 
HETATM    8  O1  UNL     1       7.711  22.061  20.928  1.00  0.00    -0.273 OA
ATOM      9  H1  UNL     1      10.771  21.346  21.724  1.00  0.00     0.162 HD
BRANCH   7  10
HETATM   10  C2  UNL     1       8.993  20.342  19.974  1.00  0.00     0.187 C 
HETATM   11 BR1  UNL     1       9.727  18.768  20.770  1.00  0.00    -0.087 Br
ENDBRANCH   7  10
ENDBRANCH   5   6
ENDBRANCH   4   5
BRANCH   4  12
HETATM   12  S1  UNL     1      11.597  24.927  22.819  1.00  0.00    -0.004 SA
HETATM   13 CL1  UNL     1      13.530  24.250  22.358  1.00  0.00    -0.037 Cl
ENDBRANCH   4  12
ENDBRANCH   2   4
ENDBRANCH   1   2
BRANCH   1  14
HETATM   14  C6  UNL     1      11.150  24.469  19.528  1.00  0.00     0.235 C 
HETATM   15  O2  UNL     1      11.446  23.222  19.503  1.00  0.00    -0.272 OA
HETATM   16  N3  UNL     1      12.191  25.347  19.242  1.00  0.00    -0.355 N 
ATOM     17  H3  UNL     1      11.979  26.345  19.255  1.00  0.00     0.162 HD
BRANCH  16  18
HETATM   18  C7  UNL     1      13.545  24.962  18.927  1.00  0.00     0.092 C 
HETATM   19  C8  UNL     1      14.506  26.040  19.396  1.00  0.00     0.058 C 
HETATM   20  C9  UNL     1      15.449  26.279  18.232  1.00  0.00     0.188 C 
HETATM   21  C10 UNL     1      15.414  24.885  17.577  1.00  0.00     0.041 C 
HETATM   22  N4  UNL     1      14.744  27.041  17.241  1.00  0.00    -0.070 N 
HETATM   23  C11 UNL     1      13.872  24.845  17.486  1.00  0.00     0.036 C 
HETATM   24  C12 UNL     1      13.660  26.172  16.805  1.00  0.00     0.239 C 
ATOM     25  H42 UNL     1      14.436  27.957  17.565  1.00  0.00     0.277 HD
ATOM     26  H41 UNL     1      15.334  27.380  16.481  1.00  0.00     0.277 HD
ENDBRANCH  16  18
ENDBRANCH   1  14
TORSDOF 8
ENDMDL
