MODEL 1
REMARK VINA RESULT: -6.128176131      0.000      0.000
REMARK  8 active torsions:
REMARK  status: ('A' for Active; 'I' for Inactive)
REMARK    1  A    between atoms: C1_4  and  C2_5 
REMARK    2  A    between atoms: C1_4  and  N3_20 
REMARK    3  A    between atoms: C2_5  and  S1_6 
REMARK    4  A    between atoms: S1_6  and  C3_8 
REMARK    5  A    between atoms: C3_8  and  C4_9 
REMARK    6  A    between atoms: C4_9  and  N2_10 
REMARK    7  A    between atoms: C10_16  and  O1_17 
REMARK    8  A    between atoms: N3_20  and  C12_22 
ROOT
HETATM    1  C2  UNL     1       9.748  21.918  21.810  1.00  0.00     0.150 C 
ENDROOT
BRANCH   1   2
HETATM    2  C1  UNL     1      10.584  20.708  21.814  1.00  0.00     0.082 C 
HETATM    3  N1  UNL     1      11.358  20.470  22.811  1.00  0.00    -0.388 N 
ATOM      4  H12 UNL     1      11.376  21.131  23.587  1.00  0.00     0.157 HD
ATOM      5  H11 UNL     1      11.938  19.631  22.813  1.00  0.00     0.157 HD
BRANCH   2   6
HETATM    6  N3  UNL     1      10.559  19.793  20.740  1.00  0.00    -0.341 N 
ATOM      7  H3  UNL     1      11.294  19.848  20.034  1.00  0.00     0.164 HD
BRANCH   6   8
HETATM    8  C12 UNL     1       9.532  18.777  20.595  1.00  0.00     0.224 A 
HETATM    9  F1  UNL     1       9.133  18.182  21.766  1.00  0.00    -0.215 F 
HETATM   10  C13 UNL     1       8.396  19.182  19.693  1.00  0.00     0.300 A 
HETATM   11  N4  UNL     1       8.786  18.227  18.682  1.00  0.00    -0.065 N 
HETATM   12  C14 UNL     1       9.887  17.764  19.504  1.00  0.00     0.300 A 
ATOM     13  H42 UNL     1       8.101  17.556  18.334  1.00  0.00     0.277 HD
ATOM     14  H41 UNL     1       8.968  18.548  17.731  1.00  0.00     0.277 HD
ENDBRANCH   6   8
ENDBRANCH   2   6
ENDBRANCH   1   2
BRANCH   1  15
HETATM   15  S1  UNL     1      10.651  23.318  22.233  1.00  0.00    -0.140 SA
HETATM   16 BR1  UNL     1      12.147  24.026  20.856  1.00  0.00    -0.022 Br
BRANCH  15  17
HETATM   17  C3  UNL     1       9.995  24.432  23.376  1.00  0.00     0.103 C 
BRANCH  17  18
HETATM   18  C4  UNL     1      10.880  24.825  24.516  1.00  0.00     0.247 C 
BRANCH  18  19
HETATM   19  N2  UNL     1      10.262  25.096  25.761  1.00  0.00    -0.064 N 
HETATM   20  C5  UNL     1       9.825  26.440  25.988  1.00  0.00     0.238 C 
HETATM   21  C6  UNL     1       8.768  26.435  27.101  1.00  0.00     0.035 C 
HETATM   22  C7  UNL     1       9.128  25.310  28.082  1.00  0.00     0.019 C 
HETATM   23  C8  UNL     1      10.640  25.293  28.170  1.00  0.00     0.035 C 
HETATM   24  C10 UNL     1       8.700  24.043  27.363  1.00  0.00     0.148 C 
HETATM   25  C9  UNL     1      11.159  24.715  26.866  1.00  0.00     0.238 C 
HETATM   26  C11 UNL     1       9.096  24.207  25.934  1.00  0.00     0.269 C 
BRANCH  24  27
HETATM   27  O1  UNL     1       9.121  22.891  27.972  1.00  0.00    -0.394 OA
ATOM     28  H1  UNL     1       9.376  22.206  27.365  1.00  0.00     0.210 HD
ENDBRANCH  24  27
ENDBRANCH  18  19
ENDBRANCH  17  18
ENDBRANCH  15  17
ENDBRANCH   1  15
TORSDOF 8
ENDMDL
MODEL 2
REMARK VINA RESULT: -5.983684664      4.057      4.974
REMARK  8 active torsions:
REMARK  status: ('A' for Active; 'I' for Inactive)
REMARK    1  A    between atoms: C1_4  and  C2_5 
REMARK    2  A    between atoms: C1_4  and  N3_20 
REMARK    3  A    between atoms: C2_5  and  S1_6 
REMARK    4  A    between atoms: S1_6  and  C3_8 
REMARK    5  A    between atoms: C3_8  and  C4_9 
REMARK    6  A    between atoms: C4_9  and  N2_10 
REMARK    7  A    between atoms: C10_16  and  O1_17 
REMARK    8  A    between atoms: N3_20  and  C12_22 
ROOT
HETATM    1  C2  UNL     1       9.525  23.230  21.604  1.00  0.00     0.150 C 
ENDROOT
BRANCH   1   2
HETATM    2  C1  UNL     1      10.425  22.068  21.559  1.00  0.00     0.082 C 
HETATM    3  N1  UNL     1      11.369  21.957  22.423  1.00  0.00    -0.388 N 
ATOM      4  H12 UNL     1      11.476  22.685  23.130  1.00  0.00     0.157 HD
ATOM      5  H11 UNL     1      11.993  21.151  22.391  1.00  0.00     0.157 HD
BRANCH   2   6
HETATM    6  N3  UNL     1      10.278  21.061  20.581  1.00  0.00    -0.341 N 
ATOM      7  H3  UNL     1      10.974  20.998  19.837  1.00  0.00     0.164 HD
BRANCH   6   8
HETATM    8  C12 UNL     1       9.180  20.111  20.588  1.00  0.00     0.224 A 
HETATM    9  F1  UNL     1       7.950  20.646  20.883  1.00  0.00    -0.215 F 
HETATM   10  C13 UNL     1       9.176  19.175  19.408  1.00  0.00     0.300 A 
HETATM   11  N4  UNL     1       9.509  18.041  20.238  1.00  0.00    -0.065 N 
HETATM   12  C14 UNL     1       9.506  18.873  21.426  1.00  0.00     0.300 A 
ATOM     13  H42 UNL     1       8.923  17.207  20.208  1.00  0.00     0.277 HD
ATOM     14  H41 UNL     1      10.333  17.481  20.018  1.00  0.00     0.277 HD
ENDBRANCH   6   8
ENDBRANCH   2   6
ENDBRANCH   1   2
BRANCH   1  15
HETATM   15  S1  UNL     1       9.225  23.865  20.035  1.00  0.00    -0.140 SA
HETATM   16 BR1  UNL     1       7.283  23.552  19.158  1.00  0.00    -0.022 Br
BRANCH  15  17
HETATM   17  C3  UNL     1      10.184  25.179  19.458  1.00  0.00     0.103 C 
BRANCH  17  18
HETATM   18  C4  UNL     1      10.622  26.186  20.472  1.00  0.00     0.247 C 
BRANCH  18  19
HETATM   19  N2  UNL     1      11.993  26.202  20.828  1.00  0.00    -0.064 N 
HETATM   20  C5  UNL     1      12.653  27.472  20.810  1.00  0.00     0.238 C 
HETATM   21  C6  UNL     1      13.915  27.387  21.679  1.00  0.00     0.035 C 
HETATM   22  C7  UNL     1      14.468  25.960  21.560  1.00  0.00     0.019 C 
HETATM   23  C8  UNL     1      14.240  25.535  20.124  1.00  0.00     0.035 C 
HETATM   24  C10 UNL     1      13.541  25.131  22.432  1.00  0.00     0.148 C 
HETATM   25  C9  UNL     1      12.753  25.282  19.962  1.00  0.00     0.238 C 
HETATM   26  C11 UNL     1      12.157  25.627  22.179  1.00  0.00     0.269 C 
BRANCH  24  27
HETATM   27  O1  UNL     1      13.724  23.780  22.308  1.00  0.00    -0.394 OA
ATOM     28  H1  UNL     1      13.346  23.411  21.519  1.00  0.00     0.210 HD
ENDBRANCH  24  27
ENDBRANCH  18  19
ENDBRANCH  17  18
ENDBRANCH  15  17
ENDBRANCH   1  15
TORSDOF 8
ENDMDL
MODEL 3
REMARK VINA RESULT: -5.879153949      6.735      7.771
REMARK  8 active torsions:
REMARK  status: ('A' for Active; 'I' for Inactive)
REMARK    1  A    between atoms: C1_4  and  C2_5 
REMARK    2  A    between atoms: C1_4  and  N3_20 
REMARK    3  A    between atoms: C2_5  and  S1_6 
REMARK    4  A    between atoms: S1_6  and  C3_8 
REMARK    5  A    between atoms: C3_8  and  C4_9 
REMARK    6  A    between atoms: C4_9  and  N2_10 
REMARK    7  A    between atoms: C10_16  and  O1_17 
REMARK    8  A    between atoms: N3_20  and  C12_22 
ROOT
HETATM    1  C2  UNL     1      15.353  27.238  18.748  1.00  0.00     0.150 C 
ENDROOT
BRANCH   1   2
HETATM    2  C1  UNL     1      16.770  26.991  18.440  1.00  0.00     0.082 C 
HETATM    3  N1  UNL     1      17.668  27.238  19.324  1.00  0.00    -0.388 N 
ATOM      4  H12 UNL     1      17.377  27.604  20.231  1.00  0.00     0.157 HD
ATOM      5  H11 UNL     1      18.650  27.067  19.110  1.00  0.00     0.157 HD
BRANCH   2   6
HETATM    6  N3  UNL     1      17.173  26.486  17.186  1.00  0.00    -0.341 N 
ATOM      7  H3  UNL     1      17.724  27.085  16.572  1.00  0.00     0.164 HD
BRANCH   6   8
HETATM    8  C12 UNL     1      16.836  25.148  16.731  1.00  0.00     0.224 A 
HETATM    9  F1  UNL     1      16.499  24.263  17.725  1.00  0.00    -0.215 F 
HETATM   10  C13 UNL     1      15.909  25.123  15.545  1.00  0.00     0.300 A 
HETATM   11  N4  UNL     1      16.947  24.621  14.675  1.00  0.00    -0.065 N 
HETATM   12  C14 UNL     1      17.893  24.592  15.774  1.00  0.00     0.300 A 
ATOM     13  H42 UNL     1      16.782  23.774  14.132  1.00  0.00     0.277 HD
ATOM     14  H41 UNL     1      17.181  25.132  13.824  1.00  0.00     0.277 HD
ENDBRANCH   6   8
ENDBRANCH   2   6
ENDBRANCH   1   2
BRANCH   1  15
HETATM   15  S1  UNL     1      14.778  26.192  19.985  1.00  0.00    -0.140 SA
HETATM   16 BR1  UNL     1      15.223  26.687  22.033  1.00  0.00    -0.022 Br
BRANCH  15  17
HETATM   17  C3  UNL     1      13.428  25.166  19.664  1.00  0.00     0.103 C 
BRANCH  17  18
HETATM   18  C4  UNL     1      12.075  25.719  19.977  1.00  0.00     0.247 C 
BRANCH  18  19
HETATM   19  N2  UNL     1      11.201  24.912  20.746  1.00  0.00    -0.064 N 
HETATM   20  C5  UNL     1       9.826  24.885  20.348  1.00  0.00     0.238 C 
HETATM   21  C6  UNL     1       9.167  23.626  20.929  1.00  0.00     0.035 C 
HETATM   22  C7  UNL     1       9.833  23.333  22.280  1.00  0.00     0.019 C 
HETATM   23  C8  UNL     1      10.104  24.679  22.921  1.00  0.00     0.035 C 
HETATM   24  C10 UNL     1      11.175  22.729  21.907  1.00  0.00     0.148 C 
HETATM   25  C9  UNL     1      11.256  25.312  22.164  1.00  0.00     0.238 C 
HETATM   26  C11 UNL     1      11.696  23.521  20.755  1.00  0.00     0.269 C 
BRANCH  24  27
HETATM   27  O1  UNL     1      12.031  22.581  22.966  1.00  0.00    -0.394 OA
ATOM     28  H1  UNL     1      11.607  22.290  23.765  1.00  0.00     0.210 HD
ENDBRANCH  24  27
ENDBRANCH  18  19
ENDBRANCH  17  18
ENDBRANCH  15  17
ENDBRANCH   1  15
TORSDOF 8
ENDMDL
MODEL 4
REMARK VINA RESULT: -5.785885529      6.874      7.966
REMARK  8 active torsions:
REMARK  status: ('A' for Active; 'I' for Inactive)
REMARK    1  A    between atoms: C1_4  and  C2_5 
REMARK    2  A    between atoms: C1_4  and  N3_20 
REMARK    3  A    between atoms: C2_5  and  S1_6 
REMARK    4  A    between atoms: S1_6  and  C3_8 
REMARK    5  A    between atoms: C3_8  and  C4_9 
REMARK    6  A    between atoms: C4_9  and  N2_10 
REMARK    7  A    between atoms: C10_16  and  O1_17 
REMARK    8  A    between atoms: N3_20  and  C12_22 
ROOT
HETATM    1  C2  UNL     1      15.413  27.219  18.625  1.00  0.00     0.150 C 
ENDROOT
BRANCH   1   2
HETATM    2  C1  UNL     1      16.840  27.038  18.318  1.00  0.00     0.082 C 
HETATM    3  N1  UNL     1      17.728  27.394  19.176  1.00  0.00    -0.388 N 
ATOM      4  H12 UNL     1      17.422  27.798  20.061  1.00  0.00     0.157 HD
ATOM      5  H11 UNL     1      18.717  27.269  18.963  1.00  0.00     0.157 HD
BRANCH   2   6
HETATM    6  N3  UNL     1      17.264  26.480  17.094  1.00  0.00    -0.341 N 
ATOM      7  H3  UNL     1      17.868  27.036  16.487  1.00  0.00     0.164 HD
BRANCH   6   8
HETATM    8  C12 UNL     1      16.878  25.149  16.659  1.00  0.00     0.224 A 
HETATM    9  F1  UNL     1      16.563  24.276  17.670  1.00  0.00    -0.215 F 
HETATM   10  C13 UNL     1      15.901  25.142  15.514  1.00  0.00     0.300 A 
HETATM   11  N4  UNL     1      16.889  24.613  14.603  1.00  0.00    -0.065 N 
HETATM   12  C14 UNL     1      17.881  24.566  15.660  1.00  0.00     0.300 A 
ATOM     13  H42 UNL     1      16.682  23.768  14.071  1.00  0.00     0.277 HD
ATOM     14  H41 UNL     1      17.098  25.116  13.740  1.00  0.00     0.277 HD
ENDBRANCH   6   8
ENDBRANCH   2   6
ENDBRANCH   1   2
BRANCH   1  15
HETATM   15  S1  UNL     1      14.930  26.281  19.982  1.00  0.00    -0.140 SA
HETATM   16 BR1  UNL     1      15.361  27.034  21.953  1.00  0.00    -0.022 Br
BRANCH  15  17
HETATM   17  C3  UNL     1      13.654  25.132  19.804  1.00  0.00     0.103 C 
BRANCH  17  18
HETATM   18  C4  UNL     1      13.208  24.426  21.045  1.00  0.00     0.247 C 
BRANCH  18  19
HETATM   19  N2  UNL     1      11.825  24.150  21.179  1.00  0.00    -0.064 N 
HETATM   20  C5  UNL     1      10.967  25.261  21.458  1.00  0.00     0.238 C 
HETATM   21  C6  UNL     1       9.530  24.888  21.069  1.00  0.00     0.035 C 
HETATM   22  C7  UNL     1       9.353  23.384  21.327  1.00  0.00     0.019 C 
HETATM   23  C8  UNL     1      10.137  23.075  22.586  1.00  0.00     0.035 C 
HETATM   24  C10 UNL     1      10.077  22.724  20.167  1.00  0.00     0.148 C 
HETATM   25  C9  UNL     1      11.609  23.134  22.223  1.00  0.00     0.238 C 
HETATM   26  C11 UNL     1      11.333  23.499  19.948  1.00  0.00     0.269 C 
BRANCH  24  27
HETATM   27  O1  UNL     1      10.226  21.370  20.305  1.00  0.00    -0.394 OA
ATOM     28  H1  UNL     1      10.972  21.015  19.836  1.00  0.00     0.210 HD
ENDBRANCH  24  27
ENDBRANCH  18  19
ENDBRANCH  17  18
ENDBRANCH  15  17
ENDBRANCH   1  15
TORSDOF 8
ENDMDL
MODEL 5
REMARK VINA RESULT: -5.771891864      6.278      8.058
REMARK  8 active torsions:
REMARK  status: ('A' for Active; 'I' for Inactive)
REMARK    1  A    between atoms: C1_4  and  C2_5 
REMARK    2  A    between atoms: C1_4  and  N3_20 
REMARK    3  A    between atoms: C2_5  and  S1_6 
REMARK    4  A    between atoms: S1_6  and  C3_8 
REMARK    5  A    between atoms: C3_8  and  C4_9 
REMARK    6  A    between atoms: C4_9  and  N2_10 
REMARK    7  A    between atoms: C10_16  and  O1_17 
REMARK    8  A    between atoms: N3_20  and  C12_22 
ROOT
HETATM    1  C2  UNL     1      10.799  23.989  21.359  1.00  0.00     0.150 C 
ENDROOT
BRANCH   1   2
HETATM    2  C1  UNL     1      11.052  22.570  21.651  1.00  0.00     0.082 C 
HETATM    3  N1  UNL     1      11.666  22.241  22.731  1.00  0.00    -0.388 N 
ATOM      4  H12 UNL     1      11.968  22.977  23.369  1.00  0.00     0.157 HD
ATOM      5  H11 UNL     1      11.842  21.257  22.933  1.00  0.00     0.157 HD
BRANCH   2   6
HETATM    6  N3  UNL     1      10.636  21.551  20.769  1.00  0.00    -0.341 N 
ATOM      7  H3  UNL     1      11.168  21.400  19.912  1.00  0.00     0.164 HD
BRANCH   6   8
HETATM    8  C12 UNL     1       9.481  20.709  21.028  1.00  0.00     0.224 A 
HETATM    9  F1  UNL     1       8.350  21.379  21.423  1.00  0.00    -0.215 F 
HETATM   10  C13 UNL     1       9.240  19.664  19.972  1.00  0.00     0.300 A 
HETATM   11  N4  UNL     1       9.601  18.593  20.871  1.00  0.00    -0.065 N 
HETATM   12  C14 UNL     1       9.830  19.536  21.948  1.00  0.00     0.300 A 
ATOM     13  H42 UNL     1       8.956  17.816  21.012  1.00  0.00     0.277 HD
ATOM     14  H41 UNL     1      10.342  17.943  20.606  1.00  0.00     0.277 HD
ENDBRANCH   6   8
ENDBRANCH   2   6
ENDBRANCH   1   2
BRANCH   1  15
HETATM   15  S1  UNL     1      12.205  24.777  20.759  1.00  0.00    -0.140 SA
HETATM   16 BR1  UNL     1      13.811  25.191  22.133  1.00  0.00    -0.022 Br
BRANCH  15  17
HETATM   17  C3  UNL     1      12.569  24.688  19.075  1.00  0.00     0.103 C 
BRANCH  17  18
HETATM   18  C4  UNL     1      13.145  25.917  18.446  1.00  0.00     0.247 C 
BRANCH  18  19
HETATM   19  N2  UNL     1      14.249  25.750  17.575  1.00  0.00    -0.064 N 
HETATM   20  C5  UNL     1      14.031  24.971  16.394  1.00  0.00     0.238 C 
HETATM   21  C6  UNL     1      15.117  25.315  15.366  1.00  0.00     0.035 C 
HETATM   22  C7  UNL     1      16.404  25.639  16.139  1.00  0.00     0.019 C 
HETATM   23  C8  UNL     1      16.440  24.690  17.319  1.00  0.00     0.035 C 
HETATM   24  C10 UNL     1      16.164  27.035  16.685  1.00  0.00     0.148 C 
HETATM   25  C9  UNL     1      15.386  25.161  18.305  1.00  0.00     0.238 C 
HETATM   26  C11 UNL     1      14.750  27.074  17.157  1.00  0.00     0.269 C 
BRANCH  24  27
HETATM   27  O1  UNL     1      17.108  27.447  17.588  1.00  0.00    -0.394 OA
ATOM     28  H1  UNL     1      16.773  27.556  18.471  1.00  0.00     0.210 HD
ENDBRANCH  24  27
ENDBRANCH  18  19
ENDBRANCH  17  18
ENDBRANCH  15  17
ENDBRANCH   1  15
TORSDOF 8
ENDMDL
