MODEL 1
REMARK VINA RESULT: -5.663312061      0.000      0.000
REMARK  9 active torsions:
REMARK  status: ('A' for Active; 'I' for Inactive)
REMARK    1  A    between atoms: C2_2  and  C3_3 
REMARK    2  A    between atoms: C3_3  and  C4_5 
REMARK    3  A    between atoms: C4_5  and  N2_9 
REMARK    4  A    between atoms: N2_9  and  C5_11 
REMARK    5  A    between atoms: C7_13  and  O1_14 
REMARK    6  A    between atoms: C9_18  and  C10_19 
REMARK    7  A    between atoms: C10_19  and  N3_20 
REMARK    8  A    between atoms: N3_20  and  C13_23 
REMARK    9  A    between atoms: C15_25  and  O2_26 
ROOT
HETATM    1  C5  UNL     1       9.882  23.010  21.393  1.00  0.00     0.114 C 
HETATM    2  C6  UNL     1       9.869  23.277  22.877  1.00  0.00     0.061 C 
HETATM    3  C7  UNL     1      11.281  23.806  23.169  1.00  0.00     0.139 C 
HETATM    4  C8  UNL     1      11.340  25.181  22.561  1.00  0.00     0.119 C 
HETATM    5 CL1  UNL     1      12.835  25.954  23.044  1.00  0.00    -0.122 Cl
HETATM    6  C9  UNL     1      11.167  25.142  21.038  1.00  0.00     0.063 C 
HETATM    7  C15 UNL     1       9.953  24.341  20.693  1.00  0.00     0.148 C 
ENDROOT
BRANCH   1   8
HETATM    8  N2  UNL     1       8.727  22.315  20.929  1.00  0.00    -0.372 N 
ATOM      9  H2  UNL     1       7.825  22.547  21.345  1.00  0.00     0.161 HD
BRANCH   8  10
HETATM   10  C4  UNL     1       8.763  21.311  19.913  1.00  0.00     0.089 C 
HETATM   11  N1  UNL     1       8.819  21.630  18.673  1.00  0.00    -0.388 N 
ATOM     12  H12 UNL     1       8.844  20.913  17.948  1.00  0.00     0.157 HD
ATOM     13  H11 UNL     1       8.838  22.614  18.404  1.00  0.00     0.157 HD
BRANCH  10  14
HETATM   14  C3  UNL     1       8.736  19.892  20.301  1.00  0.00     0.146 C 
HETATM   15 BR1  UNL     1      10.196  19.514  21.505  1.00  0.00    -0.079 Br
BRANCH  14  16
HETATM   16  C2  UNL     1       8.916  18.988  19.123  1.00  0.00    -0.014 C 
HETATM   17  C1  UNL     1       9.521  17.820  19.182  1.00  0.00     0.008 C 
ENDBRANCH  14  16
ENDBRANCH  10  14
ENDBRANCH   8  10
ENDBRANCH   1   8
BRANCH   7  18
HETATM   18  O2  UNL     1       8.837  25.102  21.108  1.00  0.00    -0.393 OA
ATOM     19  H2  UNL     1       9.095  25.593  21.880  1.00  0.00     0.210 HD
ENDBRANCH   7  18
BRANCH   3  20
HETATM   20  O1  UNL     1      11.352  23.960  24.546  1.00  0.00    -0.394 OA
ATOM     21  H1  UNL     1      11.034  23.145  24.915  1.00  0.00     0.210 HD
ENDBRANCH   3  20
BRANCH   6  22
HETATM   22  C10 UNL     1      12.442  24.682  20.439  1.00  0.00     0.245 C 
BRANCH  22  23
HETATM   23  N3  UNL     1      13.152  25.502  19.570  1.00  0.00    -0.075 N 
HETATM   24  C11 UNL     1      14.495  25.864  19.890  1.00  0.00     0.272 C 
HETATM   25  C12 UNL     1      12.425  26.733  19.279  1.00  0.00     0.272 C 
BRANCH  23  26
HETATM   26  C13 UNL     1      13.226  24.824  18.255  1.00  0.00     0.232 C 
HETATM   27  C14 UNL     1      14.621  24.858  17.702  1.00  0.00     0.034 C 
ENDBRANCH  23  26
ENDBRANCH  22  23
ENDBRANCH   6  22
TORSDOF 9
ENDMDL
MODEL 2
REMARK VINA RESULT: -5.591095425      2.652      4.594
REMARK  9 active torsions:
REMARK  status: ('A' for Active; 'I' for Inactive)
REMARK    1  A    between atoms: C2_2  and  C3_3 
REMARK    2  A    between atoms: C3_3  and  C4_5 
REMARK    3  A    between atoms: C4_5  and  N2_9 
REMARK    4  A    between atoms: N2_9  and  C5_11 
REMARK    5  A    between atoms: C7_13  and  O1_14 
REMARK    6  A    between atoms: C9_18  and  C10_19 
REMARK    7  A    between atoms: C10_19  and  N3_20 
REMARK    8  A    between atoms: N3_20  and  C13_23 
REMARK    9  A    between atoms: C15_25  and  O2_26 
ROOT
HETATM    1  C5  UNL     1      10.999  23.014  22.138  1.00  0.00     0.114 C 
HETATM    2  C6  UNL     1      11.117  23.618  20.762  1.00  0.00     0.061 C 
HETATM    3  C7  UNL     1      10.483  25.009  20.914  1.00  0.00     0.139 C 
HETATM    4  C8  UNL     1      11.450  25.815  21.740  1.00  0.00     0.119 C 
HETATM    5 CL1  UNL     1      10.920  27.484  21.770  1.00  0.00    -0.122 Cl
HETATM    6  C9  UNL     1      11.626  25.231  23.147  1.00  0.00     0.063 C 
HETATM    7  C15 UNL     1      11.930  23.770  23.048  1.00  0.00     0.148 C 
ENDROOT
BRANCH   1   8
HETATM    8  N2  UNL     1      11.343  21.632  22.185  1.00  0.00    -0.372 N 
ATOM      9  H2  UNL     1      12.325  21.384  22.308  1.00  0.00     0.161 HD
BRANCH   8  10
HETATM   10  C4  UNL     1      10.390  20.574  22.071  1.00  0.00     0.089 C 
HETATM   11  N1  UNL     1       9.957  19.961  23.110  1.00  0.00    -0.388 N 
ATOM     12  H12 UNL     1       9.276  19.207  23.028  1.00  0.00     0.157 HD
ATOM     13  H11 UNL     1      10.298  20.230  24.034  1.00  0.00     0.157 HD
BRANCH  10  14
HETATM   14  C3  UNL     1       9.899  20.188  20.739  1.00  0.00     0.146 C 
HETATM   15 BR1  UNL     1       8.307  21.191  20.311  1.00  0.00    -0.079 Br
BRANCH  14  16
HETATM   16  C2  UNL     1       9.514  18.743  20.684  1.00  0.00    -0.014 C 
HETATM   17  C1  UNL     1       9.557  18.015  19.587  1.00  0.00     0.008 C 
ENDBRANCH  14  16
ENDBRANCH  10  14
ENDBRANCH   8  10
ENDBRANCH   1   8
BRANCH   7  18
HETATM   18  O2  UNL     1      13.232  23.667  22.509  1.00  0.00    -0.393 OA
ATOM     19  H2  UNL     1      13.803  23.341  23.195  1.00  0.00     0.210 HD
ENDBRANCH   7  18
BRANCH   3  20
HETATM   20  O1  UNL     1      10.469  25.561  19.641  1.00  0.00    -0.394 OA
ATOM     21  H1  UNL     1      11.377  25.598  19.363  1.00  0.00     0.210 HD
ENDBRANCH   3  20
BRANCH   6  22
HETATM   22  C10 UNL     1      10.435  25.594  23.950  1.00  0.00     0.245 C 
BRANCH  22  23
HETATM   23  N3  UNL     1      10.578  26.128  25.226  1.00  0.00    -0.075 N 
HETATM   24  C11 UNL     1       9.575  27.010  25.732  1.00  0.00     0.272 C 
HETATM   25  C12 UNL     1      11.867  26.793  25.388  1.00  0.00     0.272 C 
BRANCH  23  26
HETATM   26  C13 UNL     1      10.643  25.006  26.190  1.00  0.00     0.232 C 
HETATM   27  C14 UNL     1       9.391  24.180  26.151  1.00  0.00     0.034 C 
ENDBRANCH  23  26
ENDBRANCH  22  23
ENDBRANCH   6  22
TORSDOF 9
ENDMDL
MODEL 3
REMARK VINA RESULT: -5.590489541      1.474      1.753
REMARK  9 active torsions:
REMARK  status: ('A' for Active; 'I' for Inactive)
REMARK    1  A    between atoms: C2_2  and  C3_3 
REMARK    2  A    between atoms: C3_3  and  C4_5 
REMARK    3  A    between atoms: C4_5  and  N2_9 
REMARK    4  A    between atoms: N2_9  and  C5_11 
REMARK    5  A    between atoms: C7_13  and  O1_14 
REMARK    6  A    between atoms: C9_18  and  C10_19 
REMARK    7  A    between atoms: C10_19  and  N3_20 
REMARK    8  A    between atoms: N3_20  and  C13_23 
REMARK    9  A    between atoms: C15_25  and  O2_26 
ROOT
HETATM    1  C5  UNL     1      10.571  23.061  20.648  1.00  0.00     0.114 C 
HETATM    2  C6  UNL     1      11.455  23.123  21.868  1.00  0.00     0.061 C 
HETATM    3  C7  UNL     1      12.724  23.831  21.368  1.00  0.00     0.139 C 
HETATM    4  C8  UNL     1      12.332  25.266  21.139  1.00  0.00     0.119 C 
HETATM    5 CL1  UNL     1      13.772  26.200  20.789  1.00  0.00    -0.122 Cl
HETATM    6  C9  UNL     1      11.267  25.401  20.045  1.00  0.00     0.063 C 
HETATM    7  C15 UNL     1      10.135  24.466  20.330  1.00  0.00     0.148 C 
ENDROOT
BRANCH   1   8
HETATM    8  N2  UNL     1       9.409  22.255  20.827  1.00  0.00    -0.372 N 
ATOM      9  H2  UNL     1       8.865  22.378  21.681  1.00  0.00     0.161 HD
BRANCH   8  10
HETATM   10  C4  UNL     1       8.964  21.285  19.877  1.00  0.00     0.089 C 
HETATM   11  N1  UNL     1       8.724  21.615  18.662  1.00  0.00    -0.388 N 
ATOM     12  H12 UNL     1       8.406  20.923  17.984  1.00  0.00     0.157 HD
ATOM     13  H11 UNL     1       8.850  22.583  18.367  1.00  0.00     0.157 HD
BRANCH  10  14
HETATM   14  C3  UNL     1       8.782  19.889  20.305  1.00  0.00     0.146 C 
HETATM   15 BR1  UNL     1      10.212  19.378  21.496  1.00  0.00    -0.079 Br
BRANCH  14  16
HETATM   16  C2  UNL     1       8.836  18.941  19.149  1.00  0.00    -0.014 C 
HETATM   17  C1  UNL     1       9.526  17.819  19.154  1.00  0.00     0.008 C 
ENDBRANCH  14  16
ENDBRANCH  10  14
ENDBRANCH   8  10
ENDBRANCH   1   8
BRANCH   7  18
HETATM   18  O2  UNL     1       9.471  24.975  21.470  1.00  0.00    -0.393 OA
ATOM     19  H2  UNL     1       8.702  25.444  21.168  1.00  0.00     0.210 HD
ENDBRANCH   7  18
BRANCH   3  20
HETATM   20  O1  UNL     1      13.614  23.811  22.432  1.00  0.00    -0.394 OA
ATOM     21  H1  UNL     1      13.683  24.710  22.730  1.00  0.00     0.210 HD
ENDBRANCH   3  20
BRANCH   6  22
HETATM   22  C10 UNL     1      11.930  25.236  18.730  1.00  0.00     0.245 C 
BRANCH  22  23
HETATM   23  N3  UNL     1      11.815  26.218  17.752  1.00  0.00    -0.075 N 
HETATM   24  C11 UNL     1      11.725  27.588  18.142  1.00  0.00     0.272 C 
HETATM   25  C12 UNL     1      10.702  25.946  16.848  1.00  0.00     0.272 C 
BRANCH  23  26
HETATM   26  C13 UNL     1      13.004  26.133  16.873  1.00  0.00     0.232 C 
HETATM   27  C14 UNL     1      13.898  24.996  17.273  1.00  0.00     0.034 C 
ENDBRANCH  23  26
ENDBRANCH  22  23
ENDBRANCH   6  22
TORSDOF 9
ENDMDL
MODEL 4
REMARK VINA RESULT: -5.495034256      1.800      2.399
REMARK  9 active torsions:
REMARK  status: ('A' for Active; 'I' for Inactive)
REMARK    1  A    between atoms: C2_2  and  C3_3 
REMARK    2  A    between atoms: C3_3  and  C4_5 
REMARK    3  A    between atoms: C4_5  and  N2_9 
REMARK    4  A    between atoms: N2_9  and  C5_11 
REMARK    5  A    between atoms: C7_13  and  O1_14 
REMARK    6  A    between atoms: C9_18  and  C10_19 
REMARK    7  A    between atoms: C10_19  and  N3_20 
REMARK    8  A    between atoms: N3_20  and  C13_23 
REMARK    9  A    between atoms: C15_25  and  O2_26 
ROOT
HETATM    1  C5  UNL     1      10.571  23.351  22.980  1.00  0.00     0.114 C 
HETATM    2  C6  UNL     1      10.088  24.093  24.200  1.00  0.00     0.061 C 
HETATM    3  C7  UNL     1      11.165  25.163  24.433  1.00  0.00     0.139 C 
HETATM    4  C8  UNL     1      11.000  26.163  23.320  1.00  0.00     0.119 C 
HETATM    5 CL1  UNL     1      12.034  27.541  23.634  1.00  0.00    -0.122 Cl
HETATM    6  C9  UNL     1      11.259  25.537  21.944  1.00  0.00     0.063 C 
HETATM    7  C15 UNL     1      10.455  24.284  21.805  1.00  0.00     0.148 C 
ENDROOT
BRANCH   1   8
HETATM    8  N2  UNL     1       9.824  22.171  22.697  1.00  0.00    -0.372 N 
ATOM      9  H2  UNL     1       8.826  22.171  22.905  1.00  0.00     0.161 HD
BRANCH   8  10
HETATM   10  C4  UNL     1      10.396  20.987  22.139  1.00  0.00     0.089 C 
HETATM   11  N1  UNL     1      11.306  20.336  22.765  1.00  0.00    -0.388 N 
ATOM     12  H12 UNL     1      11.715  19.491  22.367  1.00  0.00     0.157 HD
ATOM     13  H11 UNL     1      11.629  20.667  23.674  1.00  0.00     0.157 HD
BRANCH  10  14
HETATM   14  C3  UNL     1       9.930  20.511  20.827  1.00  0.00     0.146 C 
HETATM   15 BR1  UNL     1       8.356  21.492  20.296  1.00  0.00    -0.079 Br
BRANCH  14  16
HETATM   16  C2  UNL     1       9.535  19.068  20.866  1.00  0.00    -0.014 C 
HETATM   17  C1  UNL     1       9.561  18.274  19.816  1.00  0.00     0.008 C 
ENDBRANCH  14  16
ENDBRANCH  10  14
ENDBRANCH   8  10
ENDBRANCH   1   8
BRANCH   7  18
HETATM   18  O2  UNL     1       9.102  24.684  21.709  1.00  0.00    -0.393 OA
ATOM     19  H2  UNL     1       8.578  23.900  21.601  1.00  0.00     0.210 HD
ENDBRANCH   7  18
BRANCH   3  20
HETATM   20  O1  UNL     1      10.818  25.801  25.615  1.00  0.00    -0.394 OA
ATOM     21  H1  UNL     1      10.199  25.226  26.048  1.00  0.00     0.210 HD
ENDBRANCH   3  20
BRANCH   6  22
HETATM   22  C10 UNL     1      12.724  25.392  21.771  1.00  0.00     0.245 C 
BRANCH  22  23
HETATM   23  N3  UNL     1      13.381  26.041  20.732  1.00  0.00    -0.075 N 
HETATM   24  C11 UNL     1      12.741  27.133  20.074  1.00  0.00     0.272 C 
HETATM   25  C12 UNL     1      13.815  25.102  19.702  1.00  0.00     0.272 C 
BRANCH  23  26
HETATM   26  C13 UNL     1      14.653  26.586  21.262  1.00  0.00     0.232 C 
HETATM   27  C14 UNL     1      15.003  25.968  22.583  1.00  0.00     0.034 C 
ENDBRANCH  23  26
ENDBRANCH  22  23
ENDBRANCH   6  22
TORSDOF 9
ENDMDL
MODEL 5
REMARK VINA RESULT: -5.455365783      1.545      1.980
REMARK  9 active torsions:
REMARK  status: ('A' for Active; 'I' for Inactive)
REMARK    1  A    between atoms: C2_2  and  C3_3 
REMARK    2  A    between atoms: C3_3  and  C4_5 
REMARK    3  A    between atoms: C4_5  and  N2_9 
REMARK    4  A    between atoms: N2_9  and  C5_11 
REMARK    5  A    between atoms: C7_13  and  O1_14 
REMARK    6  A    between atoms: C9_18  and  C10_19 
REMARK    7  A    between atoms: C10_19  and  N3_20 
REMARK    8  A    between atoms: N3_20  and  C13_23 
REMARK    9  A    between atoms: C15_25  and  O2_26 
ROOT
HETATM    1  C5  UNL     1      10.804  23.397  22.633  1.00  0.00     0.114 C 
HETATM    2  C6  UNL     1      10.646  24.261  23.858  1.00  0.00     0.061 C 
HETATM    3  C7  UNL     1      11.771  25.297  23.726  1.00  0.00     0.139 C 
HETATM    4  C8  UNL     1      11.365  26.205  22.596  1.00  0.00     0.119 C 
HETATM    5 CL1  UNL     1      12.476  27.557  22.524  1.00  0.00    -0.122 Cl
HETATM    6  C9  UNL     1      11.271  25.453  21.263  1.00  0.00     0.063 C 
HETATM    7  C15 UNL     1      10.429  24.230  21.437  1.00  0.00     0.148 C 
ENDROOT
BRANCH   1   8
HETATM    8  N2  UNL     1       9.984  22.230  22.648  1.00  0.00    -0.372 N 
ATOM      9  H2  UNL     1       9.046  22.307  23.041  1.00  0.00     0.161 HD
BRANCH   8  10
HETATM   10  C4  UNL     1      10.403  20.961  22.143  1.00  0.00     0.089 C 
HETATM   11  N1  UNL     1      11.216  20.225  22.806  1.00  0.00    -0.388 N 
ATOM     12  H12 UNL     1      11.515  19.319  22.446  1.00  0.00     0.157 HD
ATOM     13  H11 UNL     1      11.571  20.547  23.707  1.00  0.00     0.157 HD
BRANCH  10  14
HETATM   14  C3  UNL     1       9.890  20.497  20.845  1.00  0.00     0.146 C 
HETATM   15 BR1  UNL     1       8.264  21.440  20.408  1.00  0.00    -0.079 Br
BRANCH  14  16
HETATM   16  C2  UNL     1       9.541  19.043  20.871  1.00  0.00    -0.014 C 
HETATM   17  C1  UNL     1       9.565  18.265  19.808  1.00  0.00     0.008 C 
ENDBRANCH  14  16
ENDBRANCH  10  14
ENDBRANCH   8  10
ENDBRANCH   1   8
BRANCH   7  18
HETATM   18  O2  UNL     1       9.103  24.680  21.629  1.00  0.00    -0.393 OA
ATOM     19  H2  UNL     1       8.732  24.184  22.350  1.00  0.00     0.210 HD
ENDBRANCH   7  18
BRANCH   3  20
HETATM   20  O1  UNL     1      11.734  26.049  24.892  1.00  0.00    -0.394 OA
ATOM     21  H1  UNL     1      12.136  25.509  25.562  1.00  0.00     0.210 HD
ENDBRANCH   3  20
BRANCH   6  22
HETATM   22  C10 UNL     1      12.647  25.228  20.761  1.00  0.00     0.245 C 
BRANCH  22  23
HETATM   23  N3  UNL     1      13.023  25.679  19.500  1.00  0.00    -0.075 N 
HETATM   24  C11 UNL     1      12.482  26.904  19.006  1.00  0.00     0.272 C 
HETATM   25  C12 UNL     1      12.803  24.660  18.479  1.00  0.00     0.272 C 
BRANCH  23  26
HETATM   26  C13 UNL     1      14.492  25.863  19.497  1.00  0.00     0.232 C 
HETATM   27  C14 UNL     1      15.130  25.137  18.348  1.00  0.00     0.034 C 
ENDBRANCH  23  26
ENDBRANCH  22  23
ENDBRANCH   6  22
TORSDOF 9
ENDMDL
