MODEL 1
REMARK VINA RESULT: -6.657565635      0.000      0.000
REMARK  7 active torsions:
REMARK  status: ('A' for Active; 'I' for Inactive)
REMARK    1  A    between atoms: N1_1  and  C1_5 
REMARK    2  A    between atoms: C1_5  and  C2_6 
REMARK    3  A    between atoms: C2_6  and  N2_7 
REMARK       I    between atoms: N2_7  and  C3_9 
REMARK    4  A    between atoms: C3_9  and  C4_11 
REMARK       I    between atoms: N3_15  and  C8_16 
REMARK    5  A    between atoms: C8_16  and  C9_18 
REMARK    6  A    between atoms: C9_18  and  C10_19 
REMARK    7  A    between atoms: C13_23  and  C14_24 
ROOT
HETATM    1  C4  UNL     1       9.533  22.242  21.645  1.00  0.00     0.179 C 
HETATM    2  C5  UNL     1       9.359  22.725  20.214  1.00  0.00     0.037 C 
HETATM    3  C6  UNL     1      10.686  23.250  19.773  1.00  0.00     0.022 C 
HETATM    4  C7  UNL     1      11.578  23.021  20.967  1.00  0.00     0.127 C 
HETATM    5  N3  UNL     1      10.653  23.035  22.068  1.00  0.00    -0.339 N 
HETATM    6  C8  UNL     1      10.835  23.695  23.280  1.00  0.00     0.222 C 
HETATM    7  O2  UNL     1      11.898  24.386  23.442  1.00  0.00    -0.273 OA
ENDROOT
BRANCH   1   8
HETATM    8  C3  UNL     1       9.791  20.790  21.714  1.00  0.00     0.240 C 
HETATM    9  N2  UNL     1       9.477  19.955  20.619  1.00  0.00    -0.358 N 
ATOM     10  H2  UNL     1       9.070  20.400  19.796  1.00  0.00     0.162 HD
HETATM   11  O1  UNL     1      10.288  20.283  22.740  1.00  0.00    -0.271 OA
BRANCH   9  12
HETATM   12  C2  UNL     1       9.679  18.539  20.561  1.00  0.00     0.150 C 
BRANCH  12  13
HETATM   13  C1  UNL     1       9.415  17.938  19.213  1.00  0.00     0.249 C 
BRANCH  13  14
HETATM   14  N1  UNL     1       8.283  18.645  18.622  1.00  0.00    -0.078 N 
ATOM     15  H13 UNL     1       7.600  18.949  19.316  1.00  0.00     0.274 HD
ATOM     16  H12 UNL     1       8.535  19.566  18.265  1.00  0.00     0.274 HD
ATOM     17  H11 UNL     1       7.877  18.041  17.906  1.00  0.00     0.274 HD
ENDBRANCH  13  14
ENDBRANCH  12  13
ENDBRANCH   9  12
ENDBRANCH   1   8
BRANCH   6  18
HETATM   18  C9  UNL     1       9.866  23.639  24.385  1.00  0.00     0.136 C 
BRANCH  18  19
HETATM   19  C10 UNL     1      10.126  24.784  25.357  1.00  0.00     0.196 C 
HETATM   20  C11 UNL     1       8.784  25.334  25.776  1.00  0.00     0.055 C 
HETATM   21  C12 UNL     1       8.562  24.618  27.113  1.00  0.00     0.115 C 
HETATM   22 CL1  UNL     1       7.496  25.525  28.172  1.00  0.00    -0.123 Cl
HETATM   23  C13 UNL     1       9.980  24.621  27.663  1.00  0.00     0.214 C 
HETATM   24  N4  UNL     1      10.796  24.274  26.512  1.00  0.00    -0.064 N 
ATOM     25  H42 UNL     1      10.999  23.276  26.450  1.00  0.00     0.278 HD
ATOM     26  H41 UNL     1      11.760  24.598  26.592  1.00  0.00     0.278 HD
BRANCH  23  27
HETATM   27  C14 UNL     1      10.277  26.011  28.171  1.00  0.00     0.119 C 
HETATM   28 BR1  UNL     1      12.195  26.352  28.144  1.00  0.00    -0.094 Br
ENDBRANCH  23  27
ENDBRANCH  18  19
ENDBRANCH   6  18
TORSDOF 7
ENDMDL
MODEL 2
REMARK VINA RESULT: -6.184722709      1.232      1.313
REMARK  7 active torsions:
REMARK  status: ('A' for Active; 'I' for Inactive)
REMARK    1  A    between atoms: N1_1  and  C1_5 
REMARK    2  A    between atoms: C1_5  and  C2_6 
REMARK    3  A    between atoms: C2_6  and  N2_7 
REMARK       I    between atoms: N2_7  and  C3_9 
REMARK    4  A    between atoms: C3_9  and  C4_11 
REMARK       I    between atoms: N3_15  and  C8_16 
REMARK    5  A    between atoms: C8_16  and  C9_18 
REMARK    6  A    between atoms: C9_18  and  C10_19 
REMARK    7  A    between atoms: C13_23  and  C14_24 
ROOT
HETATM    1  C4  UNL     1       9.866  23.161  20.998  1.00  0.00     0.179 C 
HETATM    2  C5  UNL     1       9.865  23.951  19.699  1.00  0.00     0.037 C 
HETATM    3  C6  UNL     1      11.257  24.457  19.503  1.00  0.00     0.022 C 
HETATM    4  C7  UNL     1      12.009  23.911  20.690  1.00  0.00     0.127 C 
HETATM    5  N3  UNL     1      10.978  23.760  21.682  1.00  0.00    -0.339 N 
HETATM    6  C8  UNL     1      11.070  24.130  23.021  1.00  0.00     0.222 C 
HETATM    7  O2  UNL     1      12.147  24.689  23.424  1.00  0.00    -0.273 OA
ENDROOT
BRANCH   1   8
HETATM    8  C3  UNL     1      10.037  21.713  20.769  1.00  0.00     0.240 C 
HETATM    9  N2  UNL     1      10.464  20.868  21.818  1.00  0.00    -0.358 N 
ATOM     10  H2  UNL     1      10.645  21.305  22.722  1.00  0.00     0.162 HD
HETATM   11  O1  UNL     1       9.808  21.218  19.647  1.00  0.00    -0.271 OA
BRANCH   9  12
HETATM   12  C2  UNL     1      10.667  19.455  21.725  1.00  0.00     0.150 C 
BRANCH  12  13
HETATM   13  C1  UNL     1       9.524  18.713  21.099  1.00  0.00     0.249 C 
BRANCH  13  14
HETATM   14  N1  UNL     1      10.043  17.985  19.944  1.00  0.00    -0.078 N 
ATOM     15  H13 UNL     1      10.593  18.574  19.320  1.00  0.00     0.274 HD
ATOM     16  H12 UNL     1      10.778  17.323  20.192  1.00  0.00     0.274 HD
ATOM     17  H11 UNL     1       9.253  17.540  19.475  1.00  0.00     0.274 HD
ENDBRANCH  13  14
ENDBRANCH  12  13
ENDBRANCH   9  12
ENDBRANCH   1   8
BRANCH   6  18
HETATM   18  C9  UNL     1       9.992  23.912  23.997  1.00  0.00     0.136 C 
BRANCH  18  19
HETATM   19  C10 UNL     1      10.152  24.877  25.166  1.00  0.00     0.196 C 
HETATM   20  C11 UNL     1       8.778  25.126  25.738  1.00  0.00     0.055 C 
HETATM   21  C12 UNL     1       8.751  24.143  26.913  1.00  0.00     0.115 C 
HETATM   22 CL1  UNL     1       7.642  24.659  28.172  1.00  0.00    -0.123 Cl
HETATM   23  C13 UNL     1      10.188  24.257  27.397  1.00  0.00     0.214 C 
HETATM   24  N4  UNL     1      10.965  24.264  26.170  1.00  0.00    -0.064 N 
ATOM     25  H42 UNL     1      11.302  23.339  25.903  1.00  0.00     0.278 HD
ATOM     26  H41 UNL     1      11.877  24.710  26.275  1.00  0.00     0.278 HD
BRANCH  23  27
HETATM   27  C14 UNL     1      10.319  25.554  28.160  1.00  0.00     0.119 C 
HETATM   28 BR1  UNL     1      12.172  26.154  28.171  1.00  0.00    -0.094 Br
ENDBRANCH  23  27
ENDBRANCH  18  19
ENDBRANCH   6  18
TORSDOF 7
ENDMDL
MODEL 3
REMARK VINA RESULT: -6.099955048      1.335      1.533
REMARK  7 active torsions:
REMARK  status: ('A' for Active; 'I' for Inactive)
REMARK    1  A    between atoms: N1_1  and  C1_5 
REMARK    2  A    between atoms: C1_5  and  C2_6 
REMARK    3  A    between atoms: C2_6  and  N2_7 
REMARK       I    between atoms: N2_7  and  C3_9 
REMARK    4  A    between atoms: C3_9  and  C4_11 
REMARK       I    between atoms: N3_15  and  C8_16 
REMARK    5  A    between atoms: C8_16  and  C9_18 
REMARK    6  A    between atoms: C9_18  and  C10_19 
REMARK    7  A    between atoms: C13_23  and  C14_24 
ROOT
HETATM    1  C4  UNL     1       9.423  21.988  21.713  1.00  0.00     0.179 C 
HETATM    2  C5  UNL     1       8.347  22.257  20.673  1.00  0.00     0.037 C 
HETATM    3  C6  UNL     1       9.014  22.960  19.536  1.00  0.00     0.022 C 
HETATM    4  C7  UNL     1      10.458  23.042  19.962  1.00  0.00     0.127 C 
HETATM    5  N3  UNL     1      10.372  23.018  21.398  1.00  0.00    -0.339 N 
HETATM    6  C8  UNL     1      11.077  23.841  22.273  1.00  0.00     0.222 C 
HETATM    7  O2  UNL     1      11.852  24.730  21.779  1.00  0.00    -0.273 OA
ENDROOT
BRANCH   1   8
HETATM    8  C3  UNL     1       9.983  20.628  21.596  1.00  0.00     0.240 C 
HETATM    9  N2  UNL     1       9.406  19.691  20.710  1.00  0.00    -0.358 N 
ATOM     10  H2  UNL     1       8.598  19.999  20.168  1.00  0.00     0.162 HD
HETATM   11  O1  UNL     1      10.970  20.288  22.279  1.00  0.00    -0.271 OA
BRANCH   9  12
HETATM   12  C2  UNL     1       9.854  18.347  20.505  1.00  0.00     0.150 C 
BRANCH  12  13
HETATM   13  C1  UNL     1       9.476  17.772  19.172  1.00  0.00     0.249 C 
BRANCH  13  14
HETATM   14  N1  UNL     1       8.350  18.545  18.655  1.00  0.00    -0.078 N 
ATOM     15  H13 UNL     1       7.980  19.209  19.335  1.00  0.00     0.274 HD
ATOM     16  H12 UNL     1       8.628  19.220  17.943  1.00  0.00     0.274 HD
ATOM     17  H11 UNL     1       7.646  17.886  18.322  1.00  0.00     0.274 HD
ENDBRANCH  13  14
ENDBRANCH  12  13
ENDBRANCH   9  12
ENDBRANCH   1   8
BRANCH   6  18
HETATM   18  C9  UNL     1      10.975  23.741  23.736  1.00  0.00     0.136 C 
BRANCH  18  19
HETATM   19  C10 UNL     1      10.437  25.049  24.306  1.00  0.00     0.196 C 
HETATM   20  C11 UNL     1       9.621  24.706  25.529  1.00  0.00     0.055 C 
HETATM   21  C12 UNL     1      10.632  24.955  26.653  1.00  0.00     0.115 C 
HETATM   22 CL1  UNL     1       9.841  25.338  28.172  1.00  0.00    -0.123 Cl
HETATM   23  C13 UNL     1      11.350  26.181  26.108  1.00  0.00     0.214 C 
HETATM   24  N4  UNL     1      11.535  25.874  24.700  1.00  0.00    -0.064 N 
ATOM     25  H42 UNL     1      12.444  25.456  24.497  1.00  0.00     0.278 HD
ATOM     26  H41 UNL     1      11.642  26.705  24.119  1.00  0.00     0.278 HD
BRANCH  23  27
HETATM   27  C14 UNL     1      10.449  27.375  26.315  1.00  0.00     0.119 C 
HETATM   28 BR1  UNL     1      11.334  28.713  27.420  1.00  0.00    -0.094 Br
ENDBRANCH  23  27
ENDBRANCH  18  19
ENDBRANCH   6  18
TORSDOF 7
ENDMDL
MODEL 4
REMARK VINA RESULT: -6.038945680      4.483      6.182
REMARK  7 active torsions:
REMARK  status: ('A' for Active; 'I' for Inactive)
REMARK    1  A    between atoms: N1_1  and  C1_5 
REMARK    2  A    between atoms: C1_5  and  C2_6 
REMARK    3  A    between atoms: C2_6  and  N2_7 
REMARK       I    between atoms: N2_7  and  C3_9 
REMARK    4  A    between atoms: C3_9  and  C4_11 
REMARK       I    between atoms: N3_15  and  C8_16 
REMARK    5  A    between atoms: C8_16  and  C9_18 
REMARK    6  A    between atoms: C9_18  and  C10_19 
REMARK    7  A    between atoms: C13_23  and  C14_24 
ROOT
HETATM    1  C4  UNL     1      11.106  22.857  21.037  1.00  0.00     0.179 C 
HETATM    2  C5  UNL     1      10.965  22.866  22.551  1.00  0.00     0.037 C 
HETATM    3  C6  UNL     1      10.000  23.955  22.887  1.00  0.00     0.022 C 
HETATM    4  C7  UNL     1       9.605  24.513  21.543  1.00  0.00     0.127 C 
HETATM    5  N3  UNL     1      10.746  24.211  20.721  1.00  0.00    -0.339 N 
HETATM    6  C8  UNL     1      11.355  25.078  19.817  1.00  0.00     0.222 C 
HETATM    7  O2  UNL     1      10.897  26.268  19.714  1.00  0.00    -0.273 OA
ENDROOT
BRANCH   1   8
HETATM    8  C3  UNL     1      10.224  21.860  20.401  1.00  0.00     0.240 C 
HETATM    9  N2  UNL     1       9.962  20.626  21.039  1.00  0.00    -0.358 N 
ATOM     10  H2  UNL     1      10.408  20.467  21.943  1.00  0.00     0.162 HD
HETATM   11  O1  UNL     1       9.701  22.092  19.292  1.00  0.00    -0.271 OA
BRANCH   9  12
HETATM   12  C2  UNL     1       9.128  19.581  20.530  1.00  0.00     0.150 C 
BRANCH  12  13
HETATM   13  C1  UNL     1       9.846  18.286  20.291  1.00  0.00     0.249 C 
BRANCH  13  14
HETATM   14  N1  UNL     1       9.102  17.542  19.279  1.00  0.00    -0.078 N 
ATOM     15  H13 UNL     1       9.235  16.534  19.352  1.00  0.00     0.274 HD
ATOM     16  H12 UNL     1       8.094  17.559  19.437  1.00  0.00     0.274 HD
ATOM     17  H11 UNL     1       9.365  17.911  18.365  1.00  0.00     0.274 HD
ENDBRANCH  13  14
ENDBRANCH  12  13
ENDBRANCH   9  12
ENDBRANCH   1   8
BRANCH   6  18
HETATM   18  C9  UNL     1      12.498  24.697  18.975  1.00  0.00     0.136 C 
BRANCH  18  19
HETATM   19  C10 UNL     1      13.801  25.056  19.681  1.00  0.00     0.196 C 
HETATM   20  C11 UNL     1      14.853  25.249  18.616  1.00  0.00     0.055 C 
HETATM   21  C12 UNL     1      14.847  26.772  18.450  1.00  0.00     0.115 C 
HETATM   22 CL1  UNL     1      16.384  27.370  17.848  1.00  0.00    -0.123 Cl
HETATM   23  C13 UNL     1      14.641  27.204  19.894  1.00  0.00     0.214 C 
HETATM   24  N4  UNL     1      13.626  26.288  20.385  1.00  0.00    -0.064 N 
ATOM     25  H42 UNL     1      12.680  26.662  20.312  1.00  0.00     0.278 HD
ATOM     26  H41 UNL     1      13.645  26.176  21.399  1.00  0.00     0.278 HD
BRANCH  23  27
HETATM   27  C14 UNL     1      15.956  27.037  20.618  1.00  0.00     0.119 C 
HETATM   28 BR1  UNL     1      15.653  26.750  22.521  1.00  0.00    -0.094 Br
ENDBRANCH  23  27
ENDBRANCH  18  19
ENDBRANCH   6  18
TORSDOF 7
ENDMDL
MODEL 5
REMARK VINA RESULT: -5.846080858      5.253      7.245
REMARK  7 active torsions:
REMARK  status: ('A' for Active; 'I' for Inactive)
REMARK    1  A    between atoms: N1_1  and  C1_5 
REMARK    2  A    between atoms: C1_5  and  C2_6 
REMARK    3  A    between atoms: C2_6  and  N2_7 
REMARK       I    between atoms: N2_7  and  C3_9 
REMARK    4  A    between atoms: C3_9  and  C4_11 
REMARK       I    between atoms: N3_15  and  C8_16 
REMARK    5  A    between atoms: C8_16  and  C9_18 
REMARK    6  A    between atoms: C9_18  and  C10_19 
REMARK    7  A    between atoms: C13_23  and  C14_24 
ROOT
HETATM    1  C4  UNL     1      11.452  23.253  21.595  1.00  0.00     0.179 C 
HETATM    2  C5  UNL     1      10.887  22.884  22.958  1.00  0.00     0.037 C 
HETATM    3  C6  UNL     1       9.977  23.997  23.361  1.00  0.00     0.022 C 
HETATM    4  C7  UNL     1      10.035  24.951  22.195  1.00  0.00     0.127 C 
HETATM    5  N3  UNL     1      11.329  24.683  21.625  1.00  0.00    -0.339 N 
HETATM    6  C8  UNL     1      12.250  25.638  21.203  1.00  0.00     0.222 C 
HETATM    7  O2  UNL     1      11.957  26.874  21.356  1.00  0.00    -0.273 OA
ENDROOT
BRANCH   1   8
HETATM    8  C3  UNL     1      10.695  22.629  20.492  1.00  0.00     0.240 C 
HETATM    9  N2  UNL     1       9.858  21.517  20.738  1.00  0.00    -0.358 N 
ATOM     10  H2  UNL     1       9.808  21.176  21.698  1.00  0.00     0.162 HD
HETATM   11  O1  UNL     1      10.785  23.074  19.330  1.00  0.00    -0.271 OA
BRANCH   9  12
HETATM   12  C2  UNL     1       9.075  20.827  19.759  1.00  0.00     0.150 C 
BRANCH  12  13
HETATM   13  C1  UNL     1       9.084  19.335  19.909  1.00  0.00     0.249 C 
BRANCH  13  14
HETATM   14  N1  UNL     1       8.328  18.769  18.796  1.00  0.00    -0.078 N 
ATOM     15  H13 UNL     1       7.780  17.952  19.065  1.00  0.00     0.274 HD
ATOM     16  H12 UNL     1       7.553  19.362  18.501  1.00  0.00     0.274 HD
ATOM     17  H11 UNL     1       8.985  18.572  18.040  1.00  0.00     0.274 HD
ENDBRANCH  13  14
ENDBRANCH  12  13
ENDBRANCH   9  12
ENDBRANCH   1   8
BRANCH   6  18
HETATM   18  C9  UNL     1      13.543  25.300  20.591  1.00  0.00     0.136 C 
BRANCH  18  19
HETATM   19  C10 UNL     1      13.621  25.893  19.189  1.00  0.00     0.196 C 
HETATM   20  C11 UNL     1      15.082  25.984  18.818  1.00  0.00     0.055 C 
HETATM   21  C12 UNL     1      15.270  24.710  17.989  1.00  0.00     0.115 C 
HETATM   22 CL1  UNL     1      16.595  24.861  16.849  1.00  0.00    -0.123 Cl
HETATM   23  C13 UNL     1      13.941  24.666  17.250  1.00  0.00     0.214 C 
HETATM   24  N4  UNL     1      12.967  25.012  18.272  1.00  0.00    -0.064 N 
ATOM     25  H42 UNL     1      12.554  24.197  18.724  1.00  0.00     0.278 HD
ATOM     26  H41 UNL     1      12.105  25.400  17.889  1.00  0.00     0.278 HD
BRANCH  23  27
HETATM   27  C14 UNL     1      13.992  25.693  16.144  1.00  0.00     0.119 C 
HETATM   28 BR1  UNL     1      13.515  24.882  14.438  1.00  0.00    -0.094 Br
ENDBRANCH  23  27
ENDBRANCH  18  19
ENDBRANCH   6  18
TORSDOF 7
ENDMDL
