MODEL 1
REMARK VINA RESULT: -6.361351464      0.000      0.000
REMARK  9 active torsions:
REMARK  status: ('A' for Active; 'I' for Inactive)
REMARK    1  A    between atoms: C2_2  and  N1_3 
REMARK       I    between atoms: N1_3  and  C3_5 
REMARK    2  A    between atoms: C3_5  and  C4_7 
REMARK    3  A    between atoms: C6_9  and  C7_10 
REMARK    4  A    between atoms: C7_10  and  N2_12 
REMARK    5  A    between atoms: N2_12  and  C9_14 
REMARK    6  A    between atoms: C9_14  and  C10_15 
REMARK    7  A    between atoms: C10_15  and  N3_16 
REMARK       I    between atoms: N3_16  and  C11_18 
REMARK    8  A    between atoms: C11_18  and  C12_20 
REMARK    9  A    between atoms: C13_21  and  C14_22 
ROOT
HETATM    1  N2  UNL     1      13.187  24.744  21.889  1.00  0.00    -0.371 N 
ATOM      2  H2  UNL     1      13.727  24.113  22.480  1.00  0.00     0.161 HD
ENDROOT
BRANCH   1   3
HETATM    3  C7  UNL     1      11.746  24.827  22.039  1.00  0.00     0.109 C 
HETATM    4  C8  UNL     1      11.418  26.236  22.423  1.00  0.00     0.034 C 
BRANCH   3   5
HETATM    5  C6  UNL     1      11.289  23.773  22.948  1.00  0.00     0.211 C 
HETATM    6  C5  UNL     1      10.046  23.027  22.694  1.00  0.00     0.078 C 
HETATM    7  C4  UNL     1      10.891  22.174  21.809  1.00  0.00     0.279 C 
HETATM    8  N5  UNL     1      12.009  22.512  22.673  1.00  0.00    -0.056 N 
ATOM      9  H52 UNL     1      12.311  21.892  23.424  1.00  0.00     0.278 HD
ATOM     10  H51 UNL     1      12.970  22.509  22.330  1.00  0.00     0.278 HD
BRANCH   7  11
HETATM   11  C3  UNL     1      10.530  20.737  21.813  1.00  0.00     0.248 C 
HETATM   12  N1  UNL     1       9.797  20.125  20.769  1.00  0.00    -0.360 N 
ATOM     13  H1  UNL     1       9.505  20.699  19.978  1.00  0.00     0.162 HD
HETATM   14  O1  UNL     1      10.897  20.041  22.791  1.00  0.00    -0.271 OA
BRANCH  12  15
HETATM   15  C2  UNL     1       9.446  18.721  20.774  1.00  0.00     0.118 C 
HETATM   16  C1  UNL     1       9.453  18.168  19.374  1.00  0.00     0.026 C 
ENDBRANCH  12  15
ENDBRANCH   7  11
ENDBRANCH   3   5
ENDBRANCH   1   3
BRANCH   1  17
HETATM   17  C9  UNL     1      13.850  25.556  20.905  1.00  0.00     0.106 C 
HETATM   18  N4  UNL     1      14.842  26.311  21.224  1.00  0.00    -0.287 N 
HETATM   19 CL1  UNL     1      15.373  26.337  22.871  1.00  0.00     0.012 Cl
ATOM     20  H4  UNL     1      15.308  26.883  20.518  1.00  0.00     0.181 HD
BRANCH  17  21
HETATM   21  C10 UNL     1      13.331  25.476  19.516  1.00  0.00     0.200 C 
BRANCH  21  22
HETATM   22  N3  UNL     1      14.344  24.852  18.696  1.00  0.00    -0.343 N 
HETATM   23  C11 UNL     1      15.240  25.654  17.954  1.00  0.00     0.296 C 
HETATM   24  O2  UNL     1      15.147  26.897  18.015  1.00  0.00    -0.258 OA
ATOM     25  H3  UNL     1      14.411  23.835  18.652  1.00  0.00     0.163 HD
BRANCH  23  26
HETATM   26  C12 UNL     1      16.250  25.060  17.136  1.00  0.00    -0.005 C 
HETATM   27  C13 UNL     1      17.105  24.574  16.430  1.00  0.00    -0.086 C 
BRANCH  27  28
HETATM   28  C14 UNL     1      18.147  24.001  15.555  1.00  0.00     0.179 C 
HETATM   29 BR1  UNL     1      19.227  25.385  14.749  1.00  0.00    -0.083 Br
ENDBRANCH  27  28
ENDBRANCH  23  26
ENDBRANCH  21  22
ENDBRANCH  17  21
ENDBRANCH   1  17
TORSDOF 9
ENDMDL
MODEL 2
REMARK VINA RESULT: -5.909859742      1.860      2.316
REMARK  9 active torsions:
REMARK  status: ('A' for Active; 'I' for Inactive)
REMARK    1  A    between atoms: C2_2  and  N1_3 
REMARK       I    between atoms: N1_3  and  C3_5 
REMARK    2  A    between atoms: C3_5  and  C4_7 
REMARK    3  A    between atoms: C6_9  and  C7_10 
REMARK    4  A    between atoms: C7_10  and  N2_12 
REMARK    5  A    between atoms: N2_12  and  C9_14 
REMARK    6  A    between atoms: C9_14  and  C10_15 
REMARK    7  A    between atoms: C10_15  and  N3_16 
REMARK       I    between atoms: N3_16  and  C11_18 
REMARK    8  A    between atoms: C11_18  and  C12_20 
REMARK    9  A    between atoms: C13_21  and  C14_22 
ROOT
HETATM    1  N2  UNL     1      15.183  26.260  21.997  1.00  0.00    -0.371 N 
ATOM      2  H2  UNL     1      15.813  25.545  22.362  1.00  0.00     0.161 HD
ENDROOT
BRANCH   1   3
HETATM    3  C7  UNL     1      13.751  26.133  22.188  1.00  0.00     0.109 C 
HETATM    4  C8  UNL     1      13.331  27.208  23.140  1.00  0.00     0.034 C 
BRANCH   3   5
HETATM    5  C6  UNL     1      13.429  24.754  22.567  1.00  0.00     0.211 C 
HETATM    6  C5  UNL     1      12.039  24.325  22.787  1.00  0.00     0.078 C 
HETATM    7  C4  UNL     1      11.998  24.138  21.308  1.00  0.00     0.279 C 
HETATM    8  N5  UNL     1      13.427  23.883  21.374  1.00  0.00    -0.056 N 
ATOM      9  H52 UNL     1      13.800  22.934  21.403  1.00  0.00     0.278 HD
ATOM     10  H51 UNL     1      14.040  24.063  20.579  1.00  0.00     0.278 HD
BRANCH   7  11
HETATM   11  C3  UNL     1      11.192  22.981  20.856  1.00  0.00     0.248 C 
HETATM   12  N1  UNL     1      10.675  22.010  21.746  1.00  0.00    -0.360 N 
ATOM     13  H1  UNL     1      10.866  22.111  22.743  1.00  0.00     0.162 HD
HETATM   14  O1  UNL     1      10.962  22.867  19.628  1.00  0.00    -0.271 OA
BRANCH  12  15
HETATM   15  C2  UNL     1       9.886  20.879  21.303  1.00  0.00     0.118 C 
HETATM   16  C1  UNL     1      10.493  19.589  21.786  1.00  0.00     0.026 C 
ENDBRANCH  12  15
ENDBRANCH   7  11
ENDBRANCH   3   5
ENDBRANCH   1   3
BRANCH   1  17
HETATM   17  C9  UNL     1      15.712  27.396  21.292  1.00  0.00     0.106 C 
HETATM   18  N4  UNL     1      16.642  28.123  21.804  1.00  0.00    -0.287 N 
HETATM   19 CL1  UNL     1      17.254  27.712  23.370  1.00  0.00     0.012 Cl
ATOM     20  H4  UNL     1      17.012  28.928  21.296  1.00  0.00     0.181 HD
BRANCH  17  21
HETATM   21  C10 UNL     1      15.131  27.680  19.956  1.00  0.00     0.200 C 
BRANCH  21  22
HETATM   22  N3  UNL     1      15.985  27.075  18.959  1.00  0.00    -0.343 N 
HETATM   23  C11 UNL     1      15.688  25.783  18.470  1.00  0.00     0.296 C 
HETATM   24  O2  UNL     1      14.688  25.176  18.905  1.00  0.00    -0.258 OA
ATOM     25  H3  UNL     1      16.800  27.579  18.610  1.00  0.00     0.163 HD
BRANCH  23  26
HETATM   26  C12 UNL     1      16.517  25.164  17.485  1.00  0.00    -0.005 C 
HETATM   27  C13 UNL     1      17.204  24.639  16.636  1.00  0.00    -0.086 C 
BRANCH  27  28
HETATM   28  C14 UNL     1      18.020  24.000  15.586  1.00  0.00     0.179 C 
HETATM   29 BR1  UNL     1      19.239  25.261  14.776  1.00  0.00    -0.083 Br
ENDBRANCH  27  28
ENDBRANCH  23  26
ENDBRANCH  21  22
ENDBRANCH  17  21
ENDBRANCH   1  17
TORSDOF 9
ENDMDL
MODEL 3
REMARK VINA RESULT: -5.905166928      3.443      7.960
REMARK  9 active torsions:
REMARK  status: ('A' for Active; 'I' for Inactive)
REMARK    1  A    between atoms: C2_2  and  N1_3 
REMARK       I    between atoms: N1_3  and  C3_5 
REMARK    2  A    between atoms: C3_5  and  C4_7 
REMARK    3  A    between atoms: C6_9  and  C7_10 
REMARK    4  A    between atoms: C7_10  and  N2_12 
REMARK    5  A    between atoms: N2_12  and  C9_14 
REMARK    6  A    between atoms: C9_14  and  C10_15 
REMARK    7  A    between atoms: C10_15  and  N3_16 
REMARK       I    between atoms: N3_16  and  C11_18 
REMARK    8  A    between atoms: C11_18  and  C12_20 
REMARK    9  A    between atoms: C13_21  and  C14_22 
ROOT
HETATM    1  N2  UNL     1      13.688  26.740  20.827  1.00  0.00    -0.371 N 
ATOM      2  H2  UNL     1      13.394  27.699  21.010  1.00  0.00     0.161 HD
ENDROOT
BRANCH   1   3
HETATM    3  C7  UNL     1      15.055  26.462  20.425  1.00  0.00     0.109 C 
HETATM    4  C8  UNL     1      15.952  27.017  21.486  1.00  0.00     0.034 C 
BRANCH   3   5
HETATM    5  C6  UNL     1      15.270  26.948  19.059  1.00  0.00     0.211 C 
HETATM    6  C5  UNL     1      16.582  26.831  18.403  1.00  0.00     0.078 C 
HETATM    7  C4  UNL     1      16.142  25.449  18.056  1.00  0.00     0.279 C 
HETATM    8  N5  UNL     1      14.780  25.955  18.081  1.00  0.00    -0.056 N 
ATOM      9  H52 UNL     1      14.299  26.237  17.227  1.00  0.00     0.278 HD
ATOM     10  H51 UNL     1      13.987  25.347  18.287  1.00  0.00     0.278 HD
BRANCH   7  11
HETATM   11  C3  UNL     1      16.592  24.976  16.726  1.00  0.00     0.248 C 
HETATM   12  N1  UNL     1      17.882  24.442  16.497  1.00  0.00    -0.360 N 
ATOM     13  H1  UNL     1      18.531  24.380  17.281  1.00  0.00     0.162 HD
HETATM   14  O1  UNL     1      15.785  25.055  15.769  1.00  0.00    -0.271 OA
BRANCH  12  15
HETATM   15  C2  UNL     1      18.321  23.979  15.197  1.00  0.00     0.118 C 
HETATM   16  C1  UNL     1      19.450  24.832  14.685  1.00  0.00     0.026 C 
ENDBRANCH  12  15
ENDBRANCH   7  11
ENDBRANCH   3   5
ENDBRANCH   1   3
BRANCH   1  17
HETATM   17  C9  UNL     1      12.751  25.659  20.966  1.00  0.00     0.106 C 
HETATM   18  N4  UNL     1      11.700  25.589  20.227  1.00  0.00    -0.287 N 
HETATM   19 CL1  UNL     1      11.426  26.828  19.050  1.00  0.00     0.012 Cl
ATOM     20  H4  UNL     1      11.040  24.818  20.333  1.00  0.00     0.181 HD
BRANCH  17  21
HETATM   21  C10 UNL     1      13.060  24.640  22.000  1.00  0.00     0.200 C 
BRANCH  21  22
HETATM   22  N3  UNL     1      12.442  23.396  21.599  1.00  0.00    -0.343 N 
HETATM   23  C11 UNL     1      11.546  22.742  22.475  1.00  0.00     0.296 C 
HETATM   24  O2  UNL     1      11.296  23.248  23.589  1.00  0.00    -0.258 OA
ATOM     25  H3  UNL     1      12.653  22.990  20.688  1.00  0.00     0.163 HD
BRANCH  23  26
HETATM   26  C12 UNL     1      10.923  21.512  22.102  1.00  0.00    -0.005 C 
HETATM   27  C13 UNL     1      10.396  20.462  21.805  1.00  0.00    -0.086 C 
BRANCH  27  28
HETATM   28  C14 UNL     1       9.755  19.176  21.468  1.00  0.00     0.179 C 
HETATM   29 BR1  UNL     1       8.970  19.222  19.704  1.00  0.00    -0.083 Br
ENDBRANCH  27  28
ENDBRANCH  23  26
ENDBRANCH  21  22
ENDBRANCH  17  21
ENDBRANCH   1  17
TORSDOF 9
ENDMDL
MODEL 4
REMARK VINA RESULT: -5.874880604      3.403      7.817
REMARK  9 active torsions:
REMARK  status: ('A' for Active; 'I' for Inactive)
REMARK    1  A    between atoms: C2_2  and  N1_3 
REMARK       I    between atoms: N1_3  and  C3_5 
REMARK    2  A    between atoms: C3_5  and  C4_7 
REMARK    3  A    between atoms: C6_9  and  C7_10 
REMARK    4  A    between atoms: C7_10  and  N2_12 
REMARK    5  A    between atoms: N2_12  and  C9_14 
REMARK    6  A    between atoms: C9_14  and  C10_15 
REMARK    7  A    between atoms: C10_15  and  N3_16 
REMARK       I    between atoms: N3_16  and  C11_18 
REMARK    8  A    between atoms: C11_18  and  C12_20 
REMARK    9  A    between atoms: C13_21  and  C14_22 
ROOT
HETATM    1  N2  UNL     1      13.736  26.539  20.862  1.00  0.00    -0.371 N 
ATOM      2  H2  UNL     1      13.080  27.056  20.276  1.00  0.00     0.161 HD
ENDROOT
BRANCH   1   3
HETATM    3  C7  UNL     1      15.143  26.493  20.512  1.00  0.00     0.109 C 
HETATM    4  C8  UNL     1      15.892  27.227  21.579  1.00  0.00     0.034 C 
BRANCH   3   5
HETATM    5  C6  UNL     1      15.319  26.969  19.137  1.00  0.00     0.211 C 
HETATM    6  C5  UNL     1      16.609  26.839  18.441  1.00  0.00     0.078 C 
HETATM    7  C4  UNL     1      16.149  25.458  18.116  1.00  0.00     0.279 C 
HETATM    8  N5  UNL     1      14.793  25.974  18.180  1.00  0.00    -0.056 N 
ATOM      9  H52 UNL     1      14.287  26.254  17.340  1.00  0.00     0.278 HD
ATOM     10  H51 UNL     1      14.002  25.373  18.414  1.00  0.00     0.278 HD
BRANCH   7  11
HETATM   11  C3  UNL     1      16.555  24.974  16.776  1.00  0.00     0.248 C 
HETATM   12  N1  UNL     1      17.849  24.475  16.499  1.00  0.00    -0.360 N 
ATOM     13  H1  UNL     1      18.534  24.448  17.254  1.00  0.00     0.162 HD
HETATM   14  O1  UNL     1      15.704  25.010  15.855  1.00  0.00    -0.271 OA
BRANCH  12  15
HETATM   15  C2  UNL     1      18.245  24.002  15.188  1.00  0.00     0.118 C 
HETATM   16  C1  UNL     1      19.455  24.749  14.699  1.00  0.00     0.026 C 
ENDBRANCH  12  15
ENDBRANCH   7  11
ENDBRANCH   3   5
ENDBRANCH   1   3
BRANCH   1  17
HETATM   17  C9  UNL     1      13.269  25.856  22.037  1.00  0.00     0.106 C 
HETATM   18  N4  UNL     1      12.486  26.436  22.879  1.00  0.00    -0.287 N 
HETATM   19 CL1  UNL     1      11.998  28.067  22.573  1.00  0.00     0.012 Cl
ATOM     20  H4  UNL     1      12.160  25.942  23.710  1.00  0.00     0.181 HD
BRANCH  17  21
HETATM   21  C10 UNL     1      13.737  24.459  22.225  1.00  0.00     0.200 C 
BRANCH  21  22
HETATM   22  N3  UNL     1      12.785  23.580  21.585  1.00  0.00    -0.343 N 
HETATM   23  C11 UNL     1      11.723  23.027  22.337  1.00  0.00     0.296 C 
HETATM   24  O2  UNL     1      11.618  23.306  23.549  1.00  0.00    -0.258 OA
ATOM     25  H3  UNL     1      12.880  23.358  20.594  1.00  0.00     0.163 HD
BRANCH  23  26
HETATM   26  C12 UNL     1      10.770  22.155  21.727  1.00  0.00    -0.005 C 
HETATM   27  C13 UNL     1       9.962  21.429  21.192  1.00  0.00    -0.086 C 
BRANCH  27  28
HETATM   28  C14 UNL     1       8.975  20.559  20.522  1.00  0.00     0.179 C 
HETATM   29 BR1  UNL     1       9.560  18.718  20.498  1.00  0.00    -0.083 Br
ENDBRANCH  27  28
ENDBRANCH  23  26
ENDBRANCH  21  22
ENDBRANCH  17  21
ENDBRANCH   1  17
TORSDOF 9
ENDMDL
MODEL 5
REMARK VINA RESULT: -5.850680362      2.322      2.559
REMARK  9 active torsions:
REMARK  status: ('A' for Active; 'I' for Inactive)
REMARK    1  A    between atoms: C2_2  and  N1_3 
REMARK       I    between atoms: N1_3  and  C3_5 
REMARK    2  A    between atoms: C3_5  and  C4_7 
REMARK    3  A    between atoms: C6_9  and  C7_10 
REMARK    4  A    between atoms: C7_10  and  N2_12 
REMARK    5  A    between atoms: N2_12  and  C9_14 
REMARK    6  A    between atoms: C9_14  and  C10_15 
REMARK    7  A    between atoms: C10_15  and  N3_16 
REMARK       I    between atoms: N3_16  and  C11_18 
REMARK    8  A    between atoms: C11_18  and  C12_20 
REMARK    9  A    between atoms: C13_21  and  C14_22 
ROOT
HETATM    1  N2  UNL     1      14.956  25.969  22.193  1.00  0.00    -0.371 N 
ATOM      2  H2  UNL     1      15.568  25.354  22.729  1.00  0.00     0.161 HD
ENDROOT
BRANCH   1   3
HETATM    3  C7  UNL     1      13.516  25.838  22.303  1.00  0.00     0.109 C 
HETATM    4  C8  UNL     1      13.095  26.568  23.539  1.00  0.00     0.034 C 
BRANCH   3   5
HETATM    5  C6  UNL     1      13.147  24.422  22.215  1.00  0.00     0.211 C 
HETATM    6  C5  UNL     1      11.835  23.943  22.677  1.00  0.00     0.078 C 
HETATM    7  C4  UNL     1      11.352  24.357  21.328  1.00  0.00     0.279 C 
HETATM    8  N5  UNL     1      12.697  24.095  20.847  1.00  0.00    -0.056 N 
ATOM      9  H52 UNL     1      12.942  23.211  20.400  1.00  0.00     0.278 HD
ATOM     10  H51 UNL     1      13.077  24.573  20.030  1.00  0.00     0.278 HD
BRANCH   7  11
HETATM   11  C3  UNL     1      10.313  23.474  20.748  1.00  0.00     0.248 C 
HETATM   12  N1  UNL     1       8.936  23.613  21.040  1.00  0.00    -0.360 N 
ATOM     13  H1  UNL     1       8.645  24.354  21.678  1.00  0.00     0.162 HD
HETATM   14  O1  UNL     1      10.683  22.568  19.964  1.00  0.00    -0.271 OA
BRANCH  12  15
HETATM   15  C2  UNL     1       7.922  22.750  20.472  1.00  0.00     0.118 C 
HETATM   16  C1  UNL     1       7.280  23.402  19.278  1.00  0.00     0.026 C 
ENDBRANCH  12  15
ENDBRANCH   7  11
ENDBRANCH   3   5
ENDBRANCH   1   3
BRANCH   1  17
HETATM   17  C9  UNL     1      15.518  26.969  21.326  1.00  0.00     0.106 C 
HETATM   18  N4  UNL     1      16.504  27.703  21.707  1.00  0.00    -0.287 N 
HETATM   19 CL1  UNL     1      17.152  27.468  23.295  1.00  0.00     0.012 Cl
ATOM     20  H4  UNL     1      16.897  28.410  21.085  1.00  0.00     0.181 HD
BRANCH  17  21
HETATM   21  C10 UNL     1      14.903  27.107  19.982  1.00  0.00     0.200 C 
BRANCH  21  22
HETATM   22  N3  UNL     1      15.853  26.627  19.004  1.00  0.00    -0.343 N 
HETATM   23  C11 UNL     1      15.576  25.449  18.274  1.00  0.00     0.296 C 
HETATM   24  O2  UNL     1      14.509  24.835  18.482  1.00  0.00    -0.258 OA
ATOM     25  H3  UNL     1      16.722  27.137  18.842  1.00  0.00     0.163 HD
BRANCH  23  26
HETATM   26  C12 UNL     1      16.499  24.955  17.303  1.00  0.00    -0.005 C 
HETATM   27  C13 UNL     1      17.266  24.526  16.469  1.00  0.00    -0.086 C 
BRANCH  27  28
HETATM   28  C14 UNL     1      18.181  23.992  15.441  1.00  0.00     0.179 C 
HETATM   29 BR1  UNL     1      19.310  25.380  14.714  1.00  0.00    -0.083 Br
ENDBRANCH  27  28
ENDBRANCH  23  26
ENDBRANCH  21  22
ENDBRANCH  17  21
ENDBRANCH   1  17
TORSDOF 9
ENDMDL
