MODEL 1
REMARK VINA RESULT: -5.965773015      0.000      0.000
REMARK  7 active torsions:
REMARK  status: ('A' for Active; 'I' for Inactive)
REMARK    1  A    between atoms: C2_2  and  N2_6 
REMARK       I    between atoms: N3_9  and  C5_10 
REMARK       I    between atoms: C5_10  and  N4_12 
REMARK    2  A    between atoms: N4_12  and  C6_14 
REMARK    3  A    between atoms: C6_14  and  C7_15 
REMARK    4  A    between atoms: C6_14  and  C11_24 
REMARK       I    between atoms: C7_15  and  N5_17 
REMARK    5  A    between atoms: N5_17  and  C8_19 
REMARK    6  A    between atoms: C8_19  and  C9_20 
REMARK    7  A    between atoms: C9_20  and  C10_21 
ROOT
HETATM    1  N2  UNL     1       9.159  19.878  20.151  1.00  0.00    -0.368 N 
HETATM    2  C3  UNL     1       9.464  19.700  21.580  1.00  0.00     0.144 C 
HETATM    3  C4  UNL     1      10.735  20.536  21.784  1.00  0.00     0.147 C 
HETATM    4  N3  UNL     1      10.319  21.906  21.613  1.00  0.00    -0.331 N 
HETATM    5  C5  UNL     1      11.001  22.939  22.283  1.00  0.00     0.319 C 
HETATM    6  O1  UNL     1      11.995  22.641  23.029  1.00  0.00    -0.247 OA
HETATM    7  N4  UNL     1      10.644  24.295  22.175  1.00  0.00    -0.327 N 
ATOM      8  H4  UNL     1       9.859  24.571  21.585  1.00  0.00     0.165 HD
HETATM    9  C13 UNL     1       9.201  22.215  20.751  1.00  0.00     0.147 C 
HETATM   10  C14 UNL     1       9.045  21.206  19.630  1.00  0.00     0.144 C 
ENDROOT
BRANCH   7  11
HETATM   11  C6  UNL     1      11.413  25.330  22.925  1.00  0.00     0.216 C 
BRANCH  11  12
HETATM   12  C7  UNL     1      12.597  25.675  22.128  1.00  0.00     0.243 C 
HETATM   13  O2  UNL     1      13.729  25.526  22.708  1.00  0.00    -0.271 OA
HETATM   14  N5  UNL     1      12.639  26.146  20.804  1.00  0.00    -0.359 N 
ATOM     15  H5  UNL     1      11.774  26.283  20.281  1.00  0.00     0.162 HD
BRANCH  14  16
HETATM   16  C8  UNL     1      13.949  26.442  20.172  1.00  0.00     0.133 C 
BRANCH  16  17
HETATM   17  C9  UNL     1      14.134  25.473  19.055  1.00  0.00     0.133 C 
BRANCH  17  18
HETATM   18  C10 UNL     1      12.854  24.929  18.543  1.00  0.00     0.174 C 
HETATM   19  O3  UNL     1      12.412  23.832  18.985  1.00  0.00    -0.648 OA
HETATM   20  O4  UNL     1      12.178  25.659  17.582  1.00  0.00    -0.648 OA
ENDBRANCH  17  18
ENDBRANCH  16  17
ENDBRANCH  14  16
ENDBRANCH  11  12
BRANCH  11  21
HETATM   21  C11 UNL     1      10.470  26.446  23.249  1.00  0.00     0.138 C 
HETATM   22  C12 UNL     1       9.578  25.901  24.397  1.00  0.00     0.053 C 
HETATM   23 CL1  UNL     1      11.393  27.835  23.954  1.00  0.00    -0.099 Cl
HETATM   24 CL2  UNL     1       9.446  26.971  21.925  1.00  0.00    -0.099 Cl
ENDBRANCH  11  21
ENDBRANCH   7  11
BRANCH   1  25
HETATM   25  C2  UNL     1       8.994  18.713  19.375  1.00  0.00     0.068 C 
HETATM   26  C1  UNL     1       9.897  17.572  19.570  1.00  0.00     0.088 C 
HETATM   27  N1  UNL     1       8.059  18.655  18.509  1.00  0.00    -0.389 N 
ATOM     28  H12 UNL     1       7.940  17.812  17.949  1.00  0.00     0.157 HD
ATOM     29  H11 UNL     1       7.432  19.448  18.374  1.00  0.00     0.157 HD
ENDBRANCH   1  25
TORSDOF 7
ENDMDL
MODEL 2
REMARK VINA RESULT: -5.902992731      1.588      2.732
REMARK  7 active torsions:
REMARK  status: ('A' for Active; 'I' for Inactive)
REMARK    1  A    between atoms: C2_2  and  N2_6 
REMARK       I    between atoms: N3_9  and  C5_10 
REMARK       I    between atoms: C5_10  and  N4_12 
REMARK    2  A    between atoms: N4_12  and  C6_14 
REMARK    3  A    between atoms: C6_14  and  C7_15 
REMARK    4  A    between atoms: C6_14  and  C11_24 
REMARK       I    between atoms: C7_15  and  N5_17 
REMARK    5  A    between atoms: N5_17  and  C8_19 
REMARK    6  A    between atoms: C8_19  and  C9_20 
REMARK    7  A    between atoms: C9_20  and  C10_21 
ROOT
HETATM    1  N2  UNL     1       9.204  19.895  20.154  1.00  0.00    -0.368 N 
HETATM    2  C3  UNL     1       9.467  19.710  21.591  1.00  0.00     0.144 C 
HETATM    3  C4  UNL     1      10.742  20.531  21.833  1.00  0.00     0.147 C 
HETATM    4  N3  UNL     1      10.346  21.906  21.653  1.00  0.00    -0.331 N 
HETATM    5  C5  UNL     1      11.022  22.930  22.345  1.00  0.00     0.319 C 
HETATM    6  O1  UNL     1      11.991  22.618  23.118  1.00  0.00    -0.247 OA
HETATM    7  N4  UNL     1      10.684  24.290  22.231  1.00  0.00    -0.327 N 
ATOM      8  H4  UNL     1       9.919  24.576  21.620  1.00  0.00     0.165 HD
HETATM    9  C13 UNL     1       9.257  22.230  20.762  1.00  0.00     0.147 C 
HETATM   10  C14 UNL     1       9.121  21.225  19.634  1.00  0.00     0.144 C 
ENDROOT
BRANCH   7  11
HETATM   11  C6  UNL     1      11.444  25.313  23.005  1.00  0.00     0.216 C 
BRANCH  11  12
HETATM   12  C7  UNL     1      12.580  25.746  22.182  1.00  0.00     0.243 C 
HETATM   13  O2  UNL     1      12.304  26.093  20.979  1.00  0.00    -0.271 OA
HETATM   14  N5  UNL     1      13.933  25.829  22.552  1.00  0.00    -0.359 N 
ATOM     15  H5  UNL     1      14.223  25.571  23.497  1.00  0.00     0.162 HD
BRANCH  14  16
HETATM   16  C8  UNL     1      14.939  26.292  21.563  1.00  0.00     0.133 C 
BRANCH  16  17
HETATM   17  C9  UNL     1      15.479  27.591  22.053  1.00  0.00     0.133 C 
BRANCH  17  18
HETATM   18  C10 UNL     1      15.961  27.527  23.453  1.00  0.00     0.174 C 
HETATM   19  O3  UNL     1      15.137  27.567  24.408  1.00  0.00    -0.648 OA
HETATM   20  O4  UNL     1      17.325  27.423  23.663  1.00  0.00    -0.648 OA
ENDBRANCH  17  18
ENDBRANCH  16  17
ENDBRANCH  14  16
ENDBRANCH  11  12
BRANCH  11  21
HETATM   21  C11 UNL     1      10.474  26.373  23.424  1.00  0.00     0.138 C 
HETATM   22  C12 UNL     1       9.604  25.712  24.527  1.00  0.00     0.053 C 
HETATM   23 CL1  UNL     1      11.365  27.724  24.237  1.00  0.00    -0.099 Cl
HETATM   24 CL2  UNL     1       9.428  26.979  22.153  1.00  0.00    -0.099 Cl
ENDBRANCH  11  21
ENDBRANCH   7  11
BRANCH   1  25
HETATM   25  C2  UNL     1       9.047  18.734  19.372  1.00  0.00     0.068 C 
HETATM   26  C1  UNL     1       9.918  17.574  19.602  1.00  0.00     0.088 C 
HETATM   27  N1  UNL     1       8.147  18.695  18.468  1.00  0.00    -0.389 N 
ATOM     28  H12 UNL     1       8.034  17.855  17.902  1.00  0.00     0.157 HD
ATOM     29  H11 UNL     1       7.542  19.500  18.308  1.00  0.00     0.157 HD
ENDBRANCH   1  25
TORSDOF 7
ENDMDL
MODEL 3
REMARK VINA RESULT: -5.812157997      2.531      2.928
REMARK  7 active torsions:
REMARK  status: ('A' for Active; 'I' for Inactive)
REMARK    1  A    between atoms: C2_2  and  N2_6 
REMARK       I    between atoms: N3_9  and  C5_10 
REMARK       I    between atoms: C5_10  and  N4_12 
REMARK    2  A    between atoms: N4_12  and  C6_14 
REMARK    3  A    between atoms: C6_14  and  C7_15 
REMARK    4  A    between atoms: C6_14  and  C11_24 
REMARK       I    between atoms: C7_15  and  N5_17 
REMARK    5  A    between atoms: N5_17  and  C8_19 
REMARK    6  A    between atoms: C8_19  and  C9_20 
REMARK    7  A    between atoms: C9_20  and  C10_21 
ROOT
HETATM    1  N2  UNL     1       9.114  19.798  20.432  1.00  0.00    -0.368 N 
HETATM    2  C3  UNL     1       9.784  19.588  21.726  1.00  0.00     0.144 C 
HETATM    3  C4  UNL     1      10.796  20.741  21.799  1.00  0.00     0.147 C 
HETATM    4  N3  UNL     1       9.999  21.936  21.930  1.00  0.00    -0.331 N 
HETATM    5  C5  UNL     1      10.517  23.059  22.602  1.00  0.00     0.319 C 
HETATM    6  O1  UNL     1      11.701  23.001  23.079  1.00  0.00    -0.247 OA
HETATM    7  N4  UNL     1       9.794  24.252  22.780  1.00  0.00    -0.327 N 
ATOM      8  H4  UNL     1       8.848  24.336  22.409  1.00  0.00     0.165 HD
HETATM    9  C13 UNL     1       8.668  21.977  21.367  1.00  0.00     0.147 C 
HETATM   10  C14 UNL     1       8.529  21.075  20.157  1.00  0.00     0.144 C 
ENDROOT
BRANCH   7  11
HETATM   11  C6  UNL     1      10.412  25.395  23.512  1.00  0.00     0.216 C 
BRANCH  11  12
HETATM   12  C7  UNL     1      10.177  26.613  22.726  1.00  0.00     0.243 C 
HETATM   13  O2  UNL     1      11.049  27.543  22.855  1.00  0.00    -0.271 OA
HETATM   14  N5  UNL     1       9.114  26.880  21.847  1.00  0.00    -0.359 N 
ATOM     15  H5  UNL     1       8.387  26.181  21.693  1.00  0.00     0.162 HD
BRANCH  14  16
HETATM   16  C8  UNL     1       9.056  28.187  21.142  1.00  0.00     0.133 C 
BRANCH  16  17
HETATM   17  C9  UNL     1       8.781  27.905  19.705  1.00  0.00     0.133 C 
BRANCH  17  18
HETATM   18  C10 UNL     1       8.238  26.546  19.475  1.00  0.00     0.174 C 
HETATM   19  O3  UNL     1       6.991  26.347  19.515  1.00  0.00    -0.648 OA
HETATM   20  O4  UNL     1       9.136  25.525  19.217  1.00  0.00    -0.648 OA
ENDBRANCH  17  18
ENDBRANCH  16  17
ENDBRANCH  14  16
ENDBRANCH  11  12
BRANCH  11  21
HETATM   21  C11 UNL     1       9.873  25.380  24.908  1.00  0.00     0.138 C 
HETATM   22  C12 UNL     1      11.059  25.829  25.804  1.00  0.00     0.053 C 
HETATM   23 CL1  UNL     1       8.605  26.661  25.083  1.00  0.00    -0.099 Cl
HETATM   24 CL2  UNL     1       9.286  23.825  25.469  1.00  0.00    -0.099 Cl
ENDBRANCH  11  21
ENDBRANCH   7  11
BRANCH   1  25
HETATM   25  C2  UNL     1       9.090  18.712  19.534  1.00  0.00     0.068 C 
HETATM   26  C1  UNL     1      10.008  17.583  19.728  1.00  0.00     0.088 C 
HETATM   27  N1  UNL     1       8.268  18.716  18.558  1.00  0.00    -0.389 N 
ATOM     28  H12 UNL     1       8.251  17.930  17.909  1.00  0.00     0.157 HD
ATOM     29  H11 UNL     1       7.630  19.500  18.424  1.00  0.00     0.157 HD
ENDBRANCH   1  25
TORSDOF 7
ENDMDL
MODEL 4
REMARK VINA RESULT: -5.792000316      1.236      1.321
REMARK  7 active torsions:
REMARK  status: ('A' for Active; 'I' for Inactive)
REMARK    1  A    between atoms: C2_2  and  N2_6 
REMARK       I    between atoms: N3_9  and  C5_10 
REMARK       I    between atoms: C5_10  and  N4_12 
REMARK    2  A    between atoms: N4_12  and  C6_14 
REMARK    3  A    between atoms: C6_14  and  C7_15 
REMARK    4  A    between atoms: C6_14  and  C11_24 
REMARK       I    between atoms: C7_15  and  N5_17 
REMARK    5  A    between atoms: N5_17  and  C8_19 
REMARK    6  A    between atoms: C8_19  and  C9_20 
REMARK    7  A    between atoms: C9_20  and  C10_21 
ROOT
HETATM    1  N2  UNL     1       9.174  19.894  20.099  1.00  0.00    -0.368 N 
HETATM    2  C3  UNL     1       9.411  19.739  21.544  1.00  0.00     0.144 C 
HETATM    3  C4  UNL     1      10.703  20.535  21.784  1.00  0.00     0.147 C 
HETATM    4  N3  UNL     1      10.344  21.914  21.564  1.00  0.00    -0.331 N 
HETATM    5  C5  UNL     1      11.034  22.938  22.240  1.00  0.00     0.319 C 
HETATM    6  O1  UNL     1      11.983  22.623  23.036  1.00  0.00    -0.247 OA
HETATM    7  N4  UNL     1      10.731  24.303  22.087  1.00  0.00    -0.327 N 
ATOM      8  H4  UNL     1       9.983  24.592  21.457  1.00  0.00     0.165 HD
HETATM    9  C13 UNL     1       9.276  22.241  20.648  1.00  0.00     0.147 C 
HETATM   10  C14 UNL     1       9.132  21.212  19.544  1.00  0.00     0.144 C 
ENDROOT
BRANCH   7  11
HETATM   11  C6  UNL     1      11.504  25.327  22.846  1.00  0.00     0.216 C 
BRANCH  11  12
HETATM   12  C7  UNL     1      12.694  25.669  22.056  1.00  0.00     0.243 C 
HETATM   13  O2  UNL     1      13.820  25.552  22.655  1.00  0.00    -0.271 OA
HETATM   14  N5  UNL     1      12.747  26.106  20.721  1.00  0.00    -0.359 N 
ATOM     15  H5  UNL     1      11.887  26.217  20.183  1.00  0.00     0.162 HD
BRANCH  14  16
HETATM   16  C8  UNL     1      14.062  26.405  20.099  1.00  0.00     0.133 C 
BRANCH  16  17
HETATM   17  C9  UNL     1      14.318  25.355  19.073  1.00  0.00     0.133 C 
BRANCH  17  18
HETATM   18  C10 UNL     1      15.624  25.517  18.392  1.00  0.00     0.174 C 
HETATM   19  O3  UNL     1      16.039  24.625  17.601  1.00  0.00    -0.648 OA
HETATM   20  O4  UNL     1      16.353  26.664  18.654  1.00  0.00    -0.648 OA
ENDBRANCH  17  18
ENDBRANCH  16  17
ENDBRANCH  14  16
ENDBRANCH  11  12
BRANCH  11  21
HETATM   21  C11 UNL     1      10.568  26.448  23.173  1.00  0.00     0.138 C 
HETATM   22  C12 UNL     1       9.694  25.917  24.341  1.00  0.00     0.053 C 
HETATM   23 CL1  UNL     1      11.504  27.844  23.847  1.00  0.00    -0.099 Cl
HETATM   24 CL2  UNL     1       9.523  26.960  21.861  1.00  0.00    -0.099 Cl
ENDBRANCH  11  21
ENDBRANCH   7  11
BRANCH   1  25
HETATM   25  C2  UNL     1       9.001  18.717  19.343  1.00  0.00     0.068 C 
HETATM   26  C1  UNL     1       9.909  17.581  19.542  1.00  0.00     0.088 C 
HETATM   27  N1  UNL     1       8.053  18.644  18.493  1.00  0.00    -0.389 N 
ATOM     28  H12 UNL     1       7.928  17.793  17.946  1.00  0.00     0.157 HD
ATOM     29  H11 UNL     1       7.422  19.433  18.355  1.00  0.00     0.157 HD
ENDBRANCH   1  25
TORSDOF 7
ENDMDL
MODEL 5
REMARK VINA RESULT: -5.745417031      1.710      2.204
REMARK  7 active torsions:
REMARK  status: ('A' for Active; 'I' for Inactive)
REMARK    1  A    between atoms: C2_2  and  N2_6 
REMARK       I    between atoms: N3_9  and  C5_10 
REMARK       I    between atoms: C5_10  and  N4_12 
REMARK    2  A    between atoms: N4_12  and  C6_14 
REMARK    3  A    between atoms: C6_14  and  C7_15 
REMARK    4  A    between atoms: C6_14  and  C11_24 
REMARK       I    between atoms: C7_15  and  N5_17 
REMARK    5  A    between atoms: N5_17  and  C8_19 
REMARK    6  A    between atoms: C8_19  and  C9_20 
REMARK    7  A    between atoms: C9_20  and  C10_21 
ROOT
HETATM    1  N2  UNL     1       9.115  19.835  20.323  1.00  0.00    -0.368 N 
HETATM    2  C3  UNL     1       9.615  19.562  21.681  1.00  0.00     0.144 C 
HETATM    3  C4  UNL     1      10.813  20.513  21.822  1.00  0.00     0.147 C 
HETATM    4  N3  UNL     1      10.243  21.837  21.845  1.00  0.00    -0.331 N 
HETATM    5  C5  UNL     1      10.898  22.875  22.535  1.00  0.00     0.319 C 
HETATM    6  O1  UNL     1      12.002  22.623  23.126  1.00  0.00    -0.247 OA
HETATM    7  N4  UNL     1      10.395  24.187  22.613  1.00  0.00    -0.327 N 
ATOM      8  H4  UNL     1       9.519  24.426  22.150  1.00  0.00     0.165 HD
HETATM    9  C13 UNL     1       8.999  22.097  21.156  1.00  0.00     0.147 C 
HETATM   10  C14 UNL     1       8.805  21.184  19.961  1.00  0.00     0.144 C 
ENDROOT
BRANCH   7  11
HETATM   11  C6  UNL     1      11.146  25.227  23.372  1.00  0.00     0.216 C 
BRANCH  11  12
HETATM   12  C7  UNL     1      11.583  26.253  22.417  1.00  0.00     0.243 C 
HETATM   13  O2  UNL     1      10.971  26.271  21.291  1.00  0.00    -0.271 OA
HETATM   14  N5  UNL     1      12.589  27.219  22.587  1.00  0.00    -0.359 N 
ATOM     15  H5  UNL     1      13.114  27.265  23.461  1.00  0.00     0.162 HD
BRANCH  14  16
HETATM   16  C8  UNL     1      12.884  28.174  21.489  1.00  0.00     0.133 C 
BRANCH  16  17
HETATM   17  C9  UNL     1      14.353  28.126  21.240  1.00  0.00     0.133 C 
BRANCH  17  18
HETATM   18  C10 UNL     1      14.914  26.759  21.347  1.00  0.00     0.174 C 
HETATM   19  O3  UNL     1      15.732  26.481  22.269  1.00  0.00    -0.648 OA
HETATM   20  O4  UNL     1      14.511  25.818  20.415  1.00  0.00    -0.648 OA
ENDBRANCH  17  18
ENDBRANCH  16  17
ENDBRANCH  14  16
ENDBRANCH  11  12
BRANCH  11  21
HETATM   21  C11 UNL     1      10.270  25.684  24.497  1.00  0.00     0.138 C 
HETATM   22  C12 UNL     1      11.246  26.240  25.569  1.00  0.00     0.053 C 
HETATM   23 CL1  UNL     1       9.272  27.094  23.955  1.00  0.00    -0.099 Cl
HETATM   24 CL2  UNL     1       9.269  24.439  25.221  1.00  0.00    -0.099 Cl
ENDBRANCH  11  21
ENDBRANCH   7  11
BRANCH   1  25
HETATM   25  C2  UNL     1       8.971  18.735  19.454  1.00  0.00     0.068 C 
HETATM   26  C1  UNL     1       9.898  17.600  19.553  1.00  0.00     0.088 C 
HETATM   27  N1  UNL     1       8.035  18.730  18.588  1.00  0.00    -0.389 N 
ATOM     28  H12 UNL     1       7.931  17.934  17.960  1.00  0.00     0.157 HD
ATOM     29  H11 UNL     1       7.391  19.518  18.520  1.00  0.00     0.157 HD
ENDBRANCH   1  25
TORSDOF 7
ENDMDL
