MODEL 1
REMARK VINA RESULT: -7.486470656      0.000      0.000
REMARK  6 active torsions:
REMARK  status: ('A' for Active; 'I' for Inactive)
REMARK    1  A    between atoms: C5_5  and  O1_6 
REMARK    2  A    between atoms: C16_18  and  C17_19 
REMARK    3  A    between atoms: C17_19  and  N1_20 
REMARK    4  A    between atoms: N1_20  and  C19_22 
REMARK       I    between atoms: N1_20  and  C22_27 
REMARK    5  A    between atoms: C19_22  and  C20_23 
REMARK    6  A    between atoms: C20_23  and  C21_24 
ROOT
HETATM    1  C1  UNL     1      28.559   0.214  51.952  1.00  0.00     0.016 C 
HETATM    2  C2  UNL     1      29.146   0.078  53.334  1.00  0.00    -0.036 C 
HETATM    3  C3  UNL     1      29.543  -1.398  53.482  1.00  0.00     0.012 C 
HETATM    4  C4  UNL     1      30.540  -1.780  52.448  1.00  0.00     0.032 C 
HETATM    5  C5  UNL     1      31.656  -0.828  52.238  1.00  0.00     0.118 C 
HETATM    6  C6  UNL     1      31.266   0.625  52.285  1.00  0.00     0.037 C 
HETATM    7  C7  UNL     1      30.407   0.861  53.530  1.00  0.00    -0.004 C 
HETATM    8  C8  UNL     1      30.232   2.283  53.874  1.00  0.00     0.006 C 
HETATM    9  C9  UNL     1      28.860   2.835  53.758  1.00  0.00     0.006 C 
HETATM   10  C10 UNL     1      27.750   1.915  54.091  1.00  0.00    -0.005 C 
HETATM   11  C11 UNL     1      26.856   2.366  55.218  1.00  0.00    -0.005 C 
HETATM   12  C12 UNL     1      26.215   3.687  54.965  1.00  0.00     0.006 C 
HETATM   13  C13 UNL     1      25.299   4.059  56.111  1.00  0.00     0.006 C 
HETATM   14  C14 UNL     1      25.564   3.172  57.273  1.00  0.00    -0.006 C 
HETATM   15  C15 UNL     1      25.030   3.667  58.600  1.00  0.00     0.011 C 
HETATM   16  C16 UNL     1      26.149   3.664  59.576  1.00  0.00     0.013 C 
HETATM   17  C23 UNL     1      27.089   2.611  58.932  1.00  0.00     0.016 C 
HETATM   18  C24 UNL     1      27.048   3.141  57.514  1.00  0.00    -0.036 C 
HETATM   19  C25 UNL     1      27.684   4.513  57.532  1.00  0.00     0.016 C 
HETATM   20  C26 UNL     1      27.669   2.292  56.485  1.00  0.00    -0.002 C 
HETATM   21  C27 UNL     1      27.797   0.834  56.825  1.00  0.00     0.006 C 
HETATM   22  C28 UNL     1      28.659   0.215  55.723  1.00  0.00     0.006 C 
HETATM   23  C29 UNL     1      28.154   0.495  54.359  1.00  0.00    -0.002 C 
ENDROOT
BRANCH  16  24
HETATM   24  C17 UNL     1      25.887   3.212  60.945  1.00  0.00     0.253 C 
BRANCH  24  25
HETATM   25  N1  UNL     1      26.329   4.070  62.035  1.00  0.00     0.008 N 
HETATM   26  C18 UNL     1      27.027   5.228  61.578  1.00  0.00     0.285 C 
HETATM   27  C22 UNL     1      25.131   4.388  62.753  1.00  0.00     0.427 C 
HETATM   28  N3  UNL     1      24.731   5.674  63.140  1.00  0.00    -0.033 NA
HETATM   29  O3  UNL     1      24.385   3.393  63.048  1.00  0.00    -0.243 OA
BRANCH  25  30
HETATM   30  C19 UNL     1      27.232   3.253  62.818  1.00  0.00     0.257 C 
BRANCH  30  31
HETATM   31  C20 UNL     1      28.171   3.938  63.721  1.00  0.00     0.128 C 
BRANCH  31  32
HETATM   32  C21 UNL     1      27.895   3.934  65.154  1.00  0.00     0.232 C 
HETATM   33  N2  UNL     1      27.356   5.134  65.769  1.00  0.00    -0.062 NA
HETATM   34  O2  UNL     1      28.111   2.916  65.854  1.00  0.00    -0.277 OA
ENDBRANCH  31  32
ENDBRANCH  30  31
ENDBRANCH  25  30
ENDBRANCH  24  25
ENDBRANCH  16  24
BRANCH   5  35
HETATM   35  O1  UNL     1      32.221  -1.071  50.983  1.00  0.00    -0.396 OA
ATOM     36  H1  UNL     1      32.844  -1.783  51.064  1.00  0.00     0.210 HD
ENDBRANCH   5  35
TORSDOF 6
ENDMDL
MODEL 2
REMARK VINA RESULT: -7.177650864      5.073      7.101
REMARK  6 active torsions:
REMARK  status: ('A' for Active; 'I' for Inactive)
REMARK    1  A    between atoms: C5_5  and  O1_6 
REMARK    2  A    between atoms: C16_18  and  C17_19 
REMARK    3  A    between atoms: C17_19  and  N1_20 
REMARK    4  A    between atoms: N1_20  and  C19_22 
REMARK       I    between atoms: N1_20  and  C22_27 
REMARK    5  A    between atoms: C19_22  and  C20_23 
REMARK    6  A    between atoms: C20_23  and  C21_24 
ROOT
HETATM    1  C1  UNL     1      34.353  -0.438  58.788  1.00  0.00     0.016 C 
HETATM    2  C2  UNL     1      33.157  -0.010  59.600  1.00  0.00    -0.036 C 
HETATM    3  C3  UNL     1      33.103  -0.957  60.808  1.00  0.00     0.012 C 
HETATM    4  C4  UNL     1      34.349  -0.852  61.612  1.00  0.00     0.032 C 
HETATM    5  C5  UNL     1      34.831   0.522  61.888  1.00  0.00     0.118 C 
HETATM    6  C6  UNL     1      34.696   1.483  60.738  1.00  0.00     0.037 C 
HETATM    7  C7  UNL     1      33.280   1.370  60.169  1.00  0.00    -0.004 C 
HETATM    8  C8  UNL     1      32.910   2.471  59.264  1.00  0.00     0.006 C 
HETATM    9  C9  UNL     1      32.688   2.122  57.839  1.00  0.00     0.006 C 
HETATM   10  C10 UNL     1      32.089   0.795  57.573  1.00  0.00    -0.005 C 
HETATM   11  C11 UNL     1      30.779   0.819  56.827  1.00  0.00    -0.005 C 
HETATM   12  C12 UNL     1      30.872   1.486  55.498  1.00  0.00     0.006 C 
HETATM   13  C13 UNL     1      29.538   1.436  54.785  1.00  0.00     0.006 C 
HETATM   14  C14 UNL     1      28.473   1.041  55.742  1.00  0.00    -0.006 C 
HETATM   15  C15 UNL     1      27.058   1.333  55.293  1.00  0.00     0.011 C 
HETATM   16  C16 UNL     1      26.387   2.112  56.364  1.00  0.00     0.013 C 
HETATM   17  C23 UNL     1      27.237   1.699  57.595  1.00  0.00     0.016 C 
HETATM   18  C24 UNL     1      28.604   1.895  56.973  1.00  0.00    -0.036 C 
HETATM   19  C25 UNL     1      28.749   3.370  56.670  1.00  0.00     0.016 C 
HETATM   20  C26 UNL     1      29.750   1.408  57.758  1.00  0.00    -0.002 C 
HETATM   21  C27 UNL     1      29.445   0.351  58.781  1.00  0.00     0.006 C 
HETATM   22  C28 UNL     1      30.722   0.178  59.605  1.00  0.00     0.006 C 
HETATM   23  C29 UNL     1      31.921  -0.085  58.777  1.00  0.00    -0.002 C 
ENDROOT
BRANCH  16  24
HETATM   24  C17 UNL     1      24.993   1.800  56.692  1.00  0.00     0.253 C 
BRANCH  24  25
HETATM   25  N1  UNL     1      24.129   2.903  57.085  1.00  0.00     0.008 N 
HETATM   26  C18 UNL     1      24.800   3.869  57.894  1.00  0.00     0.285 C 
HETATM   27  C22 UNL     1      23.651   3.446  55.848  1.00  0.00     0.427 C 
HETATM   28  N3  UNL     1      23.663   4.803  55.496  1.00  0.00    -0.033 NA
HETATM   29  O3  UNL     1      23.183   2.595  55.017  1.00  0.00    -0.243 OA
BRANCH  25  30
HETATM   30  C19 UNL     1      23.067   2.295  57.859  1.00  0.00     0.257 C 
BRANCH  30  31
HETATM   31  C20 UNL     1      22.494   1.032  57.366  1.00  0.00     0.128 C 
BRANCH  31  32
HETATM   32  C21 UNL     1      21.042   0.912  57.269  1.00  0.00     0.232 C 
HETATM   33  N2  UNL     1      20.441   0.694  55.966  1.00  0.00    -0.062 NA
HETATM   34  O2  UNL     1      20.314   0.990  58.287  1.00  0.00    -0.277 OA
ENDBRANCH  31  32
ENDBRANCH  30  31
ENDBRANCH  25  30
ENDBRANCH  24  25
ENDBRANCH  16  24
BRANCH   5  35
HETATM   35  O1  UNL     1      36.185   0.461  62.229  1.00  0.00    -0.396 OA
ATOM     36  H1  UNL     1      36.386   1.188  62.805  1.00  0.00     0.210 HD
ENDBRANCH   5  35
TORSDOF 6
ENDMDL
MODEL 3
REMARK VINA RESULT: -7.120651513      4.744      6.801
REMARK  6 active torsions:
REMARK  status: ('A' for Active; 'I' for Inactive)
REMARK    1  A    between atoms: C5_5  and  O1_6 
REMARK    2  A    between atoms: C16_18  and  C17_19 
REMARK    3  A    between atoms: C17_19  and  N1_20 
REMARK    4  A    between atoms: N1_20  and  C19_22 
REMARK       I    between atoms: N1_20  and  C22_27 
REMARK    5  A    between atoms: C19_22  and  C20_23 
REMARK    6  A    between atoms: C20_23  and  C21_24 
ROOT
HETATM    1  C1  UNL     1      34.015   0.375  58.315  1.00  0.00     0.016 C 
HETATM    2  C2  UNL     1      32.784   0.204  59.168  1.00  0.00    -0.036 C 
HETATM    3  C3  UNL     1      32.948  -1.147  59.882  1.00  0.00     0.012 C 
HETATM    4  C4  UNL     1      34.174  -1.150  60.722  1.00  0.00     0.032 C 
HETATM    5  C5  UNL     1      34.393   0.054  61.558  1.00  0.00     0.118 C 
HETATM    6  C6  UNL     1      34.044   1.358  60.892  1.00  0.00     0.037 C 
HETATM    7  C7  UNL     1      32.659   1.227  60.255  1.00  0.00    -0.004 C 
HETATM    8  C8  UNL     1      32.059   2.512  59.858  1.00  0.00     0.006 C 
HETATM    9  C9  UNL     1      31.866   2.741  58.405  1.00  0.00     0.006 C 
HETATM   10  C10 UNL     1      31.522   1.552  57.592  1.00  0.00    -0.005 C 
HETATM   11  C11 UNL     1      30.210   1.636  56.855  1.00  0.00    -0.005 C 
HETATM   12  C12 UNL     1      30.135   2.793  55.918  1.00  0.00     0.006 C 
HETATM   13  C13 UNL     1      28.815   2.791  55.179  1.00  0.00     0.006 C 
HETATM   14  C14 UNL     1      27.874   1.849  55.837  1.00  0.00    -0.006 C 
HETATM   15  C15 UNL     1      26.415   2.031  55.473  1.00  0.00     0.011 C 
HETATM   16  C16 UNL     1      25.640   2.164  56.732  1.00  0.00     0.013 C 
HETATM   17  C23 UNL     1      26.590   1.450  57.730  1.00  0.00     0.016 C 
HETATM   18  C24 UNL     1      27.876   2.133  57.314  1.00  0.00    -0.036 C 
HETATM   19  C25 UNL     1      27.728   3.602  57.644  1.00  0.00     0.016 C 
HETATM   20  C26 UNL     1      29.116   1.591  57.890  1.00  0.00    -0.002 C 
HETATM   21  C27 UNL     1      29.048   0.171  58.378  1.00  0.00     0.006 C 
HETATM   22  C28 UNL     1      30.359  -0.083  59.124  1.00  0.00     0.006 C 
HETATM   23  C29 UNL     1      31.561   0.243  58.324  1.00  0.00    -0.002 C 
ENDROOT
BRANCH  16  24
HETATM   24  C17 UNL     1      24.342   1.492  56.833  1.00  0.00     0.253 C 
BRANCH  24  25
HETATM   25  N1  UNL     1      23.147   2.318  56.743  1.00  0.00     0.008 N 
HETATM   26  C18 UNL     1      22.526   2.254  55.459  1.00  0.00     0.285 C 
HETATM   27  C22 UNL     1      22.300   1.844  57.797  1.00  0.00     0.427 C 
HETATM   28  N3  UNL     1      20.947   1.504  57.663  1.00  0.00    -0.033 NA
HETATM   29  O3  UNL     1      22.856   1.730  58.942  1.00  0.00    -0.243 OA
BRANCH  25  30
HETATM   30  C19 UNL     1      23.603   3.672  56.980  1.00  0.00     0.257 C 
BRANCH  30  31
HETATM   31  C20 UNL     1      23.321   4.682  55.947  1.00  0.00     0.128 C 
BRANCH  31  32
HETATM   32  C21 UNL     1      24.384   5.051  55.018  1.00  0.00     0.232 C 
HETATM   33  N2  UNL     1      25.420   5.966  55.461  1.00  0.00    -0.062 NA
HETATM   34  O2  UNL     1      24.416   4.589  53.852  1.00  0.00    -0.277 OA
ENDBRANCH  31  32
ENDBRANCH  30  31
ENDBRANCH  25  30
ENDBRANCH  24  25
ENDBRANCH  16  24
BRANCH   5  35
HETATM   35  O1  UNL     1      35.744   0.112  61.913  1.00  0.00    -0.396 OA
ATOM     36  H1  UNL     1      35.841   0.718  62.638  1.00  0.00     0.210 HD
ENDBRANCH   5  35
TORSDOF 6
ENDMDL
MODEL 4
REMARK VINA RESULT: -7.100381398      1.453      2.300
REMARK  6 active torsions:
REMARK  status: ('A' for Active; 'I' for Inactive)
REMARK    1  A    between atoms: C5_5  and  O1_6 
REMARK    2  A    between atoms: C16_18  and  C17_19 
REMARK    3  A    between atoms: C17_19  and  N1_20 
REMARK    4  A    between atoms: N1_20  and  C19_22 
REMARK       I    between atoms: N1_20  and  C22_27 
REMARK    5  A    between atoms: C19_22  and  C20_23 
REMARK    6  A    between atoms: C20_23  and  C21_24 
ROOT
HETATM    1  C1  UNL     1      28.478   0.207  52.484  1.00  0.00     0.016 C 
HETATM    2  C2  UNL     1      29.213   0.204  53.800  1.00  0.00    -0.036 C 
HETATM    3  C3  UNL     1      29.817  -1.200  53.945  1.00  0.00     0.012 C 
HETATM    4  C4  UNL     1      30.749  -1.489  52.822  1.00  0.00     0.032 C 
HETATM    5  C5  UNL     1      31.700  -0.408  52.473  1.00  0.00     0.118 C 
HETATM    6  C6  UNL     1      31.124   0.982  52.522  1.00  0.00     0.037 C 
HETATM    7  C7  UNL     1      30.371   1.153  53.843  1.00  0.00    -0.004 C 
HETATM    8  C8  UNL     1      30.041   2.552  54.166  1.00  0.00     0.006 C 
HETATM    9  C9  UNL     1      28.602   2.915  54.180  1.00  0.00     0.006 C 
HETATM   10  C10 UNL     1      27.665   1.870  54.650  1.00  0.00    -0.005 C 
HETATM   11  C11 UNL     1      26.836   2.246  55.852  1.00  0.00    -0.005 C 
HETATM   12  C12 UNL     1      26.001   3.460  55.634  1.00  0.00     0.006 C 
HETATM   13  C13 UNL     1      25.163   3.754  56.859  1.00  0.00     0.006 C 
HETATM   14  C14 UNL     1      25.660   2.956  58.009  1.00  0.00    -0.006 C 
HETATM   15  C15 UNL     1      25.199   3.428  59.372  1.00  0.00     0.011 C 
HETATM   16  C16 UNL     1      26.400   3.611  60.225  1.00  0.00     0.013 C 
HETATM   17  C23 UNL     1      27.404   2.666  59.515  1.00  0.00     0.016 C 
HETATM   18  C24 UNL     1      27.151   3.129  58.095  1.00  0.00    -0.036 C 
HETATM   19  C25 UNL     1      27.595   4.573  58.010  1.00  0.00     0.016 C 
HETATM   20  C26 UNL     1      27.774   2.329  57.029  1.00  0.00    -0.002 C 
HETATM   21  C27 UNL     1      28.130   0.914  57.392  1.00  0.00     0.006 C 
HETATM   22  C28 UNL     1      28.953   0.371  56.222  1.00  0.00     0.006 C 
HETATM   23  C29 UNL     1      28.281   0.527  54.912  1.00  0.00    -0.002 C 
ENDROOT
BRANCH  16  24
HETATM   24  C17 UNL     1      26.339   3.184  61.626  1.00  0.00     0.253 C 
BRANCH  24  25
HETATM   25  N1  UNL     1      26.243   4.220  62.643  1.00  0.00     0.008 N 
HETATM   26  C18 UNL     1      25.090   4.075  63.472  1.00  0.00     0.285 C 
HETATM   27  C22 UNL     1      27.472   4.124  63.375  1.00  0.00     0.427 C 
HETATM   28  N3  UNL     1      27.586   4.065  64.770  1.00  0.00    -0.033 NA
HETATM   29  O3  UNL     1      28.534   4.088  62.664  1.00  0.00    -0.243 OA
BRANCH  25  30
HETATM   30  C19 UNL     1      26.143   5.464  61.909  1.00  0.00     0.257 C 
BRANCH  30  31
HETATM   31  C20 UNL     1      26.177   6.720  62.676  1.00  0.00     0.128 C 
BRANCH  31  32
HETATM   32  C21 UNL     1      25.051   7.642  62.561  1.00  0.00     0.232 C 
HETATM   33  N2  UNL     1      23.871   7.415  63.375  1.00  0.00    -0.062 NA
HETATM   34  O2  UNL     1      25.091   8.621  61.778  1.00  0.00    -0.277 OA
ENDBRANCH  31  32
ENDBRANCH  30  31
ENDBRANCH  25  30
ENDBRANCH  24  25
ENDBRANCH  16  24
BRANCH   5  35
HETATM   35  O1  UNL     1      32.164  -0.624  51.172  1.00  0.00    -0.396 OA
ATOM     36  H1  UNL     1      31.889  -1.489  50.891  1.00  0.00     0.210 HD
ENDBRANCH   5  35
TORSDOF 6
ENDMDL
MODEL 5
REMARK VINA RESULT: -7.076670294      5.082      7.604
REMARK  6 active torsions:
REMARK  status: ('A' for Active; 'I' for Inactive)
REMARK    1  A    between atoms: C5_5  and  O1_6 
REMARK    2  A    between atoms: C16_18  and  C17_19 
REMARK    3  A    between atoms: C17_19  and  N1_20 
REMARK    4  A    between atoms: N1_20  and  C19_22 
REMARK       I    between atoms: N1_20  and  C22_27 
REMARK    5  A    between atoms: C19_22  and  C20_23 
REMARK    6  A    between atoms: C20_23  and  C21_24 
ROOT
HETATM    1  C1  UNL     1      33.971   1.037  59.975  1.00  0.00     0.016 C 
HETATM    2  C2  UNL     1      32.582   0.463  60.092  1.00  0.00    -0.036 C 
HETATM    3  C3  UNL     1      32.750  -1.063  60.042  1.00  0.00     0.012 C 
HETATM    4  C4  UNL     1      33.609  -1.533  61.161  1.00  0.00     0.032 C 
HETATM    5  C5  UNL     1      33.312  -0.958  62.494  1.00  0.00     0.118 C 
HETATM    6  C6  UNL     1      32.966   0.506  62.488  1.00  0.00     0.037 C 
HETATM    7  C7  UNL     1      31.918   0.757  61.402  1.00  0.00    -0.004 C 
HETATM    8  C8  UNL     1      31.255   2.069  61.502  1.00  0.00     0.006 C 
HETATM    9  C9  UNL     1      31.512   3.035  60.407  1.00  0.00     0.006 C 
HETATM   10  C10 UNL     1      31.683   2.464  59.052  1.00  0.00    -0.005 C 
HETATM   11  C11 UNL     1      30.697   2.949  58.021  1.00  0.00    -0.005 C 
HETATM   12  C12 UNL     1      30.721   4.427  57.835  1.00  0.00     0.006 C 
HETATM   13  C13 UNL     1      29.742   4.841  56.757  1.00  0.00     0.006 C 
HETATM   14  C14 UNL     1      28.829   3.711  56.448  1.00  0.00    -0.006 C 
HETATM   15  C15 UNL     1      27.566   4.085  55.702  1.00  0.00     0.011 C 
HETATM   16  C16 UNL     1      26.408   3.544  56.460  1.00  0.00     0.013 C 
HETATM   17  C23 UNL     1      27.091   2.393  57.245  1.00  0.00     0.016 C 
HETATM   18  C24 UNL     1      28.292   3.170  57.744  1.00  0.00    -0.036 C 
HETATM   19  C25 UNL     1      27.773   4.244  58.675  1.00  0.00     0.016 C 
HETATM   20  C26 UNL     1      29.351   2.382  58.394  1.00  0.00    -0.002 C 
HETATM   21  C27 UNL     1      29.391   0.921  58.046  1.00  0.00     0.006 C 
HETATM   22  C28 UNL     1      30.406   0.286  58.999  1.00  0.00     0.006 C 
HETATM   23  C29 UNL     1      31.721   0.965  58.989  1.00  0.00    -0.002 C 
ENDROOT
BRANCH  16  24
HETATM   24  C17 UNL     1      25.298   2.945  55.715  1.00  0.00     0.253 C 
BRANCH  24  25
HETATM   25  N1  UNL     1      23.993   3.580  55.822  1.00  0.00     0.008 N 
HETATM   26  C18 UNL     1      23.687   3.991  57.154  1.00  0.00     0.285 C 
HETATM   27  C22 UNL     1      24.046   4.674  54.899  1.00  0.00     0.427 C 
HETATM   28  N3  UNL     1      23.680   5.996  55.182  1.00  0.00    -0.033 NA
HETATM   29  O3  UNL     1      24.470   4.386  53.727  1.00  0.00    -0.243 OA
BRANCH  25  30
HETATM   30  C19 UNL     1      23.044   2.566  55.411  1.00  0.00     0.257 C 
BRANCH  30  31
HETATM   31  C20 UNL     1      21.700   2.599  56.010  1.00  0.00     0.128 C 
BRANCH  31  32
HETATM   32  C21 UNL     1      20.841   1.428  55.869  1.00  0.00     0.232 C 
HETATM   33  N2  UNL     1      20.253   1.139  54.574  1.00  0.00    -0.062 NA
HETATM   34  O2  UNL     1      20.608   0.672  56.843  1.00  0.00    -0.277 OA
ENDBRANCH  31  32
ENDBRANCH  30  31
ENDBRANCH  25  30
ENDBRANCH  24  25
ENDBRANCH  16  24
BRANCH   5  35
HETATM   35  O1  UNL     1      34.434  -1.122  63.311  1.00  0.00    -0.396 OA
ATOM     36  H1  UNL     1      34.741  -0.264  63.581  1.00  0.00     0.210 HD
ENDBRANCH   5  35
TORSDOF 6
ENDMDL
