MODEL 1
REMARK VINA RESULT: -6.868709514      0.000      0.000
REMARK  9 active torsions:
REMARK  status: ('A' for Active; 'I' for Inactive)
REMARK    1  A    between atoms: C2_2  and  C4_4 
REMARK    2  A    between atoms: C4_4  and  C5_5 
REMARK    3  A    between atoms: C4_4  and  N1_8 
REMARK    4  A    between atoms: C9_12  and  N2_13 
REMARK       I    between atoms: N2_13  and  C10_15 
REMARK    5  A    between atoms: C10_15  and  C11_17 
REMARK    6  A    between atoms: C11_17  and  C12_18 
REMARK    7  A    between atoms: C17_24  and  C18_25 
REMARK    8  A    between atoms: C18_25  and  O4_26 
REMARK    9  A    between atoms: N3_28  and  O5_30 
ROOT
HETATM    1  C11 UNL     1      13.417  24.765  17.554  1.00  0.00     0.136 C 
ENDROOT
BRANCH   1   2
HETATM    2  C10 UNL     1      12.696  24.783  18.834  1.00  0.00     0.220 C 
HETATM    3  N2  UNL     1      11.482  24.024  18.952  1.00  0.00    -0.355 N 
ATOM      4  H2  UNL     1      11.140  23.488  18.154  1.00  0.00     0.162 HD
HETATM    5  O3  UNL     1      13.122  25.451  19.827  1.00  0.00    -0.274 OA
BRANCH   3   6
HETATM    6  C9  UNL     1      10.735  24.012  20.205  1.00  0.00     0.112 C 
HETATM    7  C8  UNL     1       9.330  24.548  20.046  1.00  0.00     0.029 C 
HETATM    8  C7  UNL     1       8.660  23.741  18.962  1.00  0.00     0.032 C 
HETATM    9  C6  UNL     1       8.766  22.240  19.306  1.00  0.00     0.273 C 
HETATM   10  N1  UNL     1       9.287  22.084  20.609  1.00  0.00     0.105 N 
HETATM   11  C19 UNL     1      10.623  22.605  20.740  1.00  0.00     0.298 C 
BRANCH  10  12
HETATM   12  C4  UNL     1       9.163  20.803  21.172  1.00  0.00     0.326 C 
BRANCH  12  13
HETATM   13  C2  UNL     1       9.473  19.590  20.393  1.00  0.00     0.021 C 
HETATM   14  C1  UNL     1       9.550  18.409  21.384  1.00  0.00     0.012 C 
HETATM   15  C3  UNL     1       8.524  19.167  19.331  1.00  0.00     0.012 C 
ENDBRANCH  12  13
BRANCH  12  16
HETATM   16  C5  UNL     1       9.847  20.714  22.515  1.00  0.00     0.208 C 
HETATM   17  O1  UNL     1       9.303  21.207  23.546  1.00  0.00    -0.646 OA
HETATM   18  O2  UNL     1      11.061  20.111  22.690  1.00  0.00    -0.646 OA
ENDBRANCH  12  16
ENDBRANCH  10  12
ENDBRANCH   3   6
ENDBRANCH   1   2
BRANCH   1  19
HETATM   19  C12 UNL     1      13.607  26.103  16.915  1.00  0.00     0.205 C 
HETATM   20  C13 UNL     1      13.552  25.990  15.435  1.00  0.00     0.108 C 
HETATM   21  S1  UNL     1      14.668  27.305  14.798  1.00  0.00    -0.155 SA
HETATM   22  C14 UNL     1      16.281  26.929  15.511  1.00  0.00     0.037 C 
HETATM   23  C15 UNL     1      16.963  28.254  15.797  1.00  0.00     0.029 C 
HETATM   24  C16 UNL     1      17.136  26.101  14.585  1.00  0.00     0.029 C 
HETATM   25  C17 UNL     1      16.018  26.207  16.823  1.00  0.00     0.279 C 
HETATM   26  N4  UNL     1      14.835  26.699  17.428  1.00  0.00    -0.057 N 
ATOM     27  H42 UNL     1      14.795  27.716  17.357  1.00  0.00     0.278 HD
ATOM     28  H41 UNL     1      14.884  26.598  18.442  1.00  0.00     0.278 HD
BRANCH  25  29
HETATM   29  C18 UNL     1      17.185  26.232  17.698  1.00  0.00     0.168 C 
HETATM   30  N3  UNL     1      17.320  26.963  18.698  1.00  0.00    -0.249 N 
ATOM     31  H3  UNL     1      18.214  26.815  19.167  1.00  0.00     0.196 HD
BRANCH  29  32
HETATM   32  O4  UNL     1      18.255  25.364  17.394  1.00  0.00    -0.346 OA
ATOM     33  H4  UNL     1      18.810  25.077  18.109  1.00  0.00     0.219 HD
ENDBRANCH  29  32
BRANCH  30  34
HETATM   34  O5  UNL     1      16.581  27.888  19.301  1.00  0.00    -0.288 OA
ATOM     35  H5  UNL     1      16.450  28.823  19.196  1.00  0.00     0.244 HD
ENDBRANCH  30  34
ENDBRANCH  25  29
ENDBRANCH   1  19
TORSDOF 9
ENDMDL
MODEL 2
REMARK VINA RESULT: -6.789114061      1.141      1.373
REMARK  9 active torsions:
REMARK  status: ('A' for Active; 'I' for Inactive)
REMARK    1  A    between atoms: C2_2  and  C4_4 
REMARK    2  A    between atoms: C4_4  and  C5_5 
REMARK    3  A    between atoms: C4_4  and  N1_8 
REMARK    4  A    between atoms: C9_12  and  N2_13 
REMARK       I    between atoms: N2_13  and  C10_15 
REMARK    5  A    between atoms: C10_15  and  C11_17 
REMARK    6  A    between atoms: C11_17  and  C12_18 
REMARK    7  A    between atoms: C17_24  and  C18_25 
REMARK    8  A    between atoms: C18_25  and  O4_26 
REMARK    9  A    between atoms: N3_28  and  O5_30 
ROOT
HETATM    1  C11 UNL     1      13.708  24.801  17.860  1.00  0.00     0.136 C 
ENDROOT
BRANCH   1   2
HETATM    2  C10 UNL     1      12.944  24.773  19.114  1.00  0.00     0.220 C 
HETATM    3  N2  UNL     1      11.686  24.079  19.139  1.00  0.00    -0.355 N 
ATOM      4  H2  UNL     1      11.343  23.621  18.295  1.00  0.00     0.162 HD
HETATM    5  O3  UNL     1      13.370  25.344  20.165  1.00  0.00    -0.274 OA
BRANCH   3   6
HETATM    6  C9  UNL     1      10.894  24.025  20.363  1.00  0.00     0.112 C 
HETATM    7  C8  UNL     1       9.504  24.589  20.180  1.00  0.00     0.029 C 
HETATM    8  C7  UNL     1       8.862  23.841  19.039  1.00  0.00     0.032 C 
HETATM    9  C6  UNL     1       8.933  22.326  19.319  1.00  0.00     0.273 C 
HETATM   10  N1  UNL     1       9.406  22.104  20.631  1.00  0.00     0.105 N 
HETATM   11  C19 UNL     1      10.743  22.598  20.832  1.00  0.00     0.298 C 
BRANCH  10  12
HETATM   12  C4  UNL     1       9.244  20.802  21.132  1.00  0.00     0.326 C 
BRANCH  12  13
HETATM   13  C2  UNL     1       9.515  19.618  20.295  1.00  0.00     0.021 C 
HETATM   14  C1  UNL     1       9.600  18.396  21.233  1.00  0.00     0.012 C 
HETATM   15  C3  UNL     1       8.533  19.255  19.241  1.00  0.00     0.012 C 
ENDBRANCH  12  13
BRANCH  12  16
HETATM   16  C5  UNL     1       9.927  20.627  22.468  1.00  0.00     0.208 C 
HETATM   17  O1  UNL     1       9.426  21.132  23.515  1.00  0.00    -0.646 OA
HETATM   18  O2  UNL     1      11.093  19.932  22.618  1.00  0.00    -0.646 OA
ENDBRANCH  12  16
ENDBRANCH  10  12
ENDBRANCH   3   6
ENDBRANCH   1   2
BRANCH   1  19
HETATM   19  C12 UNL     1      14.188  26.153  17.441  1.00  0.00     0.205 C 
HETATM   20  C13 UNL     1      13.301  26.725  16.396  1.00  0.00     0.108 C 
HETATM   21  S1  UNL     1      14.388  27.773  15.346  1.00  0.00    -0.155 SA
HETATM   22  C14 UNL     1      15.649  26.647  14.715  1.00  0.00     0.037 C 
HETATM   23  C15 UNL     1      16.945  27.431  14.629  1.00  0.00     0.029 C 
HETATM   24  C16 UNL     1      15.293  26.092  13.360  1.00  0.00     0.029 C 
HETATM   25  C17 UNL     1      15.799  25.542  15.749  1.00  0.00     0.279 C 
HETATM   26  N4  UNL     1      15.591  26.055  17.053  1.00  0.00    -0.057 N 
ATOM     27  H42 UNL     1      16.055  26.957  17.160  1.00  0.00     0.278 HD
ATOM     28  H41 UNL     1      16.113  25.510  17.739  1.00  0.00     0.278 HD
BRANCH  25  29
HETATM   29  C18 UNL     1      17.057  24.821  15.591  1.00  0.00     0.168 C 
HETATM   30  N3  UNL     1      18.006  24.841  16.398  1.00  0.00    -0.249 N 
ATOM     31  H3  UNL     1      18.788  24.263  16.091  1.00  0.00     0.196 HD
BRANCH  29  32
HETATM   32  O4  UNL     1      17.226  24.037  14.430  1.00  0.00    -0.346 OA
ATOM     33  H4  UNL     1      17.159  23.094  14.519  1.00  0.00     0.219 HD
ENDBRANCH  29  32
BRANCH  30  34
HETATM   34  O5  UNL     1      18.245  25.435  17.563  1.00  0.00    -0.288 OA
ATOM     35  H5  UNL     1      18.820  26.129  17.864  1.00  0.00     0.244 HD
ENDBRANCH  30  34
ENDBRANCH  25  29
ENDBRANCH   1  19
TORSDOF 9
ENDMDL
MODEL 3
REMARK VINA RESULT: -6.742253132      3.081      9.615
REMARK  9 active torsions:
REMARK  status: ('A' for Active; 'I' for Inactive)
REMARK    1  A    between atoms: C2_2  and  C4_4 
REMARK    2  A    between atoms: C4_4  and  C5_5 
REMARK    3  A    between atoms: C4_4  and  N1_8 
REMARK    4  A    between atoms: C9_12  and  N2_13 
REMARK       I    between atoms: N2_13  and  C10_15 
REMARK    5  A    between atoms: C10_15  and  C11_17 
REMARK    6  A    between atoms: C11_17  and  C12_18 
REMARK    7  A    between atoms: C17_24  and  C18_25 
REMARK    8  A    between atoms: C18_25  and  O4_26 
REMARK    9  A    between atoms: N3_28  and  O5_30 
ROOT
HETATM    1  C11 UNL     1      13.115  24.798  19.192  1.00  0.00     0.136 C 
ENDROOT
BRANCH   1   2
HETATM    2  C10 UNL     1      14.344  25.573  18.974  1.00  0.00     0.220 C 
HETATM    3  N2  UNL     1      15.254  25.147  17.947  1.00  0.00    -0.355 N 
ATOM      4  H2  UNL     1      15.037  24.321  17.389  1.00  0.00     0.162 HD
HETATM    5  O3  UNL     1      14.613  26.601  19.669  1.00  0.00    -0.274 OA
BRANCH   3   6
HETATM    6  C9  UNL     1      16.485  25.887  17.695  1.00  0.00     0.112 C 
HETATM    7  C8  UNL     1      17.626  24.989  17.276  1.00  0.00     0.029 C 
HETATM    8  C7  UNL     1      17.163  24.205  16.073  1.00  0.00     0.032 C 
HETATM    9  C6  UNL     1      16.655  25.182  14.993  1.00  0.00     0.273 C 
HETATM   10  N1  UNL     1      16.944  26.511  15.376  1.00  0.00     0.105 N 
HETATM   11  C19 UNL     1      16.279  26.897  16.592  1.00  0.00     0.298 C 
BRANCH  10  12
HETATM   12  C4  UNL     1      16.815  27.483  14.371  1.00  0.00     0.326 C 
BRANCH  12  13
HETATM   13  C2  UNL     1      17.989  27.989  13.637  1.00  0.00     0.021 C 
HETATM   14  C1  UNL     1      18.053  29.515  13.857  1.00  0.00     0.012 C 
HETATM   15  C3  UNL     1      19.333  27.469  14.004  1.00  0.00     0.012 C 
ENDBRANCH  12  13
BRANCH  12  16
HETATM   16  C5  UNL     1      15.733  27.123  13.381  1.00  0.00     0.208 C 
HETATM   17  O1  UNL     1      16.032  26.795  12.196  1.00  0.00    -0.646 OA
HETATM   18  O2  UNL     1      14.404  27.130  13.699  1.00  0.00    -0.646 OA
ENDBRANCH  12  16
ENDBRANCH  10  12
ENDBRANCH   3   6
ENDBRANCH   1   2
BRANCH   1  19
HETATM   19  C12 UNL     1      12.481  24.979  20.533  1.00  0.00     0.205 C 
HETATM   20  C13 UNL     1      13.149  24.125  21.549  1.00  0.00     0.108 C 
HETATM   21  S1  UNL     1      11.839  23.686  22.762  1.00  0.00    -0.155 SA
HETATM   22  C14 UNL     1      10.575  22.838  21.794  1.00  0.00     0.037 C 
HETATM   23  C15 UNL     1       9.231  23.210  22.389  1.00  0.00     0.029 C 
HETATM   24  C16 UNL     1      10.749  21.341  21.815  1.00  0.00     0.029 C 
HETATM   25  C17 UNL     1      10.668  23.391  20.381  1.00  0.00     0.279 C 
HETATM   26  N4  UNL     1      11.045  24.756  20.409  1.00  0.00    -0.057 N 
ATOM     27  H42 UNL     1      10.542  25.250  21.147  1.00  0.00     0.278 HD
ATOM     28  H41 UNL     1      10.678  25.245  19.593  1.00  0.00     0.278 HD
BRANCH  25  29
HETATM   29  C18 UNL     1       9.455  23.128  19.615  1.00  0.00     0.168 C 
HETATM   30  N3  UNL     1       8.542  23.950  19.406  1.00  0.00    -0.249 N 
ATOM     31  H3  UNL     1       7.787  23.556  18.845  1.00  0.00     0.196 HD
BRANCH  29  32
HETATM   32  O4  UNL     1       9.288  21.839  19.067  1.00  0.00    -0.346 OA
ATOM     33  H4  UNL     1       8.425  21.445  19.114  1.00  0.00     0.219 HD
ENDBRANCH  29  32
BRANCH  30  34
HETATM   34  O5  UNL     1       8.315  25.217  19.738  1.00  0.00    -0.288 OA
ATOM     35  H5  UNL     1       7.663  25.674  20.256  1.00  0.00     0.244 HD
ENDBRANCH  30  34
ENDBRANCH  25  29
ENDBRANCH   1  19
TORSDOF 9
ENDMDL
MODEL 4
REMARK VINA RESULT: -6.723181786      4.054      5.656
REMARK  9 active torsions:
REMARK  status: ('A' for Active; 'I' for Inactive)
REMARK    1  A    between atoms: C2_2  and  C4_4 
REMARK    2  A    between atoms: C4_4  and  C5_5 
REMARK    3  A    between atoms: C4_4  and  N1_8 
REMARK    4  A    between atoms: C9_12  and  N2_13 
REMARK       I    between atoms: N2_13  and  C10_15 
REMARK    5  A    between atoms: C10_15  and  C11_17 
REMARK    6  A    between atoms: C11_17  and  C12_18 
REMARK    7  A    between atoms: C17_24  and  C18_25 
REMARK    8  A    between atoms: C18_25  and  O4_26 
REMARK    9  A    between atoms: N3_28  and  O5_30 
ROOT
HETATM    1  C11 UNL     1      11.456  28.009  20.352  1.00  0.00     0.136 C 
ENDROOT
BRANCH   1   2
HETATM    2  C10 UNL     1      12.105  26.693  20.290  1.00  0.00     0.220 C 
HETATM    3  N2  UNL     1      11.545  25.611  21.053  1.00  0.00    -0.355 N 
ATOM      4  H2  UNL     1      10.713  25.771  21.622  1.00  0.00     0.162 HD
HETATM    5  O3  UNL     1      13.141  26.495  19.583  1.00  0.00    -0.274 OA
BRANCH   3   6
HETATM    6  C9  UNL     1      12.157  24.288  21.021  1.00  0.00     0.112 C 
HETATM    7  C8  UNL     1      12.457  23.754  22.403  1.00  0.00     0.029 C 
HETATM    8  C7  UNL     1      11.167  23.779  23.185  1.00  0.00     0.032 C 
HETATM    9  C6  UNL     1      10.080  23.018  22.399  1.00  0.00     0.273 C 
HETATM   10  N1  UNL     1      10.659  22.373  21.284  1.00  0.00     0.105 N 
HETATM   11  C19 UNL     1      11.238  23.298  20.345  1.00  0.00     0.298 C 
BRANCH  10  12
HETATM   12  C4  UNL     1       9.862  21.407  20.649  1.00  0.00     0.326 C 
BRANCH  12  13
HETATM   13  C2  UNL     1       9.541  20.126  21.306  1.00  0.00     0.021 C 
HETATM   14  C1  UNL     1       9.222  19.102  20.197  1.00  0.00     0.012 C 
HETATM   15  C3  UNL     1      10.575  19.489  22.162  1.00  0.00     0.012 C 
ENDBRANCH  12  13
BRANCH  12  16
HETATM   16  C5  UNL     1       8.593  22.006  20.092  1.00  0.00     0.208 C 
HETATM   17  O1  UNL     1       7.563  22.115  20.818  1.00  0.00    -0.646 OA
HETATM   18  O2  UNL     1       8.488  22.455  18.805  1.00  0.00    -0.646 OA
ENDBRANCH  12  16
ENDBRANCH  10  12
ENDBRANCH   3   6
ENDBRANCH   1   2
BRANCH   1  19
HETATM   19  C12 UNL     1      11.031  28.569  19.033  1.00  0.00     0.205 C 
HETATM   20  C13 UNL     1      10.147  29.747  19.224  1.00  0.00     0.108 C 
HETATM   21  S1  UNL     1       9.000  29.741  17.787  1.00  0.00    -0.155 SA
HETATM   22  C14 UNL     1       8.150  28.152  17.880  1.00  0.00     0.037 C 
HETATM   23  C15 UNL     1       7.914  27.687  16.456  1.00  0.00     0.029 C 
HETATM   24  C16 UNL     1       6.836  28.250  18.613  1.00  0.00     0.029 C 
HETATM   25  C17 UNL     1       9.103  27.190  18.570  1.00  0.00     0.279 C 
HETATM   26  N4  UNL     1      10.445  27.499  18.234  1.00  0.00    -0.057 N 
ATOM     27  H42 UNL     1      10.523  27.712  17.240  1.00  0.00     0.278 HD
ATOM     28  H41 UNL     1      11.026  26.662  18.278  1.00  0.00     0.278 HD
BRANCH  25  29
HETATM   29  C18 UNL     1       8.738  25.799  18.328  1.00  0.00     0.168 C 
HETATM   30  N3  UNL     1       9.319  25.028  17.539  1.00  0.00    -0.249 N 
ATOM     31  H3  UNL     1       8.899  24.099  17.527  1.00  0.00     0.196 HD
BRANCH  29  32
HETATM   32  O4  UNL     1       7.637  25.274  19.035  1.00  0.00    -0.346 OA
ATOM     33  H4  UNL     1       6.821  25.158  18.563  1.00  0.00     0.219 HD
ENDBRANCH  29  32
BRANCH  30  34
HETATM   34  O5  UNL     1      10.353  25.125  16.710  1.00  0.00    -0.288 OA
ATOM     35  H5  UNL     1      11.245  24.798  16.700  1.00  0.00     0.244 HD
ENDBRANCH  30  34
ENDBRANCH  25  29
ENDBRANCH   1  19
TORSDOF 9
ENDMDL
MODEL 5
REMARK VINA RESULT: -6.624355300      4.625      9.535
REMARK  9 active torsions:
REMARK  status: ('A' for Active; 'I' for Inactive)
REMARK    1  A    between atoms: C2_2  and  C4_4 
REMARK    2  A    between atoms: C4_4  and  C5_5 
REMARK    3  A    between atoms: C4_4  and  N1_8 
REMARK    4  A    between atoms: C9_12  and  N2_13 
REMARK       I    between atoms: N2_13  and  C10_15 
REMARK    5  A    between atoms: C10_15  and  C11_17 
REMARK    6  A    between atoms: C11_17  and  C12_18 
REMARK    7  A    between atoms: C17_24  and  C18_25 
REMARK    8  A    between atoms: C18_25  and  O4_26 
REMARK    9  A    between atoms: N3_28  and  O5_30 
ROOT
HETATM    1  C11 UNL     1      11.745  26.539  24.312  1.00  0.00     0.136 C 
ENDROOT
BRANCH   1   2
HETATM    2  C10 UNL     1      11.988  25.567  23.238  1.00  0.00     0.220 C 
HETATM    3  N2  UNL     1      12.188  26.052  21.900  1.00  0.00    -0.355 N 
ATOM      4  H2  UNL     1      12.158  27.055  21.716  1.00  0.00     0.162 HD
HETATM    5  O3  UNL     1      12.024  24.318  23.467  1.00  0.00    -0.274 OA
BRANCH   3   6
HETATM    6  C9  UNL     1      12.433  25.122  20.803  1.00  0.00     0.112 C 
HETATM    7  C8  UNL     1      11.573  25.412  19.595  1.00  0.00     0.029 C 
HETATM    8  C7  UNL     1      11.816  26.849  19.204  1.00  0.00     0.032 C 
HETATM    9  C6  UNL     1      13.329  27.076  19.013  1.00  0.00     0.273 C 
HETATM   10  N1  UNL     1      14.010  25.840  19.079  1.00  0.00     0.105 N 
HETATM   11  C19 UNL     1      13.874  25.197  20.360  1.00  0.00     0.298 C 
BRANCH  10  12
HETATM   12  C4  UNL     1      15.341  25.846  18.630  1.00  0.00     0.326 C 
BRANCH  12  13
HETATM   13  C2  UNL     1      15.675  25.593  17.216  1.00  0.00     0.021 C 
HETATM   14  C1  UNL     1      16.777  24.514  17.185  1.00  0.00     0.012 C 
HETATM   15  C3  UNL     1      14.602  25.104  16.311  1.00  0.00     0.012 C 
ENDBRANCH  12  13
BRANCH  12  16
HETATM   16  C5  UNL     1      16.084  27.075  19.099  1.00  0.00     0.208 C 
HETATM   17  O1  UNL     1      16.391  27.989  18.281  1.00  0.00    -0.646 OA
HETATM   18  O2  UNL     1      16.456  27.264  20.400  1.00  0.00    -0.646 OA
ENDBRANCH  12  16
ENDBRANCH  10  12
ENDBRANCH   3   6
ENDBRANCH   1   2
BRANCH   1  19
HETATM   19  C12 UNL     1      10.314  26.920  24.510  1.00  0.00     0.205 C 
HETATM   20  C13 UNL     1      10.177  27.876  25.638  1.00  0.00     0.108 C 
HETATM   21  S1  UNL     1       8.527  27.537  26.375  1.00  0.00    -0.155 SA
HETATM   22  C14 UNL     1       8.590  25.804  26.874  1.00  0.00     0.037 C 
HETATM   23  C15 UNL     1       7.205  25.225  26.656  1.00  0.00     0.029 C 
HETATM   24  C16 UNL     1       8.993  25.640  28.318  1.00  0.00     0.029 C 
HETATM   25  C17 UNL     1       9.573  25.119  25.939  1.00  0.00     0.279 C 
HETATM   26  N4  UNL     1       9.518  25.705  24.650  1.00  0.00    -0.057 N 
ATOM     27  H42 UNL     1       8.550  25.879  24.378  1.00  0.00     0.278 HD
ATOM     28  H41 UNL     1       9.779  25.025  23.936  1.00  0.00     0.278 HD
BRANCH  25  29
HETATM   29  C18 UNL     1       9.401  23.671  25.938  1.00  0.00     0.168 C 
HETATM   30  N3  UNL     1       9.384  22.948  24.923  1.00  0.00    -0.249 N 
ATOM     31  H3  UNL     1       9.253  21.963  25.152  1.00  0.00     0.196 HD
BRANCH  29  32
HETATM   32  O4  UNL     1       9.232  23.026  27.181  1.00  0.00    -0.346 OA
ATOM     33  H4  UNL     1       9.815  22.306  27.389  1.00  0.00     0.219 HD
ENDBRANCH  29  32
BRANCH  30  34
HETATM   34  O5  UNL     1       9.497  23.150  23.614  1.00  0.00    -0.288 OA
ATOM     35  H5  UNL     1       9.190  23.809  23.003  1.00  0.00     0.244 HD
ENDBRANCH  30  34
ENDBRANCH  25  29
ENDBRANCH   1  19
TORSDOF 9
ENDMDL
