MODEL 1
REMARK VINA RESULT: -6.910733571      0.000      0.000
REMARK  11 active torsions:
REMARK  status: ('A' for Active; 'I' for Inactive)
REMARK       I    between atoms: C2_2  and  N1_4 
REMARK    1  A    between atoms: N1_4  and  C3_6 
REMARK    2  A    between atoms: C3_6  and  C4_7 
REMARK    3  A    between atoms: C3_6  and  C13_16 
REMARK    4  A    between atoms: C5_8  and  C6_9 
REMARK    5  A    between atoms: C6_9  and  C8_11 
REMARK    6  A    between atoms: C8_11  and  C9_12 
REMARK    7  A    between atoms: C9_12  and  C10_13 
REMARK    8  A    between atoms: C19_23  and  O3_25 
REMARK    9  A    between atoms: C21_27  and  O4_28 
REMARK   10  A    between atoms: C23_31  and  O5_32 
REMARK   11  A    between atoms: C24_34  and  O6_35 
ROOT
HETATM    1  C13 UNL     1      12.517  25.694  20.951  1.00  0.00     0.051 C 
HETATM    2  C14 UNL     1      11.045  25.392  20.797  1.00  0.00     0.012 C 
HETATM    3  C15 UNL     1      10.133  26.485  21.210  1.00  0.00     0.012 C 
HETATM    4  C16 UNL     1      10.763  24.063  21.437  1.00  0.00     0.078 C 
HETATM    5  C17 UNL     1      11.471  23.972  22.769  1.00  0.00     0.144 C 
HETATM    6  O2  UNL     1      11.628  22.897  23.287  1.00  0.00    -0.297 OA
HETATM    7  C18 UNL     1      11.924  25.244  23.348  1.00  0.00     0.117 C 
HETATM    8  C19 UNL     1      12.921  25.865  22.386  1.00  0.00     0.067 C 
HETATM    9  C20 UNL     1      14.262  25.233  22.712  1.00  0.00     0.047 C 
HETATM   10  C21 UNL     1      11.173  22.894  20.560  1.00  0.00     0.139 C 
HETATM   11  C22 UNL     1      10.424  21.728  21.114  1.00  0.00     0.067 C 
HETATM   12  C23 UNL     1       9.234  22.286  21.838  1.00  0.00     0.150 C 
HETATM   13  C24 UNL     1       9.321  23.804  21.706  1.00  0.00     0.165 C 
ENDROOT
BRANCH   1  14
HETATM   14  C3  UNL     1      12.947  26.894  20.149  1.00  0.00     0.114 C 
BRANCH  14  15
HETATM   15  N1  UNL     1      11.866  27.794  19.863  1.00  0.00    -0.353 N 
HETATM   16  C2  UNL     1      11.911  29.165  20.204  1.00  0.00     0.214 C 
HETATM   17  C1  UNL     1      10.797  30.100  19.910  1.00  0.00     0.117 C 
HETATM   18  O1  UNL     1      12.924  29.634  20.780  1.00  0.00    -0.274 OA
ATOM     19  H1  UNL     1      11.034  27.432  19.396  1.00  0.00     0.163 HD
ENDBRANCH  14  15
BRANCH  14  20
HETATM   20  C4  UNL     1      13.549  26.373  18.864  1.00  0.00    -0.005 C 
HETATM   21  C5  UNL     1      14.260  25.268  18.827  1.00  0.00    -0.024 C 
BRANCH  21  22
HETATM   22  C6  UNL     1      14.844  24.770  17.554  1.00  0.00     0.004 C 
HETATM   23  C7  UNL     1      13.898  25.133  16.409  1.00  0.00     0.014 C 
BRANCH  22  24
HETATM   24  C8  UNL     1      16.155  25.476  17.274  1.00  0.00     0.008 C 
BRANCH  24  25
HETATM   25  C9  UNL     1      17.150  24.394  16.849  1.00  0.00     0.004 C 
BRANCH  25  26
HETATM   26  C10 UNL     1      17.264  24.395  15.348  1.00  0.00    -0.023 C 
HETATM   27  C11 UNL     1      17.250  25.862  14.911  1.00  0.00     0.009 C 
HETATM   28  C12 UNL     1      18.673  23.890  15.021  1.00  0.00     0.009 C 
ENDBRANCH  25  26
ENDBRANCH  24  25
ENDBRANCH  22  24
ENDBRANCH  21  22
ENDBRANCH  14  20
ENDBRANCH   1  14
BRANCH   8  29
HETATM   29  O3  UNL     1      13.008  27.214  22.780  1.00  0.00    -0.389 OA
ATOM     30  H3  UNL     1      12.915  27.336  23.718  1.00  0.00     0.210 HD
ENDBRANCH   8  29
BRANCH  10  31
HETATM   31  O4  UNL     1      10.692  23.151  19.277  1.00  0.00    -0.394 OA
ATOM     32  H4  UNL     1      11.423  23.470  18.760  1.00  0.00     0.210 HD
ENDBRANCH  10  31
BRANCH  13  33
HETATM   33  O6  UNL     1       8.479  24.249  20.693  1.00  0.00    -0.392 OA
ATOM     34  H6  UNL     1       7.975  23.554  20.287  1.00  0.00     0.210 HD
ENDBRANCH  13  33
BRANCH  12  35
HETATM   35  O5  UNL     1       8.033  21.902  21.211  1.00  0.00    -0.393 OA
ATOM     36  H5  UNL     1       7.296  21.984  21.804  1.00  0.00     0.210 HD
ENDBRANCH  12  35
TORSDOF 11
ENDMDL
MODEL 2
REMARK VINA RESULT: -6.714780881      0.892      1.143
REMARK  11 active torsions:
REMARK  status: ('A' for Active; 'I' for Inactive)
REMARK       I    between atoms: C2_2  and  N1_4 
REMARK    1  A    between atoms: N1_4  and  C3_6 
REMARK    2  A    between atoms: C3_6  and  C4_7 
REMARK    3  A    between atoms: C3_6  and  C13_16 
REMARK    4  A    between atoms: C5_8  and  C6_9 
REMARK    5  A    between atoms: C6_9  and  C8_11 
REMARK    6  A    between atoms: C8_11  and  C9_12 
REMARK    7  A    between atoms: C9_12  and  C10_13 
REMARK    8  A    between atoms: C19_23  and  O3_25 
REMARK    9  A    between atoms: C21_27  and  O4_28 
REMARK   10  A    between atoms: C23_31  and  O5_32 
REMARK   11  A    between atoms: C24_34  and  O6_35 
ROOT
HETATM    1  C13 UNL     1      12.458  25.825  20.892  1.00  0.00     0.051 C 
HETATM    2  C14 UNL     1      10.991  25.477  20.798  1.00  0.00     0.012 C 
HETATM    3  C15 UNL     1      10.063  26.539  21.252  1.00  0.00     0.012 C 
HETATM    4  C16 UNL     1      10.779  24.138  21.444  1.00  0.00     0.078 C 
HETATM    5  C17 UNL     1      11.544  24.067  22.746  1.00  0.00     0.144 C 
HETATM    6  O2  UNL     1      11.757  22.997  23.253  1.00  0.00    -0.297 OA
HETATM    7  C18 UNL     1      11.980  25.351  23.309  1.00  0.00     0.117 C 
HETATM    8  C19 UNL     1      12.915  26.007  22.310  1.00  0.00     0.067 C 
HETATM    9  C20 UNL     1      14.288  25.418  22.578  1.00  0.00     0.047 C 
HETATM   10  C21 UNL     1      11.190  22.985  20.547  1.00  0.00     0.139 C 
HETATM   11  C22 UNL     1      10.502  21.794  21.128  1.00  0.00     0.067 C 
HETATM   12  C23 UNL     1       9.326  22.311  21.902  1.00  0.00     0.150 C 
HETATM   13  C24 UNL     1       9.358  23.832  21.772  1.00  0.00     0.165 C 
ENDROOT
BRANCH   1  14
HETATM   14  C3  UNL     1      12.815  27.041  20.077  1.00  0.00     0.114 C 
BRANCH  14  15
HETATM   15  N1  UNL     1      11.884  27.299  19.016  1.00  0.00    -0.353 N 
HETATM   16  C2  UNL     1      11.474  28.605  18.669  1.00  0.00     0.214 C 
HETATM   17  C1  UNL     1      10.513  28.878  17.572  1.00  0.00     0.117 C 
HETATM   18  O1  UNL     1      11.927  29.592  19.300  1.00  0.00    -0.274 OA
ATOM     19  H1  UNL     1      11.504  26.510  18.492  1.00  0.00     0.163 HD
ENDBRANCH  14  15
BRANCH  14  20
HETATM   20  C4  UNL     1      14.198  26.803  19.515  1.00  0.00    -0.005 C 
HETATM   21  C5  UNL     1      14.399  26.578  18.235  1.00  0.00    -0.024 C 
BRANCH  21  22
HETATM   22  C6  UNL     1      15.766  26.348  17.697  1.00  0.00     0.004 C 
HETATM   23  C7  UNL     1      16.784  26.761  18.762  1.00  0.00     0.014 C 
BRANCH  22  24
HETATM   24  C8  UNL     1      15.981  24.870  17.444  1.00  0.00     0.008 C 
BRANCH  24  25
HETATM   25  C9  UNL     1      17.449  24.705  17.051  1.00  0.00     0.004 C 
BRANCH  25  26
HETATM   26  C10 UNL     1      17.524  24.113  15.668  1.00  0.00    -0.023 C 
HETATM   27  C11 UNL     1      16.447  24.815  14.836  1.00  0.00     0.009 C 
HETATM   28  C12 UNL     1      18.858  24.574  15.071  1.00  0.00     0.009 C 
ENDBRANCH  25  26
ENDBRANCH  24  25
ENDBRANCH  22  24
ENDBRANCH  21  22
ENDBRANCH  14  20
ENDBRANCH   1  14
BRANCH   8  29
HETATM   29  O3  UNL     1      12.975  27.357  22.704  1.00  0.00    -0.389 OA
ATOM     30  H3  UNL     1      12.948  27.473  23.647  1.00  0.00     0.210 HD
ENDBRANCH   8  29
BRANCH  10  31
HETATM   31  O4  UNL     1      10.648  23.228  19.286  1.00  0.00    -0.394 OA
ATOM     32  H4  UNL     1      10.973  24.073  18.998  1.00  0.00     0.210 HD
ENDBRANCH  10  31
BRANCH  13  33
HETATM   33  O6  UNL     1       8.462  24.251  20.796  1.00  0.00    -0.392 OA
ATOM     34  H6  UNL     1       7.580  24.385  21.123  1.00  0.00     0.210 HD
ENDBRANCH  13  33
BRANCH  12  35
HETATM   35  O5  UNL     1       8.113  21.890  21.323  1.00  0.00    -0.393 OA
ATOM     36  H5  UNL     1       7.371  22.158  21.852  1.00  0.00     0.210 HD
ENDBRANCH  12  35
TORSDOF 11
ENDMDL
MODEL 3
REMARK VINA RESULT: -6.486587086      2.349      3.302
REMARK  11 active torsions:
REMARK  status: ('A' for Active; 'I' for Inactive)
REMARK       I    between atoms: C2_2  and  N1_4 
REMARK    1  A    between atoms: N1_4  and  C3_6 
REMARK    2  A    between atoms: C3_6  and  C4_7 
REMARK    3  A    between atoms: C3_6  and  C13_16 
REMARK    4  A    between atoms: C5_8  and  C6_9 
REMARK    5  A    between atoms: C6_9  and  C8_11 
REMARK    6  A    between atoms: C8_11  and  C9_12 
REMARK    7  A    between atoms: C9_12  and  C10_13 
REMARK    8  A    between atoms: C19_23  and  O3_25 
REMARK    9  A    between atoms: C21_27  and  O4_28 
REMARK   10  A    between atoms: C23_31  and  O5_32 
REMARK   11  A    between atoms: C24_34  and  O6_35 
ROOT
HETATM    1  C13 UNL     1      12.164  25.394  18.243  1.00  0.00     0.051 C 
HETATM    2  C14 UNL     1      10.863  25.342  19.010  1.00  0.00     0.012 C 
HETATM    3  C15 UNL     1      10.109  26.617  19.054  1.00  0.00     0.012 C 
HETATM    4  C16 UNL     1      11.128  24.722  20.351  1.00  0.00     0.078 C 
HETATM    5  C17 UNL     1      12.394  25.297  20.945  1.00  0.00     0.144 C 
HETATM    6  O2  UNL     1      12.941  24.723  21.850  1.00  0.00    -0.297 OA
HETATM    7  C18 UNL     1      12.871  26.553  20.352  1.00  0.00     0.117 C 
HETATM    8  C19 UNL     1      13.176  26.294  18.888  1.00  0.00     0.067 C 
HETATM    9  C20 UNL     1      14.586  25.734  18.851  1.00  0.00     0.047 C 
HETATM   10  C21 UNL     1      11.238  23.209  20.284  1.00  0.00     0.139 C 
HETATM   11  C22 UNL     1      11.033  22.755  21.691  1.00  0.00     0.067 C 
HETATM   12  C23 UNL     1      10.269  23.842  22.388  1.00  0.00     0.150 C 
HETATM   13  C24 UNL     1      10.051  24.946  21.356  1.00  0.00     0.165 C 
ENDROOT
BRANCH   1  14
HETATM   14  C3  UNL     1      11.968  25.790  16.803  1.00  0.00     0.114 C 
BRANCH  14  15
HETATM   15  N1  UNL     1      10.671  25.440  16.295  1.00  0.00    -0.353 N 
HETATM   16  C2  UNL     1       9.983  26.244  15.359  1.00  0.00     0.214 C 
HETATM   17  C1  UNL     1       8.643  25.886  14.829  1.00  0.00     0.117 C 
HETATM   18  O1  UNL     1      10.505  27.307  14.942  1.00  0.00    -0.274 OA
ATOM     19  H1  UNL     1      10.231  24.580  16.622  1.00  0.00     0.163 HD
ENDBRANCH  14  15
BRANCH  14  20
HETATM   20  C4  UNL     1      13.048  25.097  16.004  1.00  0.00    -0.005 C 
HETATM   21  C5  UNL     1      13.827  25.752  15.172  1.00  0.00    -0.024 C 
BRANCH  21  22
HETATM   22  C6  UNL     1      14.885  25.055  14.395  1.00  0.00     0.004 C 
HETATM   23  C7  UNL     1      14.313  24.671  13.029  1.00  0.00     0.014 C 
BRANCH  22  24
HETATM   24  C8  UNL     1      16.041  25.999  14.130  1.00  0.00     0.008 C 
BRANCH  24  25
HETATM   25  C9  UNL     1      17.017  25.828  15.295  1.00  0.00     0.004 C 
BRANCH  25  26
HETATM   26  C10 UNL     1      17.205  24.359  15.567  1.00  0.00    -0.023 C 
HETATM   27  C11 UNL     1      18.549  23.971  14.944  1.00  0.00     0.009 C 
HETATM   28  C12 UNL     1      17.407  24.221  17.080  1.00  0.00     0.009 C 
ENDBRANCH  25  26
ENDBRANCH  24  25
ENDBRANCH  22  24
ENDBRANCH  21  22
ENDBRANCH  14  20
ENDBRANCH   1  14
BRANCH   8  29
HETATM   29  O3  UNL     1      13.236  27.571  18.301  1.00  0.00    -0.389 OA
ATOM     30  H3  UNL     1      12.422  27.831  17.885  1.00  0.00     0.210 HD
ENDBRANCH   8  29
BRANCH  10  31
HETATM   31  O4  UNL     1      10.167  22.751  19.518  1.00  0.00    -0.394 OA
ATOM     32  H4  UNL     1      10.342  22.991  18.616  1.00  0.00     0.210 HD
ENDBRANCH  10  31
BRANCH  13  33
HETATM   33  O6  UNL     1       8.770  24.861  20.823  1.00  0.00    -0.392 OA
ATOM     34  H6  UNL     1       8.175  25.519  21.161  1.00  0.00     0.210 HD
ENDBRANCH  13  33
BRANCH  12  35
HETATM   35  O5  UNL     1       8.988  23.397  22.768  1.00  0.00    -0.393 OA
ATOM     36  H5  UNL     1       9.042  22.607  23.292  1.00  0.00     0.210 HD
ENDBRANCH  12  35
TORSDOF 11
ENDMDL
MODEL 4
REMARK VINA RESULT: -6.308460804      1.413      1.869
REMARK  11 active torsions:
REMARK  status: ('A' for Active; 'I' for Inactive)
REMARK       I    between atoms: C2_2  and  N1_4 
REMARK    1  A    between atoms: N1_4  and  C3_6 
REMARK    2  A    between atoms: C3_6  and  C4_7 
REMARK    3  A    between atoms: C3_6  and  C13_16 
REMARK    4  A    between atoms: C5_8  and  C6_9 
REMARK    5  A    between atoms: C6_9  and  C8_11 
REMARK    6  A    between atoms: C8_11  and  C9_12 
REMARK    7  A    between atoms: C9_12  and  C10_13 
REMARK    8  A    between atoms: C19_23  and  O3_25 
REMARK    9  A    between atoms: C21_27  and  O4_28 
REMARK   10  A    between atoms: C23_31  and  O5_32 
REMARK   11  A    between atoms: C24_34  and  O6_35 
ROOT
HETATM    1  C13 UNL     1      12.565  25.593  20.840  1.00  0.00     0.051 C 
HETATM    2  C14 UNL     1      11.083  25.333  20.706  1.00  0.00     0.012 C 
HETATM    3  C15 UNL     1      10.210  26.474  21.069  1.00  0.00     0.012 C 
HETATM    4  C16 UNL     1      10.762  24.046  21.409  1.00  0.00     0.078 C 
HETATM    5  C17 UNL     1      11.472  23.995  22.742  1.00  0.00     0.144 C 
HETATM    6  O2  UNL     1      11.597  22.941  23.309  1.00  0.00    -0.297 OA
HETATM    7  C18 UNL     1      11.970  25.277  23.257  1.00  0.00     0.117 C 
HETATM    8  C19 UNL     1      12.982  25.819  22.264  1.00  0.00     0.067 C 
HETATM    9  C20 UNL     1      14.303  25.159  22.615  1.00  0.00     0.047 C 
HETATM   10  C21 UNL     1      11.129  22.824  20.587  1.00  0.00     0.139 C 
HETATM   11  C22 UNL     1      10.344  21.711  21.199  1.00  0.00     0.067 C 
HETATM   12  C23 UNL     1       9.177  22.341  21.899  1.00  0.00     0.150 C 
HETATM   13  C24 UNL     1       9.313  23.847  21.695  1.00  0.00     0.165 C 
ENDROOT
BRANCH   1  14
HETATM   14  C3  UNL     1      13.030  26.739  19.980  1.00  0.00     0.114 C 
BRANCH  14  15
HETATM   15  N1  UNL     1      12.124  27.041  18.909  1.00  0.00    -0.353 N 
HETATM   16  C2  UNL     1      11.882  28.362  18.471  1.00  0.00     0.214 C 
HETATM   17  C1  UNL     1      10.947  28.680  17.363  1.00  0.00     0.117 C 
HETATM   18  O1  UNL     1      12.470  29.323  19.026  1.00  0.00    -0.274 OA
ATOM     19  H1  UNL     1      11.637  26.274  18.446  1.00  0.00     0.163 HD
ENDBRANCH  14  15
BRANCH  14  20
HETATM   20  C4  UNL     1      14.384  26.355  19.429  1.00  0.00    -0.005 C 
HETATM   21  C5  UNL     1      14.511  25.605  18.356  1.00  0.00    -0.024 C 
BRANCH  21  22
HETATM   22  C6  UNL     1      15.851  25.238  17.826  1.00  0.00     0.004 C 
HETATM   23  C7  UNL     1      15.720  24.951  16.329  1.00  0.00     0.014 C 
BRANCH  22  24
HETATM   24  C8  UNL     1      16.800  26.411  17.960  1.00  0.00     0.008 C 
BRANCH  24  25
HETATM   25  C9  UNL     1      16.814  27.117  16.604  1.00  0.00     0.004 C 
BRANCH  25  26
HETATM   26  C10 UNL     1      16.587  28.591  16.815  1.00  0.00    -0.023 C 
HETATM   27  C11 UNL     1      15.090  28.834  16.609  1.00  0.00     0.009 C 
HETATM   28  C12 UNL     1      16.838  28.858  18.304  1.00  0.00     0.009 C 
ENDBRANCH  25  26
ENDBRANCH  24  25
ENDBRANCH  22  24
ENDBRANCH  21  22
ENDBRANCH  14  20
ENDBRANCH   1  14
BRANCH   8  29
HETATM   29  O3  UNL     1      13.115  27.181  22.593  1.00  0.00    -0.389 OA
ATOM     30  H3  UNL     1      13.894  27.368  23.103  1.00  0.00     0.210 HD
ENDBRANCH   8  29
BRANCH  10  31
HETATM   31  O4  UNL     1      10.650  23.035  19.295  1.00  0.00    -0.394 OA
ATOM     32  H4  UNL     1       9.703  23.085  19.350  1.00  0.00     0.210 HD
ENDBRANCH  10  31
BRANCH  13  33
HETATM   33  O6  UNL     1       8.481  24.271  20.665  1.00  0.00    -0.392 OA
ATOM     34  H6  UNL     1       7.688  24.695  20.968  1.00  0.00     0.210 HD
ENDBRANCH  13  33
BRANCH  12  35
HETATM   35  O5  UNL     1       7.961  21.967  21.295  1.00  0.00    -0.393 OA
ATOM     36  H5  UNL     1       7.234  22.458  21.658  1.00  0.00     0.210 HD
ENDBRANCH  12  35
TORSDOF 11
ENDMDL
MODEL 5
REMARK VINA RESULT: -6.237832965      2.599      3.982
REMARK  11 active torsions:
REMARK  status: ('A' for Active; 'I' for Inactive)
REMARK       I    between atoms: C2_2  and  N1_4 
REMARK    1  A    between atoms: N1_4  and  C3_6 
REMARK    2  A    between atoms: C3_6  and  C4_7 
REMARK    3  A    between atoms: C3_6  and  C13_16 
REMARK    4  A    between atoms: C5_8  and  C6_9 
REMARK    5  A    between atoms: C6_9  and  C8_11 
REMARK    6  A    between atoms: C8_11  and  C9_12 
REMARK    7  A    between atoms: C9_12  and  C10_13 
REMARK    8  A    between atoms: C19_23  and  O3_25 
REMARK    9  A    between atoms: C21_27  and  O4_28 
REMARK   10  A    between atoms: C23_31  and  O5_32 
REMARK   11  A    between atoms: C24_34  and  O6_35 
ROOT
HETATM    1  C13 UNL     1      11.174  26.246  18.009  1.00  0.00     0.051 C 
HETATM    2  C14 UNL     1      10.193  25.119  17.785  1.00  0.00     0.012 C 
HETATM    3  C15 UNL     1       9.256  25.317  16.655  1.00  0.00     0.012 C 
HETATM    4  C16 UNL     1       9.537  24.794  19.096  1.00  0.00     0.078 C 
HETATM    5  C17 UNL     1       9.152  26.069  19.810  1.00  0.00     0.144 C 
HETATM    6  O2  UNL     1       8.904  26.041  20.988  1.00  0.00    -0.297 OA
HETATM    7  C18 UNL     1       9.108  27.283  18.985  1.00  0.00     0.117 C 
HETATM    8  C19 UNL     1      10.499  27.520  18.426  1.00  0.00     0.067 C 
HETATM    9  C20 UNL     1      11.256  28.274  19.504  1.00  0.00     0.047 C 
HETATM   10  C21 UNL     1      10.419  23.950  19.998  1.00  0.00     0.139 C 
HETATM   11  C22 UNL     1       9.479  23.356  20.994  1.00  0.00     0.067 C 
HETATM   12  C23 UNL     1       8.120  23.358  20.358  1.00  0.00     0.150 C 
HETATM   13  C24 UNL     1       8.291  23.985  18.977  1.00  0.00     0.165 C 
ENDROOT
BRANCH   1  14
HETATM   14  C3  UNL     1      12.047  26.496  16.808  1.00  0.00     0.114 C 
BRANCH  14  15
HETATM   15  N1  UNL     1      12.306  25.309  16.044  1.00  0.00    -0.353 N 
HETATM   16  C2  UNL     1      12.423  25.325  14.636  1.00  0.00     0.214 C 
HETATM   17  C1  UNL     1      12.692  24.101  13.841  1.00  0.00     0.117 C 
HETATM   18  O1  UNL     1      12.299  26.407  14.009  1.00  0.00    -0.274 OA
ATOM     19  H1  UNL     1      12.409  24.421  16.535  1.00  0.00     0.163 HD
ENDBRANCH  14  15
BRANCH  14  20
HETATM   20  C4  UNL     1      13.343  27.082  17.320  1.00  0.00    -0.005 C 
HETATM   21  C5  UNL     1      14.308  26.327  17.796  1.00  0.00    -0.024 C 
BRANCH  21  22
HETATM   22  C6  UNL     1      15.577  26.919  18.294  1.00  0.00     0.004 C 
HETATM   23  C7  UNL     1      15.555  26.903  19.823  1.00  0.00     0.014 C 
BRANCH  22  24
HETATM   24  C8  UNL     1      16.752  26.061  17.869  1.00  0.00     0.008 C 
BRANCH  24  25
HETATM   25  C9  UNL     1      16.163  24.771  17.299  1.00  0.00     0.004 C 
BRANCH  25  26
HETATM   26  C10 UNL     1      16.933  24.384  16.063  1.00  0.00    -0.023 C 
HETATM   27  C11 UNL     1      16.176  24.982  14.874  1.00  0.00     0.009 C 
HETATM   28  C12 UNL     1      18.260  25.149  16.123  1.00  0.00     0.009 C 
ENDBRANCH  25  26
ENDBRANCH  24  25
ENDBRANCH  22  24
ENDBRANCH  21  22
ENDBRANCH  14  20
ENDBRANCH   1  14
BRANCH   8  29
HETATM   29  O3  UNL     1      10.312  28.422  17.362  1.00  0.00    -0.389 OA
ATOM     30  H3  UNL     1       9.451  28.824  17.360  1.00  0.00     0.210 HD
ENDBRANCH   8  29
BRANCH  10  31
HETATM   31  O4  UNL     1      10.939  22.917  19.219  1.00  0.00    -0.394 OA
ATOM     32  H4  UNL     1      10.208  22.377  18.943  1.00  0.00     0.210 HD
ENDBRANCH  10  31
BRANCH  13  33
HETATM   33  O6  UNL     1       8.365  22.994  18.004  1.00  0.00    -0.392 OA
ATOM     34  H6  UNL     1       7.644  22.377  18.036  1.00  0.00     0.210 HD
ENDBRANCH  13  33
BRANCH  12  35
HETATM   35  O5  UNL     1       7.659  22.045  20.143  1.00  0.00    -0.393 OA
ATOM     36  H5  UNL     1       6.845  21.888  20.606  1.00  0.00     0.210 HD
ENDBRANCH  12  35
TORSDOF 11
ENDMDL
