MODEL 1
REMARK VINA RESULT: -7.209867474      0.000      0.000
REMARK  11 active torsions:
REMARK  status: ('A' for Active; 'I' for Inactive)
REMARK    1  A    between atoms: C2_2  and  C3_3 
REMARK    2  A    between atoms: C3_3  and  C6_6 
REMARK    3  A    between atoms: C6_6  and  O1_7 
REMARK    4  A    between atoms: C7_9  and  C8_10 
REMARK    5  A    between atoms: C8_10  and  C10_12 
REMARK    6  A    between atoms: C10_12  and  C11_13 
REMARK    7  A    between atoms: C11_13  and  C12_14 
REMARK    8  A    between atoms: C12_14  and  C14_16 
REMARK    9  A    between atoms: C14_16  and  O2_17 
REMARK   10  A    between atoms: C21_26  and  O4_27 
REMARK   11  A    between atoms: C22_29  and  O5_30 
ROOT
HETATM    1  C6  UNL     1      10.508  23.008  21.514  1.00  0.00     0.085 C 
HETATM    2  C7  UNL     1      10.533  23.061  20.075  1.00  0.00     0.057 C 
HETATM    3  C21 UNL     1       9.038  23.075  19.649  1.00  0.00     0.161 C 
HETATM    4  C22 UNL     1       8.514  21.977  20.540  1.00  0.00     0.098 C 
HETATM    5  C23 UNL     1       8.973  20.604  20.281  1.00  0.00     0.075 C 
HETATM    6  C24 UNL     1       9.676  20.601  21.585  1.00  0.00    -0.076 C 
HETATM    7  C25 UNL     1      10.339  19.684  22.303  1.00  0.00     0.015 C 
HETATM    8  C26 UNL     1       9.338  22.016  21.760  1.00  0.00     0.087 C 
ENDROOT
BRANCH   2   9
HETATM    9  C8  UNL     1      11.346  23.940  19.244  1.00  0.00    -0.009 C 
HETATM   10  C9  UNL     1      10.683  25.303  18.946  1.00  0.00     0.010 C 
BRANCH   9  11
HETATM   11  C10 UNL     1      12.662  24.433  19.904  1.00  0.00     0.005 C 
BRANCH  11  12
HETATM   12  C11 UNL     1      13.611  24.772  18.789  1.00  0.00     0.008 C 
BRANCH  12  13
HETATM   13  C12 UNL     1      14.553  25.895  19.054  1.00  0.00     0.024 C 
HETATM   14  C13 UNL     1      13.948  26.947  19.970  1.00  0.00     0.013 C 
BRANCH  13  15
HETATM   15  C14 UNL     1      15.130  26.477  17.823  1.00  0.00     0.125 C 
HETATM   16  C15 UNL     1      14.808  25.511  16.682  1.00  0.00     0.051 C 
HETATM   17  C16 UNL     1      15.890  25.538  15.631  1.00  0.00     0.037 C 
HETATM   18  C17 UNL     1      17.123  25.010  16.272  1.00  0.00    -0.080 C 
HETATM   19  C18 UNL     1      17.971  23.949  15.672  1.00  0.00     0.043 C 
HETATM   20  C19 UNL     1      17.458  25.531  17.444  1.00  0.00     0.056 C 
HETATM   21  C20 UNL     1      16.609  26.565  18.007  1.00  0.00     0.184 C 
HETATM   22  O3  UNL     1      17.152  27.513  18.639  1.00  0.00    -0.290 OA
BRANCH  15  23
HETATM   23  O2  UNL     1      14.666  27.732  17.555  1.00  0.00    -0.381 OA
ATOM     24  H2  UNL     1      15.092  28.136  16.807  1.00  0.00     0.211 HD
ENDBRANCH  15  23
ENDBRANCH  13  15
ENDBRANCH  12  13
ENDBRANCH  11  12
ENDBRANCH   9  11
ENDBRANCH   2   9
BRANCH   1  25
HETATM   25  C3  UNL     1      10.418  24.026  22.531  1.00  0.00     0.002 C 
HETATM   26  C4  UNL     1      11.663  24.202  23.423  1.00  0.00     0.022 C 
HETATM   27  C5  UNL     1       9.710  25.309  22.252  1.00  0.00     0.022 C 
BRANCH  25  28
HETATM   28  C2  UNL     1       9.517  23.379  23.614  1.00  0.00    -0.025 C 
HETATM   29  C1  UNL     1       9.350  23.850  24.801  1.00  0.00     0.008 C 
ENDBRANCH  25  28
ENDBRANCH   1  25
BRANCH   1  30
HETATM   30  O1  UNL     1      11.655  22.228  21.942  1.00  0.00    -0.387 OA
ATOM     31  H1  UNL     1      11.281  21.647  22.595  1.00  0.00     0.210 HD
ENDBRANCH   1  30
BRANCH   3  32
HETATM   32  O4  UNL     1       8.827  22.675  18.355  1.00  0.00    -0.392 OA
ATOM     33  H4  UNL     1       7.918  22.720  18.083  1.00  0.00     0.210 HD
ENDBRANCH   3  32
BRANCH   4  34
HETATM   34  O5  UNL     1       7.139  22.098  20.746  1.00  0.00    -0.386 OA
ATOM     35  H5  UNL     1       6.948  22.621  21.515  1.00  0.00     0.210 HD
ENDBRANCH   4  34
TORSDOF 11
ENDMDL
MODEL 2
REMARK VINA RESULT: -6.970836466      1.252      1.886
REMARK  11 active torsions:
REMARK  status: ('A' for Active; 'I' for Inactive)
REMARK    1  A    between atoms: C2_2  and  C3_3 
REMARK    2  A    between atoms: C3_3  and  C6_6 
REMARK    3  A    between atoms: C6_6  and  O1_7 
REMARK    4  A    between atoms: C7_9  and  C8_10 
REMARK    5  A    between atoms: C8_10  and  C10_12 
REMARK    6  A    between atoms: C10_12  and  C11_13 
REMARK    7  A    between atoms: C11_13  and  C12_14 
REMARK    8  A    between atoms: C12_14  and  C14_16 
REMARK    9  A    between atoms: C14_16  and  O2_17 
REMARK   10  A    between atoms: C21_26  and  O4_27 
REMARK   11  A    between atoms: C22_29  and  O5_30 
ROOT
HETATM    1  C6  UNL     1      10.589  23.018  21.922  1.00  0.00     0.085 C 
HETATM    2  C7  UNL     1      10.788  23.070  20.497  1.00  0.00     0.057 C 
HETATM    3  C21 UNL     1       9.356  23.100  19.894  1.00  0.00     0.161 C 
HETATM    4  C22 UNL     1       8.717  22.008  20.715  1.00  0.00     0.098 C 
HETATM    5  C23 UNL     1       9.189  20.630  20.510  1.00  0.00     0.075 C 
HETATM    6  C24 UNL     1       9.729  20.619  21.889  1.00  0.00    -0.076 C 
HETATM    7  C25 UNL     1      10.292  19.695  22.681  1.00  0.00     0.015 C 
HETATM    8  C26 UNL     1       9.389  22.038  22.024  1.00  0.00     0.087 C 
ENDROOT
BRANCH   2   9
HETATM    9  C8  UNL     1      11.705  23.940  19.770  1.00  0.00    -0.009 C 
HETATM   10  C9  UNL     1      11.114  25.328  19.440  1.00  0.00     0.010 C 
BRANCH   9  11
HETATM   11  C10 UNL     1      12.962  24.378  20.568  1.00  0.00     0.005 C 
BRANCH  11  12
HETATM   12  C11 UNL     1      13.313  25.765  20.106  1.00  0.00     0.008 C 
BRANCH  12  13
HETATM   13  C12 UNL     1      14.764  26.038  19.909  1.00  0.00     0.024 C 
HETATM   14  C13 UNL     1      15.308  27.018  20.935  1.00  0.00     0.013 C 
BRANCH  13  15
HETATM   15  C14 UNL     1      15.104  26.420  18.521  1.00  0.00     0.125 C 
HETATM   16  C15 UNL     1      13.994  27.351  18.033  1.00  0.00     0.051 C 
HETATM   17  C16 UNL     1      13.781  27.204  16.546  1.00  0.00     0.037 C 
HETATM   18  C17 UNL     1      13.278  25.824  16.321  1.00  0.00    -0.080 C 
HETATM   19  C18 UNL     1      12.081  25.508  15.501  1.00  0.00     0.043 C 
HETATM   20  C19 UNL     1      13.954  24.839  16.897  1.00  0.00     0.056 C 
HETATM   21  C20 UNL     1      15.120  25.177  17.693  1.00  0.00     0.184 C 
HETATM   22  O3  UNL     1      16.116  24.404  17.662  1.00  0.00    -0.290 OA
BRANCH  15  23
HETATM   23  O2  UNL     1      16.329  27.011  18.412  1.00  0.00    -0.381 OA
ATOM     24  H2  UNL     1      16.955  26.485  17.928  1.00  0.00     0.211 HD
ENDBRANCH  15  23
ENDBRANCH  13  15
ENDBRANCH  12  13
ENDBRANCH  11  12
ENDBRANCH   9  11
ENDBRANCH   2   9
BRANCH   1  25
HETATM   25  C3  UNL     1      10.389  24.036  22.922  1.00  0.00     0.002 C 
HETATM   26  C4  UNL     1      11.550  24.247  23.914  1.00  0.00     0.022 C 
HETATM   27  C5  UNL     1       9.674  25.300  22.578  1.00  0.00     0.022 C 
BRANCH  25  28
HETATM   28  C2  UNL     1       9.418  23.370  23.930  1.00  0.00    -0.025 C 
HETATM   29  C1  UNL     1       9.341  23.674  25.179  1.00  0.00     0.008 C 
ENDBRANCH  25  28
ENDBRANCH   1  25
BRANCH   1  30
HETATM   30  O1  UNL     1      11.668  22.225  22.484  1.00  0.00    -0.387 OA
ATOM     31  H1  UNL     1      12.311  22.219  21.784  1.00  0.00     0.210 HD
ENDBRANCH   1  30
BRANCH   3  32
HETATM   32  O4  UNL     1       9.297  22.702  18.584  1.00  0.00    -0.392 OA
ATOM     33  H4  UNL     1       8.600  23.116  18.088  1.00  0.00     0.210 HD
ENDBRANCH   3  32
BRANCH   4  34
HETATM   34  O5  UNL     1       7.329  22.144  20.754  1.00  0.00    -0.386 OA
ATOM     35  H5  UNL     1       7.069  22.932  21.216  1.00  0.00     0.210 HD
ENDBRANCH   4  34
TORSDOF 11
ENDMDL
MODEL 3
REMARK VINA RESULT: -6.799307767      0.828      1.184
REMARK  11 active torsions:
REMARK  status: ('A' for Active; 'I' for Inactive)
REMARK    1  A    between atoms: C2_2  and  C3_3 
REMARK    2  A    between atoms: C3_3  and  C6_6 
REMARK    3  A    between atoms: C6_6  and  O1_7 
REMARK    4  A    between atoms: C7_9  and  C8_10 
REMARK    5  A    between atoms: C8_10  and  C10_12 
REMARK    6  A    between atoms: C10_12  and  C11_13 
REMARK    7  A    between atoms: C11_13  and  C12_14 
REMARK    8  A    between atoms: C12_14  and  C14_16 
REMARK    9  A    between atoms: C14_16  and  O2_17 
REMARK   10  A    between atoms: C21_26  and  O4_27 
REMARK   11  A    between atoms: C22_29  and  O5_30 
ROOT
HETATM    1  C6  UNL     1      10.557  23.109  21.451  1.00  0.00     0.085 C 
HETATM    2  C7  UNL     1      10.552  23.166  20.012  1.00  0.00     0.057 C 
HETATM    3  C21 UNL     1       9.050  23.135  19.615  1.00  0.00     0.161 C 
HETATM    4  C22 UNL     1       8.578  22.019  20.512  1.00  0.00     0.098 C 
HETATM    5  C23 UNL     1       9.074  20.662  20.238  1.00  0.00     0.075 C 
HETATM    6  C24 UNL     1       9.801  20.676  21.528  1.00  0.00    -0.076 C 
HETATM    7  C25 UNL     1      10.506  19.778  22.230  1.00  0.00     0.015 C 
HETATM    8  C26 UNL     1       9.424  22.079  21.715  1.00  0.00     0.087 C 
ENDROOT
BRANCH   2   9
HETATM    9  C8  UNL     1      11.322  24.073  19.168  1.00  0.00    -0.009 C 
HETATM   10  C9  UNL     1      10.649  25.447  18.957  1.00  0.00     0.010 C 
BRANCH   9  11
HETATM   11  C10 UNL     1      12.675  24.538  19.770  1.00  0.00     0.005 C 
BRANCH  11  12
HETATM   12  C11 UNL     1      13.523  25.016  18.625  1.00  0.00     0.008 C 
BRANCH  12  13
HETATM   13  C12 UNL     1      14.782  25.721  18.997  1.00  0.00     0.024 C 
HETATM   14  C13 UNL     1      14.633  26.525  20.278  1.00  0.00     0.013 C 
BRANCH  13  15
HETATM   15  C14 UNL     1      15.356  26.516  17.889  1.00  0.00     0.125 C 
HETATM   16  C15 UNL     1      14.196  26.895  16.968  1.00  0.00     0.051 C 
HETATM   17  C16 UNL     1      14.657  27.000  15.536  1.00  0.00     0.037 C 
HETATM   18  C17 UNL     1      15.074  25.635  15.120  1.00  0.00    -0.080 C 
HETATM   19  C18 UNL     1      14.620  24.983  13.865  1.00  0.00     0.043 C 
HETATM   20  C19 UNL     1      15.895  24.986  15.933  1.00  0.00     0.056 C 
HETATM   21  C20 UNL     1      16.321  25.647  17.153  1.00  0.00     0.184 C 
HETATM   22  O3  UNL     1      17.503  25.465  17.556  1.00  0.00    -0.290 OA
BRANCH  15  23
HETATM   23  O2  UNL     1      16.030  27.622  18.317  1.00  0.00    -0.381 OA
ATOM     24  H2  UNL     1      15.458  28.354  18.517  1.00  0.00     0.211 HD
ENDBRANCH  15  23
ENDBRANCH  13  15
ENDBRANCH  12  13
ENDBRANCH  11  12
ENDBRANCH   9  11
ENDBRANCH   2   9
BRANCH   1  25
HETATM   25  C3  UNL     1      10.455  24.120  22.473  1.00  0.00     0.002 C 
HETATM   26  C4  UNL     1      11.694  24.298  23.373  1.00  0.00     0.022 C 
HETATM   27  C5  UNL     1       9.741  25.400  22.198  1.00  0.00     0.022 C 
BRANCH  25  28
HETATM   28  C2  UNL     1       9.552  23.461  23.547  1.00  0.00    -0.025 C 
HETATM   29  C1  UNL     1       9.456  23.864  24.767  1.00  0.00     0.008 C 
ENDBRANCH  25  28
ENDBRANCH   1  25
BRANCH   1  30
HETATM   30  O1  UNL     1      11.735  22.363  21.854  1.00  0.00    -0.387 OA
ATOM     31  H1  UNL     1      12.366  23.050  22.036  1.00  0.00     0.210 HD
ENDBRANCH   1  30
BRANCH   3  32
HETATM   32  O4  UNL     1       8.826  22.733  18.324  1.00  0.00    -0.392 OA
ATOM     33  H4  UNL     1       7.980  22.995  17.981  1.00  0.00     0.210 HD
ENDBRANCH   3  32
BRANCH   4  34
HETATM   34  O5  UNL     1       7.204  22.096  20.744  1.00  0.00    -0.386 OA
ATOM     35  H5  UNL     1       6.999  21.965  21.662  1.00  0.00     0.210 HD
ENDBRANCH   4  34
TORSDOF 11
ENDMDL
MODEL 4
REMARK VINA RESULT: -6.794775250      0.808      1.023
REMARK  11 active torsions:
REMARK  status: ('A' for Active; 'I' for Inactive)
REMARK    1  A    between atoms: C2_2  and  C3_3 
REMARK    2  A    between atoms: C3_3  and  C6_6 
REMARK    3  A    between atoms: C6_6  and  O1_7 
REMARK    4  A    between atoms: C7_9  and  C8_10 
REMARK    5  A    between atoms: C8_10  and  C10_12 
REMARK    6  A    between atoms: C10_12  and  C11_13 
REMARK    7  A    between atoms: C11_13  and  C12_14 
REMARK    8  A    between atoms: C12_14  and  C14_16 
REMARK    9  A    between atoms: C14_16  and  O2_17 
REMARK   10  A    between atoms: C21_26  and  O4_27 
REMARK   11  A    between atoms: C22_29  and  O5_30 
ROOT
HETATM    1  C6  UNL     1      10.545  23.019  21.447  1.00  0.00     0.085 C 
HETATM    2  C7  UNL     1      10.544  23.072  20.008  1.00  0.00     0.057 C 
HETATM    3  C21 UNL     1       9.041  23.065  19.609  1.00  0.00     0.161 C 
HETATM    4  C22 UNL     1       8.549  21.959  20.509  1.00  0.00     0.098 C 
HETATM    5  C23 UNL     1       9.023  20.593  20.240  1.00  0.00     0.075 C 
HETATM    6  C24 UNL     1       9.749  20.599  21.531  1.00  0.00    -0.076 C 
HETATM    7  C25 UNL     1      10.438  19.692  22.237  1.00  0.00     0.015 C 
HETATM    8  C26 UNL     1       9.395  22.010  21.713  1.00  0.00     0.087 C 
ENDROOT
BRANCH   2   9
HETATM    9  C8  UNL     1      11.329  23.963  19.162  1.00  0.00    -0.009 C 
HETATM   10  C9  UNL     1      10.673  25.342  18.933  1.00  0.00     0.010 C 
BRANCH   9  11
HETATM   11  C10 UNL     1      12.683  24.418  19.770  1.00  0.00     0.005 C 
BRANCH  11  12
HETATM   12  C11 UNL     1      12.725  25.917  19.671  1.00  0.00     0.008 C 
BRANCH  12  13
HETATM   13  C12 UNL     1      13.997  26.563  20.102  1.00  0.00     0.024 C 
HETATM   14  C13 UNL     1      13.821  27.389  21.366  1.00  0.00     0.013 C 
BRANCH  13  15
HETATM   15  C14 UNL     1      14.667  27.315  19.020  1.00  0.00     0.125 C 
HETATM   16  C15 UNL     1      13.909  27.005  17.729  1.00  0.00     0.051 C 
HETATM   17  C16 UNL     1      14.835  27.038  16.538  1.00  0.00     0.037 C 
HETATM   18  C17 UNL     1      15.801  25.922  16.717  1.00  0.00    -0.080 C 
HETATM   19  C18 UNL     1      16.116  24.930  15.658  1.00  0.00     0.043 C 
HETATM   20  C19 UNL     1      16.398  25.831  17.897  1.00  0.00     0.056 C 
HETATM   21  C20 UNL     1      16.070  26.815  18.913  1.00  0.00     0.184 C 
HETATM   22  O3  UNL     1      16.987  27.217  19.680  1.00  0.00    -0.290 OA
BRANCH  15  23
HETATM   23  O2  UNL     1      14.719  28.658  19.253  1.00  0.00    -0.381 OA
ATOM     24  H2  UNL     1      15.573  28.954  19.547  1.00  0.00     0.211 HD
ENDBRANCH  15  23
ENDBRANCH  13  15
ENDBRANCH  12  13
ENDBRANCH  11  12
ENDBRANCH   9  11
ENDBRANCH   2   9
BRANCH   1  25
HETATM   25  C3  UNL     1      10.460  24.035  22.465  1.00  0.00     0.002 C 
HETATM   26  C4  UNL     1      11.725  24.242  23.321  1.00  0.00     0.022 C 
HETATM   27  C5  UNL     1       9.713  25.300  22.206  1.00  0.00     0.022 C 
BRANCH  25  28
HETATM   28  C2  UNL     1       9.606  23.368  23.574  1.00  0.00    -0.025 C 
HETATM   29  C1  UNL     1       9.386  23.880  24.735  1.00  0.00     0.008 C 
ENDBRANCH  25  28
ENDBRANCH   1  25
BRANCH   1  30
HETATM   30  O1  UNL     1      11.711  22.254  21.854  1.00  0.00    -0.387 OA
ATOM     31  H1  UNL     1      11.592  21.431  21.395  1.00  0.00     0.210 HD
ENDBRANCH   1  30
BRANCH   3  32
HETATM   32  O4  UNL     1       8.812  22.662  18.319  1.00  0.00    -0.392 OA
ATOM     33  H4  UNL     1       8.205  23.218  17.845  1.00  0.00     0.210 HD
ENDBRANCH   3  32
BRANCH   4  34
HETATM   34  O5  UNL     1       7.177  22.061  20.740  1.00  0.00    -0.386 OA
ATOM     35  H5  UNL     1       6.708  22.298  19.949  1.00  0.00     0.210 HD
ENDBRANCH   4  34
TORSDOF 11
ENDMDL
MODEL 5
REMARK VINA RESULT: -6.710123631      1.381      1.915
REMARK  11 active torsions:
REMARK  status: ('A' for Active; 'I' for Inactive)
REMARK    1  A    between atoms: C2_2  and  C3_3 
REMARK    2  A    between atoms: C3_3  and  C6_6 
REMARK    3  A    between atoms: C6_6  and  O1_7 
REMARK    4  A    between atoms: C7_9  and  C8_10 
REMARK    5  A    between atoms: C8_10  and  C10_12 
REMARK    6  A    between atoms: C10_12  and  C11_13 
REMARK    7  A    between atoms: C11_13  and  C12_14 
REMARK    8  A    between atoms: C12_14  and  C14_16 
REMARK    9  A    between atoms: C14_16  and  O2_17 
REMARK   10  A    between atoms: C21_26  and  O4_27 
REMARK   11  A    between atoms: C22_29  and  O5_30 
ROOT
HETATM    1  C6  UNL     1      11.190  24.131  21.268  1.00  0.00     0.085 C 
HETATM    2  C7  UNL     1      11.344  24.304  19.847  1.00  0.00     0.057 C 
HETATM    3  C21 UNL     1       9.912  24.606  19.323  1.00  0.00     0.161 C 
HETATM    4  C22 UNL     1       9.145  23.537  20.062  1.00  0.00     0.098 C 
HETATM    5  C23 UNL     1       9.398  22.135  19.699  1.00  0.00     0.075 C 
HETATM    6  C24 UNL     1       9.979  21.900  21.041  1.00  0.00    -0.076 C 
HETATM    7  C25 UNL     1      10.424  20.826  21.707  1.00  0.00     0.015 C 
HETATM    8  C26 UNL     1       9.860  23.331  21.333  1.00  0.00     0.087 C 
ENDROOT
BRANCH   2   9
HETATM    9  C8  UNL     1      12.354  25.103  19.165  1.00  0.00    -0.009 C 
HETATM   10  C9  UNL     1      12.041  26.615  19.145  1.00  0.00     0.010 C 
BRANCH   9  11
HETATM   11  C10 UNL     1      13.742  25.136  19.859  1.00  0.00     0.005 C 
BRANCH  11  12
HETATM   12  C11 UNL     1      14.294  26.521  19.671  1.00  0.00     0.008 C 
BRANCH  12  13
HETATM   13  C12 UNL     1      15.765  26.613  19.455  1.00  0.00     0.024 C 
HETATM   14  C13 UNL     1      16.434  27.546  20.451  1.00  0.00     0.013 C 
BRANCH  13  15
HETATM   15  C14 UNL     1      16.133  26.916  18.055  1.00  0.00     0.125 C 
HETATM   16  C15 UNL     1      14.889  27.500  17.387  1.00  0.00     0.051 C 
HETATM   17  C16 UNL     1      14.851  27.151  15.919  1.00  0.00     0.037 C 
HETATM   18  C17 UNL     1      14.699  25.675  15.835  1.00  0.00    -0.080 C 
HETATM   19  C18 UNL     1      13.685  25.000  14.986  1.00  0.00     0.043 C 
HETATM   20  C19 UNL     1      15.526  24.945  16.570  1.00  0.00     0.056 C 
HETATM   21  C20 UNL     1      16.507  25.632  17.391  1.00  0.00     0.184 C 
HETATM   22  O3  UNL     1      17.652  25.118  17.518  1.00  0.00    -0.290 OA
BRANCH  15  23
HETATM   23  O2  UNL     1      17.196  27.765  17.953  1.00  0.00    -0.381 OA
ATOM     24  H2  UNL     1      17.445  27.944  17.053  1.00  0.00     0.211 HD
ENDBRANCH  15  23
ENDBRANCH  13  15
ENDBRANCH  12  13
ENDBRANCH  11  12
ENDBRANCH   9  11
ENDBRANCH   2   9
BRANCH   1  25
HETATM   25  C3  UNL     1      11.180  25.056  22.372  1.00  0.00     0.002 C 
HETATM   26  C4  UNL     1      12.530  25.271  23.086  1.00  0.00     0.022 C 
HETATM   27  C5  UNL     1      10.344  26.290  22.315  1.00  0.00     0.022 C 
BRANCH  25  28
HETATM   28  C2  UNL     1      10.506  24.253  23.515  1.00  0.00    -0.025 C 
HETATM   29  C1  UNL     1      10.719  24.448  24.769  1.00  0.00     0.008 C 
ENDBRANCH  25  28
ENDBRANCH   1  25
BRANCH   1  30
HETATM   30  O1  UNL     1      12.157  23.134  21.693  1.00  0.00    -0.387 OA
ATOM     31  H1  UNL     1      12.752  23.091  20.954  1.00  0.00     0.210 HD
ENDBRANCH   1  30
BRANCH   3  32
HETATM   32  O4  UNL     1       9.748  24.361  17.985  1.00  0.00    -0.392 OA
ATOM     33  H4  UNL     1      10.042  25.071  17.426  1.00  0.00     0.210 HD
ENDBRANCH   3  32
BRANCH   4  34
HETATM   34  O5  UNL     1       7.796  23.869  20.185  1.00  0.00    -0.386 OA
ATOM     35  H5  UNL     1       7.323  23.707  19.378  1.00  0.00     0.210 HD
ENDBRANCH   4  34
TORSDOF 11
ENDMDL
