MODEL 1
REMARK VINA RESULT: -6.971001273      0.000      0.000
REMARK  12 active torsions:
REMARK  status: ('A' for Active; 'I' for Inactive)
REMARK    1  A    between atoms: C4_4  and  C5_5 
REMARK    2  A    between atoms: C5_5  and  C6_6 
REMARK    3  A    between atoms: C6_6  and  N1_7 
REMARK    4  A    between atoms: C6_6  and  C7_11 
REMARK    5  A    between atoms: C7_11  and  O1_12 
REMARK    6  A    between atoms: C7_11  and  O2_14 
REMARK    7  A    between atoms: C9_17  and  C10_18 
REMARK    8  A    between atoms: C10_18  and  C12_20 
REMARK    9  A    between atoms: C12_20  and  C13_21 
REMARK   10  A    between atoms: C13_21  and  C14_22 
REMARK   11  A    between atoms: C14_22  and  O3_23 
REMARK   12  A    between atoms: C16_26  and  O4_27 
ROOT
HETATM    1  C1  UNL     1      10.031  26.991  22.345  1.00  0.00     0.015 C 
HETATM    2  C2  UNL     1      10.416  25.800  22.241  1.00  0.00    -0.072 C 
HETATM    3  C3  UNL     1      11.137  25.117  23.434  1.00  0.00     0.069 C 
HETATM    4  C4  UNL     1      10.205  23.957  23.452  1.00  0.00    -0.070 C 
HETATM    5  C8  UNL     1       9.778  23.647  22.201  1.00  0.00    -0.059 C 
HETATM    6  C9  UNL     1       8.861  22.588  21.748  1.00  0.00     0.022 C 
HETATM    7  C15 UNL     1       8.323  22.947  20.376  1.00  0.00     0.042 C 
HETATM    8  C16 UNL     1       9.414  23.442  19.472  1.00  0.00     0.133 C 
HETATM    9  C17 UNL     1       9.954  24.790  19.938  1.00  0.00     0.044 C 
HETATM   10  C18 UNL     1      11.021  25.130  18.892  1.00  0.00     0.187 C 
HETATM   11  O5  UNL     1      10.888  26.492  18.500  1.00  0.00    -0.355 OA
HETATM   12  C19 UNL     1       9.808  26.557  17.626  1.00  0.00     0.156 C 
HETATM   13  C20 UNL     1       9.362  28.031  17.645  1.00  0.00     0.078 C 
HETATM   14  C21 UNL     1      10.151  26.242  16.218  1.00  0.00     0.078 C 
HETATM   15  O6  UNL     1       8.776  25.758  18.163  1.00  0.00    -0.355 OA
HETATM   16  C22 UNL     1       8.920  25.840  19.596  1.00  0.00     0.187 C 
HETATM   17  C23 UNL     1      10.435  24.691  21.319  1.00  0.00     0.017 C 
HETATM   18  C24 UNL     1      11.873  24.120  21.190  1.00  0.00     0.026 C 
ENDROOT
BRANCH   4  19
HETATM   19  C5  UNL     1       9.757  23.246  24.661  1.00  0.00     0.072 C 
BRANCH  19  20
HETATM   20  C6  UNL     1       8.894  24.025  25.618  1.00  0.00     0.241 C 
BRANCH  20  21
HETATM   21  N1  UNL     1       8.669  25.393  25.287  1.00  0.00    -0.070 N 
ATOM     22  H13 UNL     1       9.395  25.975  25.706  1.00  0.00     0.274 HD
ATOM     23  H12 UNL     1       8.859  25.545  24.297  1.00  0.00     0.274 HD
ATOM     24  H11 UNL     1       7.749  25.766  25.524  1.00  0.00     0.274 HD
ENDBRANCH  20  21
BRANCH  20  25
HETATM   25  C7  UNL     1       9.667  23.979  26.951  1.00  0.00     0.284 C 
BRANCH  25  26
HETATM   26  O1  UNL     1       9.200  22.878  27.653  1.00  0.00    -0.369 OA
ATOM     27  H1  UNL     1       9.503  22.106  27.191  1.00  0.00     0.212 HD
ENDBRANCH  25  26
BRANCH  25  28
HETATM   28  O2  UNL     1      11.019  23.987  26.750  1.00  0.00    -0.369 OA
ATOM     29  H2  UNL     1      11.494  23.832  27.558  1.00  0.00     0.212 HD
ENDBRANCH  25  28
ENDBRANCH  20  25
ENDBRANCH  19  20
ENDBRANCH   4  19
BRANCH   6  30
HETATM   30  C10 UNL     1       9.285  21.167  21.878  1.00  0.00    -0.010 C 
HETATM   31  C11 UNL     1      10.711  20.849  22.099  1.00  0.00     0.010 C 
BRANCH  30  32
HETATM   32  C12 UNL     1       8.737  20.342  20.721  1.00  0.00     0.007 C 
BRANCH  32  33
HETATM   33  C13 UNL     1       9.306  18.922  20.753  1.00  0.00     0.026 C 
BRANCH  33  34
HETATM   34  C14 UNL     1       9.186  18.334  19.339  1.00  0.00     0.164 C 
BRANCH  34  35
HETATM   35  O3  UNL     1       9.169  16.945  19.419  1.00  0.00    -0.401 OA
ATOM     36  H3  UNL     1       8.961  16.584  18.566  1.00  0.00     0.209 HD
ENDBRANCH  34  35
ENDBRANCH  33  34
ENDBRANCH  32  33
ENDBRANCH  30  32
ENDBRANCH   6  30
BRANCH   8  37
HETATM   37  O4  UNL     1       8.900  23.535  18.208  1.00  0.00    -0.395 OA
ATOM     38  H4  UNL     1       9.214  24.346  17.825  1.00  0.00     0.210 HD
ENDBRANCH   8  37
TORSDOF 12
ENDMDL
MODEL 2
REMARK VINA RESULT: -6.797246639      1.151      1.272
REMARK  12 active torsions:
REMARK  status: ('A' for Active; 'I' for Inactive)
REMARK    1  A    between atoms: C4_4  and  C5_5 
REMARK    2  A    between atoms: C5_5  and  C6_6 
REMARK    3  A    between atoms: C6_6  and  N1_7 
REMARK    4  A    between atoms: C6_6  and  C7_11 
REMARK    5  A    between atoms: C7_11  and  O1_12 
REMARK    6  A    between atoms: C7_11  and  O2_14 
REMARK    7  A    between atoms: C9_17  and  C10_18 
REMARK    8  A    between atoms: C10_18  and  C12_20 
REMARK    9  A    between atoms: C12_20  and  C13_21 
REMARK   10  A    between atoms: C13_21  and  C14_22 
REMARK   11  A    between atoms: C14_22  and  O3_23 
REMARK   12  A    between atoms: C16_26  and  O4_27 
ROOT
HETATM    1  C1  UNL     1      10.636  27.031  23.194  1.00  0.00     0.015 C 
HETATM    2  C2  UNL     1      10.897  25.808  23.080  1.00  0.00    -0.072 C 
HETATM    3  C3  UNL     1      11.209  24.966  24.346  1.00  0.00     0.069 C 
HETATM    4  C4  UNL     1      10.178  23.941  24.031  1.00  0.00    -0.070 C 
HETATM    5  C8  UNL     1      10.050  23.764  22.690  1.00  0.00    -0.059 C 
HETATM    6  C9  UNL     1       9.165  22.865  21.933  1.00  0.00     0.022 C 
HETATM    7  C15 UNL     1       9.037  23.373  20.509  1.00  0.00     0.042 C 
HETATM    8  C16 UNL     1      10.371  23.772  19.948  1.00  0.00     0.133 C 
HETATM    9  C17 UNL     1      10.924  25.006  20.651  1.00  0.00     0.044 C 
HETATM   10  C18 UNL     1      12.253  25.264  19.934  1.00  0.00     0.187 C 
HETATM   11  O5  UNL     1      12.379  26.653  19.646  1.00  0.00    -0.355 OA
HETATM   12  C19 UNL     1      11.571  26.912  18.544  1.00  0.00     0.156 C 
HETATM   13  C20 UNL     1      11.304  28.427  18.587  1.00  0.00     0.078 C 
HETATM   14  C21 UNL     1      12.222  26.637  17.240  1.00  0.00     0.078 C 
HETATM   15  O6  UNL     1      10.352  26.226  18.739  1.00  0.00    -0.355 OA
HETATM   16  C22 UNL     1      10.137  26.203  20.164  1.00  0.00     0.187 C 
HETATM   17  C23 UNL     1      11.024  24.763  22.094  1.00  0.00     0.017 C 
HETATM   18  C24 UNL     1      12.373  24.015  22.269  1.00  0.00     0.026 C 
ENDROOT
BRANCH   4  19
HETATM   19  C5  UNL     1       9.360  23.225  25.023  1.00  0.00     0.072 C 
BRANCH  19  20
HETATM   20  C6  UNL     1       8.669  24.070  26.060  1.00  0.00     0.241 C 
BRANCH  20  21
HETATM   21  N1  UNL     1       8.614  25.469  25.793  1.00  0.00    -0.070 N 
ATOM     22  H13 UNL     1       8.700  25.634  24.791  1.00  0.00     0.274 HD
ATOM     23  H12 UNL     1       7.669  25.815  25.956  1.00  0.00     0.274 HD
ATOM     24  H11 UNL     1       9.286  26.049  26.298  1.00  0.00     0.274 HD
ENDBRANCH  20  21
BRANCH  20  25
HETATM   25  C7  UNL     1       9.502  23.862  27.340  1.00  0.00     0.284 C 
BRANCH  25  26
HETATM   26  O1  UNL     1       9.322  24.987  28.128  1.00  0.00    -0.369 OA
ATOM     27  H1  UNL     1      10.132  25.125  28.604  1.00  0.00     0.212 HD
ENDBRANCH  25  26
BRANCH  25  28
HETATM   28  O2  UNL     1       9.188  22.683  27.959  1.00  0.00    -0.369 OA
ATOM     29  H2  UNL     1       9.867  22.416  28.567  1.00  0.00     0.212 HD
ENDBRANCH  25  28
ENDBRANCH  20  25
ENDBRANCH  19  20
ENDBRANCH   4  19
BRANCH   6  30
HETATM   30  C10 UNL     1       9.378  21.395  22.033  1.00  0.00    -0.010 C 
HETATM   31  C11 UNL     1      10.729  20.873  22.323  1.00  0.00     0.010 C 
BRANCH  30  32
HETATM   32  C12 UNL     1       8.794  20.690  20.816  1.00  0.00     0.007 C 
BRANCH  32  33
HETATM   33  C13 UNL     1       9.352  19.270  20.695  1.00  0.00     0.026 C 
BRANCH  33  34
HETATM   34  C14 UNL     1       8.875  18.690  19.355  1.00  0.00     0.164 C 
BRANCH  34  35
HETATM   35  O3  UNL     1       9.010  17.305  19.381  1.00  0.00    -0.401 OA
ATOM     36  H3  UNL     1       8.536  16.957  20.126  1.00  0.00     0.209 HD
ENDBRANCH  34  35
ENDBRANCH  33  34
ENDBRANCH  32  33
ENDBRANCH  30  32
ENDBRANCH   6  30
BRANCH   8  37
HETATM   37  O4  UNL     1      10.208  24.007  18.610  1.00  0.00    -0.395 OA
ATOM     38  H4  UNL     1      10.805  23.437  18.140  1.00  0.00     0.210 HD
ENDBRANCH   8  37
TORSDOF 12
ENDMDL
MODEL 3
REMARK VINA RESULT: -6.777885873      5.220      8.209
REMARK  12 active torsions:
REMARK  status: ('A' for Active; 'I' for Inactive)
REMARK    1  A    between atoms: C4_4  and  C5_5 
REMARK    2  A    between atoms: C5_5  and  C6_6 
REMARK    3  A    between atoms: C6_6  and  N1_7 
REMARK    4  A    between atoms: C6_6  and  C7_11 
REMARK    5  A    between atoms: C7_11  and  O1_12 
REMARK    6  A    between atoms: C7_11  and  O2_14 
REMARK    7  A    between atoms: C9_17  and  C10_18 
REMARK    8  A    between atoms: C10_18  and  C12_20 
REMARK    9  A    between atoms: C12_20  and  C13_21 
REMARK   10  A    between atoms: C13_21  and  C14_22 
REMARK   11  A    between atoms: C14_22  and  O3_23 
REMARK   12  A    between atoms: C16_26  and  O4_27 
ROOT
HETATM    1  C1  UNL     1      14.750  26.376  22.477  1.00  0.00     0.015 C 
HETATM    2  C2  UNL     1      14.434  26.721  21.311  1.00  0.00    -0.072 C 
HETATM    3  C3  UNL     1      15.117  27.954  20.661  1.00  0.00     0.069 C 
HETATM    4  C4  UNL     1      15.534  27.198  19.449  1.00  0.00    -0.070 C 
HETATM    5  C8  UNL     1      14.626  26.242  19.125  1.00  0.00    -0.059 C 
HETATM    6  C9  UNL     1      14.625  25.271  18.019  1.00  0.00     0.022 C 
HETATM    7  C15 UNL     1      13.687  24.128  18.359  1.00  0.00     0.042 C 
HETATM    8  C16 UNL     1      12.392  24.633  18.924  1.00  0.00     0.133 C 
HETATM    9  C17 UNL     1      12.592  25.266  20.297  1.00  0.00     0.044 C 
HETATM   10  C18 UNL     1      11.178  25.689  20.708  1.00  0.00     0.187 C 
HETATM   11  O5  UNL     1      10.945  25.321  22.063  1.00  0.00    -0.355 OA
HETATM   12  C19 UNL     1      10.691  23.954  22.074  1.00  0.00     0.156 C 
HETATM   13  C20 UNL     1      10.972  23.502  23.518  1.00  0.00     0.078 C 
HETATM   14  C21 UNL     1       9.279  23.600  21.791  1.00  0.00     0.078 C 
HETATM   15  O6  UNL     1      11.626  23.341  21.211  1.00  0.00    -0.355 OA
HETATM   16  C22 UNL     1      12.820  24.146  21.289  1.00  0.00     0.187 C 
HETATM   17  C23 UNL     1      13.575  26.350  20.214  1.00  0.00     0.017 C 
HETATM   18  C24 UNL     1      12.759  27.578  19.728  1.00  0.00     0.026 C 
ENDROOT
BRANCH   4  19
HETATM   19  C5  UNL     1      16.784  27.413  18.702  1.00  0.00     0.072 C 
BRANCH  19  20
HETATM   20  C6  UNL     1      16.741  28.438  17.600  1.00  0.00     0.241 C 
BRANCH  20  21
HETATM   21  N1  UNL     1      17.388  28.076  16.382  1.00  0.00    -0.070 N 
ATOM     22  H13 UNL     1      18.055  28.800  16.115  1.00  0.00     0.274 HD
ATOM     23  H12 UNL     1      18.022  27.294  16.546  1.00  0.00     0.274 HD
ATOM     24  H11 UNL     1      16.775  27.864  15.594  1.00  0.00     0.274 HD
ENDBRANCH  20  21
BRANCH  20  25
HETATM   25  C7  UNL     1      17.478  29.659  18.185  1.00  0.00     0.284 C 
BRANCH  25  26
HETATM   26  O1  UNL     1      18.104  29.237  19.347  1.00  0.00    -0.369 OA
ATOM     27  H1  UNL     1      19.003  29.540  19.304  1.00  0.00     0.212 HD
ENDBRANCH  25  26
BRANCH  25  28
HETATM   28  O2  UNL     1      18.318  30.227  17.267  1.00  0.00    -0.369 OA
ATOM     29  H2  UNL     1      18.173  31.162  17.191  1.00  0.00     0.212 HD
ENDBRANCH  25  28
ENDBRANCH  20  25
ENDBRANCH  19  20
ENDBRANCH   4  19
BRANCH   6  30
HETATM   30  C10 UNL     1      14.488  25.771  16.624  1.00  0.00    -0.010 C 
HETATM   31  C11 UNL     1      13.170  25.723  15.959  1.00  0.00     0.010 C 
BRANCH  30  32
HETATM   32  C12 UNL     1      15.550  25.145  15.729  1.00  0.00     0.007 C 
BRANCH  32  33
HETATM   33  C13 UNL     1      16.654  24.501  16.571  1.00  0.00     0.026 C 
BRANCH  33  34
HETATM   34  C14 UNL     1      17.917  24.409  15.701  1.00  0.00     0.164 C 
BRANCH  34  35
HETATM   35  O3  UNL     1      18.798  25.424  16.063  1.00  0.00    -0.401 OA
ATOM     36  H3  UNL     1      19.315  25.674  15.307  1.00  0.00     0.209 HD
ENDBRANCH  34  35
ENDBRANCH  33  34
ENDBRANCH  32  33
ENDBRANCH  30  32
ENDBRANCH   6  30
BRANCH   8  37
HETATM   37  O4  UNL     1      11.527  23.575  18.998  1.00  0.00    -0.395 OA
ATOM     38  H4  UNL     1      10.943  23.728  19.732  1.00  0.00     0.210 HD
ENDBRANCH   8  37
TORSDOF 12
ENDMDL
MODEL 4
REMARK VINA RESULT: -6.632896856      4.529      7.439
REMARK  12 active torsions:
REMARK  status: ('A' for Active; 'I' for Inactive)
REMARK    1  A    between atoms: C4_4  and  C5_5 
REMARK    2  A    between atoms: C5_5  and  C6_6 
REMARK    3  A    between atoms: C6_6  and  N1_7 
REMARK    4  A    between atoms: C6_6  and  C7_11 
REMARK    5  A    between atoms: C7_11  and  O1_12 
REMARK    6  A    between atoms: C7_11  and  O2_14 
REMARK    7  A    between atoms: C9_17  and  C10_18 
REMARK    8  A    between atoms: C10_18  and  C12_20 
REMARK    9  A    between atoms: C12_20  and  C13_21 
REMARK   10  A    between atoms: C13_21  and  C14_22 
REMARK   11  A    between atoms: C14_22  and  O3_23 
REMARK   12  A    between atoms: C16_26  and  O4_27 
ROOT
HETATM    1  C1  UNL     1      13.058  25.945  23.560  1.00  0.00     0.015 C 
HETATM    2  C2  UNL     1      13.083  26.421  22.398  1.00  0.00    -0.072 C 
HETATM    3  C3  UNL     1      13.791  27.776  22.136  1.00  0.00     0.069 C 
HETATM    4  C4  UNL     1      14.645  27.225  21.049  1.00  0.00    -0.070 C 
HETATM    5  C8  UNL     1      13.995  26.257  20.352  1.00  0.00    -0.059 C 
HETATM    6  C9  UNL     1      14.445  25.448  19.208  1.00  0.00     0.022 C 
HETATM    7  C15 UNL     1      13.582  24.205  19.106  1.00  0.00     0.042 C 
HETATM    8  C16 UNL     1      12.127  24.533  19.275  1.00  0.00     0.133 C 
HETATM    9  C17 UNL     1      11.820  24.987  20.698  1.00  0.00     0.044 C 
HETATM   10  C18 UNL     1      10.311  25.247  20.675  1.00  0.00     0.187 C 
HETATM   11  O5  UNL     1       9.711  24.683  21.837  1.00  0.00    -0.355 OA
HETATM   12  C19 UNL     1       9.621  23.313  21.621  1.00  0.00     0.156 C 
HETATM   13  C20 UNL     1       9.489  22.691  23.023  1.00  0.00     0.078 C 
HETATM   14  C21 UNL     1       8.415  22.899  20.863  1.00  0.00     0.078 C 
HETATM   15  O6  UNL     1      10.839  22.891  21.045  1.00  0.00    -0.355 OA
HETATM   16  C22 UNL     1      11.853  23.763  21.586  1.00  0.00     0.187 C 
HETATM   17  C23 UNL     1      12.653  26.141  21.050  1.00  0.00     0.017 C 
HETATM   18  C24 UNL     1      11.896  27.361  20.460  1.00  0.00     0.026 C 
ENDROOT
BRANCH   4  19
HETATM   19  C5  UNL     1      16.033  27.628  20.771  1.00  0.00     0.072 C 
BRANCH  19  20
HETATM   20  C6  UNL     1      16.225  28.980  20.136  1.00  0.00     0.241 C 
BRANCH  20  21
HETATM   21  N1  UNL     1      15.057  29.587  19.588  1.00  0.00    -0.070 N 
ATOM     22  H13 UNL     1      14.556  28.914  19.009  1.00  0.00     0.274 HD
ATOM     23  H12 UNL     1      14.370  29.742  20.326  1.00  0.00     0.274 HD
ATOM     24  H11 UNL     1      15.204  30.451  19.065  1.00  0.00     0.274 HD
ENDBRANCH  20  21
BRANCH  20  25
HETATM   25  C7  UNL     1      17.213  28.722  18.981  1.00  0.00     0.284 C 
BRANCH  25  26
HETATM   26  O1  UNL     1      18.163  29.729  19.027  1.00  0.00    -0.369 OA
ATOM     27  H1  UNL     1      18.845  29.497  18.408  1.00  0.00     0.212 HD
ENDBRANCH  25  26
BRANCH  25  28
HETATM   28  O2  UNL     1      17.729  27.457  19.033  1.00  0.00    -0.369 OA
ATOM     29  H2  UNL     1      18.315  27.287  18.305  1.00  0.00     0.212 HD
ENDBRANCH  25  28
ENDBRANCH  20  25
ENDBRANCH  19  20
ENDBRANCH   4  19
BRANCH   6  30
HETATM   30  C10 UNL     1      14.692  26.121  17.905  1.00  0.00    -0.010 C 
HETATM   31  C11 UNL     1      13.790  27.203  17.461  1.00  0.00     0.010 C 
BRANCH  30  32
HETATM   32  C12 UNL     1      14.857  25.089  16.797  1.00  0.00     0.007 C 
BRANCH  32  33
HETATM   33  C13 UNL     1      16.237  25.209  16.147  1.00  0.00     0.026 C 
BRANCH  33  34
HETATM   34  C14 UNL     1      17.243  24.462  17.037  1.00  0.00     0.164 C 
BRANCH  34  35
HETATM   35  O3  UNL     1      18.338  25.285  17.283  1.00  0.00    -0.401 OA
ATOM     36  H3  UNL     1      19.109  24.748  17.417  1.00  0.00     0.209 HD
ENDBRANCH  34  35
ENDBRANCH  33  34
ENDBRANCH  32  33
ENDBRANCH  30  32
ENDBRANCH   6  30
BRANCH   8  37
HETATM   37  O4  UNL     1      11.406  23.415  18.955  1.00  0.00    -0.395 OA
ATOM     38  H4  UNL     1      11.918  22.657  19.211  1.00  0.00     0.210 HD
ENDBRANCH   8  37
TORSDOF 12
ENDMDL
MODEL 5
REMARK VINA RESULT: -6.589029166      6.594      9.714
REMARK  12 active torsions:
REMARK  status: ('A' for Active; 'I' for Inactive)
REMARK    1  A    between atoms: C4_4  and  C5_5 
REMARK    2  A    between atoms: C5_5  and  C6_6 
REMARK    3  A    between atoms: C6_6  and  N1_7 
REMARK    4  A    between atoms: C6_6  and  C7_11 
REMARK    5  A    between atoms: C7_11  and  O1_12 
REMARK    6  A    between atoms: C7_11  and  O2_14 
REMARK    7  A    between atoms: C9_17  and  C10_18 
REMARK    8  A    between atoms: C10_18  and  C12_20 
REMARK    9  A    between atoms: C12_20  and  C13_21 
REMARK   10  A    between atoms: C13_21  and  C14_22 
REMARK   11  A    between atoms: C14_22  and  O3_23 
REMARK   12  A    between atoms: C16_26  and  O4_27 
ROOT
HETATM    1  C1  UNL     1      12.158  27.780  17.940  1.00  0.00     0.015 C 
HETATM    2  C2  UNL     1      12.912  26.775  17.910  1.00  0.00    -0.072 C 
HETATM    3  C3  UNL     1      12.379  25.429  17.352  1.00  0.00     0.069 C 
HETATM    4  C4  UNL     1      13.498  25.281  16.383  1.00  0.00    -0.070 C 
HETATM    5  C8  UNL     1      14.652  25.800  16.877  1.00  0.00    -0.059 C 
HETATM    6  C9  UNL     1      15.993  25.873  16.275  1.00  0.00     0.022 C 
HETATM    7  C15 UNL     1      16.798  26.949  16.980  1.00  0.00     0.042 C 
HETATM    8  C16 UNL     1      16.641  26.862  18.470  1.00  0.00     0.133 C 
HETATM    9  C17 UNL     1      15.225  27.226  18.903  1.00  0.00     0.044 C 
HETATM   10  C18 UNL     1      15.273  27.103  20.429  1.00  0.00     0.187 C 
HETATM   11  O5  UNL     1      14.625  28.225  21.019  1.00  0.00    -0.355 OA
HETATM   12  C19 UNL     1      15.510  29.294  20.935  1.00  0.00     0.156 C 
HETATM   13  C20 UNL     1      14.635  30.554  21.067  1.00  0.00     0.078 C 
HETATM   14  C21 UNL     1      16.495  29.349  22.043  1.00  0.00     0.078 C 
HETATM   15  O6  UNL     1      16.088  29.269  19.647  1.00  0.00    -0.355 OA
HETATM   16  C22 UNL     1      15.077  28.726  18.773  1.00  0.00     0.187 C 
HETATM   17  C23 UNL     1      14.254  26.357  18.231  1.00  0.00     0.017 C 
HETATM   18  C24 UNL     1      14.225  25.066  19.094  1.00  0.00     0.026 C 
ENDROOT
BRANCH   4  19
HETATM   19  C5  UNL     1      13.387  24.690  15.040  1.00  0.00     0.072 C 
BRANCH  19  20
HETATM   20  C6  UNL     1      12.869  25.591  13.950  1.00  0.00     0.241 C 
BRANCH  20  21
HETATM   21  N1  UNL     1      11.484  25.459  13.633  1.00  0.00    -0.070 N 
ATOM     22  H13 UNL     1      11.375  24.907  12.783  1.00  0.00     0.274 HD
ATOM     23  H12 UNL     1      11.032  24.846  14.311  1.00  0.00     0.274 HD
ATOM     24  H11 UNL     1      10.959  26.330  13.550  1.00  0.00     0.274 HD
ENDBRANCH  20  21
BRANCH  20  25
HETATM   25  C7  UNL     1      13.682  25.189  12.704  1.00  0.00     0.284 C 
BRANCH  25  26
HETATM   26  O1  UNL     1      14.938  25.758  12.839  1.00  0.00    -0.369 OA
ATOM     27  H1  UNL     1      15.273  25.903  11.962  1.00  0.00     0.212 HD
ENDBRANCH  25  26
BRANCH  25  28
HETATM   28  O2  UNL     1      13.693  23.834  12.526  1.00  0.00    -0.369 OA
ATOM     29  H2  UNL     1      14.222  23.399  13.184  1.00  0.00     0.212 HD
ENDBRANCH  25  28
ENDBRANCH  20  25
ENDBRANCH  19  20
ENDBRANCH   4  19
BRANCH   6  30
HETATM   30  C10 UNL     1      16.745  24.611  16.040  1.00  0.00    -0.010 C 
HETATM   31  C11 UNL     1      17.470  23.976  17.160  1.00  0.00     0.010 C 
BRANCH  30  32
HETATM   32  C12 UNL     1      17.667  24.759  14.836  1.00  0.00     0.007 C 
BRANCH  32  33
HETATM   33  C13 UNL     1      18.818  23.753  14.911  1.00  0.00     0.026 C 
BRANCH  33  34
HETATM   34  C14 UNL     1      20.106  24.481  14.499  1.00  0.00     0.164 C 
BRANCH  34  35
HETATM   35  O3  UNL     1      21.180  23.599  14.586  1.00  0.00    -0.401 OA
ATOM     36  H3  UNL     1      20.893  22.730  14.334  1.00  0.00     0.209 HD
ENDBRANCH  34  35
ENDBRANCH  33  34
ENDBRANCH  32  33
ENDBRANCH  30  32
ENDBRANCH   6  30
BRANCH   8  37
HETATM   37  O4  UNL     1      17.555  27.709  19.037  1.00  0.00    -0.395 OA
ATOM     38  H4  UNL     1      17.503  28.540  18.580  1.00  0.00     0.210 HD
ENDBRANCH   8  37
TORSDOF 12
ENDMDL
