MODEL 1
REMARK VINA RESULT: -6.498394113      0.000      0.000
REMARK  10 active torsions:
REMARK  status: ('A' for Active; 'I' for Inactive)
REMARK    1  A    between atoms: S1_2  and  C2_3 
REMARK       I    between atoms: C2_3  and  N1_5 
REMARK    2  A    between atoms: N1_5  and  C3_7 
REMARK    3  A    between atoms: C11_16  and  C12_17 
REMARK    4  A    between atoms: C12_17  and  O2_18 
REMARK    5  A    between atoms: C12_17  and  N2_20 
REMARK    6  A    between atoms: N2_20  and  C13_22 
REMARK    7  A    between atoms: C13_22  and  C14_23 
REMARK       I    between atoms: C14_23  and  N3_25 
REMARK    8  A    between atoms: N3_25  and  C15_27 
REMARK    9  A    between atoms: C15_27  and  C16_28 
REMARK   10  A    between atoms: C19_31  and  O4_32 
ROOT
HETATM    1  C3  UNL     1      11.104  22.443  21.674  1.00  0.00     0.119 C 
HETATM    2  C4  UNL     1      10.697  22.788  23.056  1.00  0.00     0.028 C 
HETATM    3  C5  UNL     1       9.434  23.514  23.255  1.00  0.00     0.002 C 
HETATM    4  C6  UNL     1       9.281  24.245  24.550  1.00  0.00     0.000 C 
HETATM    5  C7  UNL     1      10.492  24.513  25.342  1.00  0.00     0.000 C 
HETATM    6  C8  UNL     1      11.488  25.488  24.941  1.00  0.00     0.001 C 
HETATM    7  C9  UNL     1      11.217  26.412  23.810  1.00  0.00     0.010 C 
HETATM    8  C10 UNL     1      12.381  26.493  22.820  1.00  0.00     0.079 C 
HETATM    9  S2  UNL     1      12.945  24.914  22.255  1.00  0.00    -0.127 SA
HETATM   10  C11 UNL     1      12.338  24.399  20.639  1.00  0.00     0.059 C 
HETATM   11  C19 UNL     1      11.136  23.527  20.641  1.00  0.00     0.184 C 
ENDROOT
BRANCH  10  12
HETATM   12  C12 UNL     1      12.488  25.441  19.595  1.00  0.00     0.151 C 
BRANCH  12  13
HETATM   13  O2  UNL     1      13.824  25.870  19.451  1.00  0.00    -0.345 OA
ATOM     14  H2  UNL     1      14.065  26.004  18.542  1.00  0.00     0.219 HD
ENDBRANCH  12  13
BRANCH  12  15
HETATM   15  N2  UNL     1      11.900  25.356  18.340  1.00  0.00    -0.361 N 
ATOM     16  H2  UNL     1      11.364  24.511  18.144  1.00  0.00     0.162 HD
BRANCH  15  17
HETATM   17  C13 UNL     1      11.964  26.294  17.331  1.00  0.00     0.224 C 
BRANCH  17  18
HETATM   18  C14 UNL     1      12.809  25.748  16.161  1.00  0.00     0.238 C 
HETATM   19  O3  UNL     1      12.157  25.495  15.142  1.00  0.00    -0.271 OA
HETATM   20  N3  UNL     1      14.172  25.587  16.331  1.00  0.00    -0.339 N 
ATOM     21  H3  UNL     1      14.507  25.836  17.263  1.00  0.00     0.167 HD
BRANCH  20  22
HETATM   22  C15 UNL     1      15.182  25.147  15.461  1.00  0.00     0.068 C 
BRANCH  22  23
HETATM   23  C16 UNL     1      16.561  25.090  15.974  1.00  0.00     0.016 C 
HETATM   24  C17 UNL     1      16.780  24.475  17.300  1.00  0.00     0.015 C 
HETATM   25  C18 UNL     1      17.426  24.373  14.912  1.00  0.00     0.015 C 
ENDBRANCH  22  23
ENDBRANCH  20  22
ENDBRANCH  17  18
ENDBRANCH  15  17
ENDBRANCH  12  15
ENDBRANCH  10  12
BRANCH  11  26
HETATM   26  O4  UNL     1      11.068  22.917  19.351  1.00  0.00    -0.388 OA
ATOM     27  H4  UNL     1      11.467  23.506  18.722  1.00  0.00     0.210 HD
ENDBRANCH  11  26
BRANCH   1  28
HETATM   28  N1  UNL     1      10.291  21.312  21.249  1.00  0.00    -0.344 N 
HETATM   29  C2  UNL     1      10.435  20.007  21.736  1.00  0.00     0.279 C 
HETATM   30  O1  UNL     1      11.311  19.764  22.595  1.00  0.00    -0.260 OA
ATOM     31  H1  UNL     1       9.568  21.483  20.551  1.00  0.00     0.163 HD
BRANCH  29  32
HETATM   32  S1  UNL     1       9.396  18.696  21.153  1.00  0.00    -0.074 SA
HETATM   33  C1  UNL     1       8.854  18.952  19.457  1.00  0.00     0.100 C 
ENDBRANCH  29  32
ENDBRANCH   1  28
TORSDOF 10
ENDMDL
MODEL 2
REMARK VINA RESULT: -6.482246162      1.428      1.797
REMARK  10 active torsions:
REMARK  status: ('A' for Active; 'I' for Inactive)
REMARK    1  A    between atoms: S1_2  and  C2_3 
REMARK       I    between atoms: C2_3  and  N1_5 
REMARK    2  A    between atoms: N1_5  and  C3_7 
REMARK    3  A    between atoms: C11_16  and  C12_17 
REMARK    4  A    between atoms: C12_17  and  O2_18 
REMARK    5  A    between atoms: C12_17  and  N2_20 
REMARK    6  A    between atoms: N2_20  and  C13_22 
REMARK    7  A    between atoms: C13_22  and  C14_23 
REMARK       I    between atoms: C14_23  and  N3_25 
REMARK    8  A    between atoms: N3_25  and  C15_27 
REMARK    9  A    between atoms: C15_27  and  C16_28 
REMARK   10  A    between atoms: C19_31  and  O4_32 
ROOT
HETATM    1  C3  UNL     1      11.099  22.428  21.710  1.00  0.00     0.119 C 
HETATM    2  C4  UNL     1      10.652  22.774  23.079  1.00  0.00     0.028 C 
HETATM    3  C5  UNL     1       9.408  23.540  23.239  1.00  0.00     0.002 C 
HETATM    4  C6  UNL     1       9.231  24.263  24.536  1.00  0.00     0.000 C 
HETATM    5  C7  UNL     1      10.421  24.481  25.376  1.00  0.00     0.000 C 
HETATM    6  C8  UNL     1      11.463  25.425  25.023  1.00  0.00     0.001 C 
HETATM    7  C9  UNL     1      11.267  26.370  23.893  1.00  0.00     0.010 C 
HETATM    8  C10 UNL     1      12.469  26.421  22.948  1.00  0.00     0.079 C 
HETATM    9  S2  UNL     1      13.000  24.829  22.387  1.00  0.00    -0.127 SA
HETATM   10  C11 UNL     1      12.437  24.351  20.744  1.00  0.00     0.059 C 
HETATM   11  C19 UNL     1      11.207  23.521  20.691  1.00  0.00     0.184 C 
ENDROOT
BRANCH  10  12
HETATM   12  C12 UNL     1      12.661  25.398  19.718  1.00  0.00     0.151 C 
BRANCH  12  13
HETATM   13  O2  UNL     1      11.539  26.238  19.554  1.00  0.00    -0.345 OA
ATOM     14  H2  UNL     1      10.909  25.883  18.938  1.00  0.00     0.219 HD
ENDBRANCH  12  13
BRANCH  12  15
HETATM   15  N2  UNL     1      13.817  26.163  19.645  1.00  0.00    -0.361 N 
ATOM     16  H2  UNL     1      14.329  26.301  20.517  1.00  0.00     0.162 HD
BRANCH  15  17
HETATM   17  C13 UNL     1      14.347  26.758  18.519  1.00  0.00     0.224 C 
BRANCH  17  18
HETATM   18  C14 UNL     1      15.767  26.214  18.259  1.00  0.00     0.238 C 
HETATM   19  O3  UNL     1      16.659  26.825  18.858  1.00  0.00    -0.271 OA
HETATM   20  N3  UNL     1      15.931  25.131  17.413  1.00  0.00    -0.339 N 
ATOM     21  H3  UNL     1      15.061  24.790  17.003  1.00  0.00     0.167 HD
BRANCH  20  22
HETATM   22  C15 UNL     1      17.070  24.415  17.014  1.00  0.00     0.068 C 
BRANCH  22  23
HETATM   23  C16 UNL     1      17.647  24.715  15.693  1.00  0.00     0.016 C 
HETATM   24  C17 UNL     1      18.609  23.749  15.124  1.00  0.00     0.015 C 
HETATM   25  C18 UNL     1      16.474  24.930  14.709  1.00  0.00     0.015 C 
ENDBRANCH  22  23
ENDBRANCH  20  22
ENDBRANCH  17  18
ENDBRANCH  15  17
ENDBRANCH  12  15
ENDBRANCH  10  12
BRANCH  11  26
HETATM   26  O4  UNL     1      11.167  22.927  19.392  1.00  0.00    -0.388 OA
ATOM     27  H4  UNL     1      11.306  23.610  18.748  1.00  0.00     0.210 HD
ENDBRANCH  11  26
BRANCH   1  28
HETATM   28  N1  UNL     1      10.264  21.331  21.242  1.00  0.00    -0.344 N 
HETATM   29  C2  UNL     1      10.390  20.003  21.670  1.00  0.00     0.279 C 
HETATM   30  O1  UNL     1      11.267  19.709  22.512  1.00  0.00    -0.260 OA
ATOM     31  H1  UNL     1       9.540  21.544  20.557  1.00  0.00     0.163 HD
BRANCH  29  32
HETATM   32  S1  UNL     1       9.326  18.737  21.038  1.00  0.00    -0.074 SA
HETATM   33  C1  UNL     1       8.689  19.127  19.401  1.00  0.00     0.100 C 
ENDBRANCH  29  32
ENDBRANCH   1  28
TORSDOF 10
ENDMDL
MODEL 3
REMARK VINA RESULT: -6.469768706      3.377      6.127
REMARK  10 active torsions:
REMARK  status: ('A' for Active; 'I' for Inactive)
REMARK    1  A    between atoms: S1_2  and  C2_3 
REMARK       I    between atoms: C2_3  and  N1_5 
REMARK    2  A    between atoms: N1_5  and  C3_7 
REMARK    3  A    between atoms: C11_16  and  C12_17 
REMARK    4  A    between atoms: C12_17  and  O2_18 
REMARK    5  A    between atoms: C12_17  and  N2_20 
REMARK    6  A    between atoms: N2_20  and  C13_22 
REMARK    7  A    between atoms: C13_22  and  C14_23 
REMARK       I    between atoms: C14_23  and  N3_25 
REMARK    8  A    between atoms: N3_25  and  C15_27 
REMARK    9  A    between atoms: C15_27  and  C16_28 
REMARK   10  A    between atoms: C19_31  and  O4_32 
ROOT
HETATM    1  C3  UNL     1      10.956  25.095  23.550  1.00  0.00     0.119 C 
HETATM    2  C4  UNL     1      12.128  25.871  24.021  1.00  0.00     0.028 C 
HETATM    3  C5  UNL     1      12.171  27.314  23.746  1.00  0.00     0.002 C 
HETATM    4  C6  UNL     1      13.517  27.963  23.799  1.00  0.00     0.000 C 
HETATM    5  C7  UNL     1      14.707  27.099  23.733  1.00  0.00     0.000 C 
HETATM    6  C8  UNL     1      15.112  26.419  22.518  1.00  0.00     0.001 C 
HETATM    7  C9  UNL     1      14.453  26.739  21.226  1.00  0.00     0.010 C 
HETATM    8  C10 UNL     1      14.046  25.489  20.444  1.00  0.00     0.079 C 
HETATM    9  S2  UNL     1      13.101  24.333  21.393  1.00  0.00    -0.127 SA
HETATM   10  C11 UNL     1      11.318  24.388  21.144  1.00  0.00     0.059 C 
HETATM   11  C19 UNL     1      10.548  25.209  22.113  1.00  0.00     0.184 C 
ENDROOT
BRANCH  10  12
HETATM   12  C12 UNL     1      10.923  24.377  19.715  1.00  0.00     0.151 C 
BRANCH  12  13
HETATM   13  O2  UNL     1      11.413  23.245  19.031  1.00  0.00    -0.345 OA
ATOM     14  H2  UNL     1      11.088  23.192  18.140  1.00  0.00     0.219 HD
ENDBRANCH  12  13
BRANCH  12  15
HETATM   15  N2  UNL     1       9.636  24.652  19.275  1.00  0.00    -0.361 N 
ATOM     16  H2  UNL     1       9.237  25.546  19.561  1.00  0.00     0.162 HD
BRANCH  15  17
HETATM   17  C13 UNL     1       8.838  23.844  18.492  1.00  0.00     0.224 C 
BRANCH  17  18
HETATM   18  C14 UNL     1       8.228  22.718  19.354  1.00  0.00     0.238 C 
HETATM   19  O3  UNL     1       7.300  23.085  20.082  1.00  0.00    -0.271 OA
HETATM   20  N3  UNL     1       8.743  21.438  19.253  1.00  0.00    -0.339 N 
ATOM     21  H3  UNL     1       9.528  21.355  18.606  1.00  0.00     0.167 HD
BRANCH  20  22
HETATM   22  C15 UNL     1       8.387  20.231  19.876  1.00  0.00     0.068 C 
BRANCH  22  23
HETATM   23  C16 UNL     1       9.437  19.215  20.064  1.00  0.00     0.016 C 
HETATM   24  C17 UNL     1       9.653  18.689  21.428  1.00  0.00     0.015 C 
HETATM   25  C18 UNL     1       9.138  18.049  19.093  1.00  0.00     0.015 C 
ENDBRANCH  22  23
ENDBRANCH  20  22
ENDBRANCH  17  18
ENDBRANCH  15  17
ENDBRANCH  12  15
ENDBRANCH  10  12
BRANCH  11  26
HETATM   26  O4  UNL     1       9.183  24.804  22.003  1.00  0.00    -0.388 OA
ATOM     27  H4  UNL     1       9.162  23.867  21.853  1.00  0.00     0.210 HD
ENDBRANCH  11  26
BRANCH   1  28
HETATM   28  N1  UNL     1       9.851  25.385  24.452  1.00  0.00    -0.344 N 
HETATM   29  C2  UNL     1       9.340  24.482  25.393  1.00  0.00     0.279 C 
HETATM   30  O1  UNL     1       9.847  23.342  25.490  1.00  0.00    -0.260 OA
ATOM     31  H1  UNL     1       9.421  26.308  24.396  1.00  0.00     0.163 HD
BRANCH  29  32
HETATM   32  S1  UNL     1       7.988  24.929  26.445  1.00  0.00    -0.074 SA
HETATM   33  C1  UNL     1       8.515  25.287  28.128  1.00  0.00     0.100 C 
ENDBRANCH  29  32
ENDBRANCH   1  28
TORSDOF 10
ENDMDL
MODEL 4
REMARK VINA RESULT: -6.417931805      2.724      6.901
REMARK  10 active torsions:
REMARK  status: ('A' for Active; 'I' for Inactive)
REMARK    1  A    between atoms: S1_2  and  C2_3 
REMARK       I    between atoms: C2_3  and  N1_5 
REMARK    2  A    between atoms: N1_5  and  C3_7 
REMARK    3  A    between atoms: C11_16  and  C12_17 
REMARK    4  A    between atoms: C12_17  and  O2_18 
REMARK    5  A    between atoms: C12_17  and  N2_20 
REMARK    6  A    between atoms: N2_20  and  C13_22 
REMARK    7  A    between atoms: C13_22  and  C14_23 
REMARK       I    between atoms: C14_23  and  N3_25 
REMARK    8  A    between atoms: N3_25  and  C15_27 
REMARK    9  A    between atoms: C15_27  and  C16_28 
REMARK   10  A    between atoms: C19_31  and  O4_32 
ROOT
HETATM    1  C3  UNL     1      12.344  25.606  18.761  1.00  0.00     0.119 C 
HETATM    2  C4  UNL     1      13.466  26.556  18.947  1.00  0.00     0.028 C 
HETATM    3  C5  UNL     1      14.841  26.038  18.886  1.00  0.00     0.002 C 
HETATM    4  C6  UNL     1      15.899  26.880  19.524  1.00  0.00     0.000 C 
HETATM    5  C7  UNL     1      15.476  27.925  20.471  1.00  0.00     0.000 C 
HETATM    6  C8  UNL     1      14.961  27.620  21.792  1.00  0.00     0.001 C 
HETATM    7  C9  UNL     1      15.036  26.235  22.323  1.00  0.00     0.010 C 
HETATM    8  C10 UNL     1      13.716  25.764  22.938  1.00  0.00     0.079 C 
HETATM    9  S2  UNL     1      12.319  25.984  21.874  1.00  0.00    -0.127 SA
HETATM   10  C11 UNL     1      11.780  24.517  20.979  1.00  0.00     0.059 C 
HETATM   11  C19 UNL     1      12.306  24.364  19.599  1.00  0.00     0.184 C 
ENDROOT
BRANCH  10  12
HETATM   12  C12 UNL     1      11.629  23.322  21.843  1.00  0.00     0.151 C 
BRANCH  12  13
HETATM   13  O2  UNL     1      12.748  23.119  22.679  1.00  0.00    -0.345 OA
ATOM     14  H2  UNL     1      12.502  22.817  23.545  1.00  0.00     0.219 HD
ENDBRANCH  12  13
BRANCH  12  15
HETATM   15  N2  UNL     1      10.472  23.033  22.554  1.00  0.00    -0.361 N 
ATOM     16  H2  UNL     1      10.594  22.572  23.456  1.00  0.00     0.162 HD
BRANCH  15  17
HETATM   17  C13 UNL     1       9.175  23.301  22.169  1.00  0.00     0.224 C 
BRANCH  17  18
HETATM   18  C14 UNL     1       8.825  22.489  20.905  1.00  0.00     0.238 C 
HETATM   19  O3  UNL     1       8.464  23.178  19.946  1.00  0.00    -0.271 OA
HETATM   20  N3  UNL     1       8.936  21.110  20.937  1.00  0.00    -0.339 N 
ATOM     21  H3  UNL     1       9.232  20.738  21.840  1.00  0.00     0.167 HD
BRANCH  20  22
HETATM   22  C15 UNL     1       8.718  20.128  19.959  1.00  0.00     0.068 C 
BRANCH  22  23
HETATM   23  C16 UNL     1       9.062  18.735  20.290  1.00  0.00     0.016 C 
HETATM   24  C17 UNL     1       9.376  17.817  19.175  1.00  0.00     0.015 C 
HETATM   25  C18 UNL     1      10.239  18.769  21.291  1.00  0.00     0.015 C 
ENDBRANCH  22  23
ENDBRANCH  20  22
ENDBRANCH  17  18
ENDBRANCH  15  17
ENDBRANCH  12  15
ENDBRANCH  10  12
BRANCH  11  26
HETATM   26  O4  UNL     1      11.471  23.408  18.943  1.00  0.00    -0.388 OA
ATOM     27  H4  UNL     1      12.020  22.860  18.395  1.00  0.00     0.210 HD
ENDBRANCH  11  26
BRANCH   1  28
HETATM   28  N1  UNL     1      12.257  25.305  17.340  1.00  0.00    -0.344 N 
HETATM   29  C2  UNL     1      11.427  25.981  16.437  1.00  0.00     0.279 C 
HETATM   30  O1  UNL     1      10.700  26.912  16.848  1.00  0.00    -0.260 OA
ATOM     31  H1  UNL     1      12.841  24.551  16.977  1.00  0.00     0.163 HD
BRANCH  29  32
HETATM   32  S1  UNL     1      11.391  25.536  14.723  1.00  0.00    -0.074 SA
HETATM   33  C1  UNL     1      12.755  24.458  14.263  1.00  0.00     0.100 C 
ENDBRANCH  29  32
ENDBRANCH   1  28
TORSDOF 10
ENDMDL
MODEL 5
REMARK VINA RESULT: -6.414567263      2.872      7.327
REMARK  10 active torsions:
REMARK  status: ('A' for Active; 'I' for Inactive)
REMARK    1  A    between atoms: S1_2  and  C2_3 
REMARK       I    between atoms: C2_3  and  N1_5 
REMARK    2  A    between atoms: N1_5  and  C3_7 
REMARK    3  A    between atoms: C11_16  and  C12_17 
REMARK    4  A    between atoms: C12_17  and  O2_18 
REMARK    5  A    between atoms: C12_17  and  N2_20 
REMARK    6  A    between atoms: N2_20  and  C13_22 
REMARK    7  A    between atoms: C13_22  and  C14_23 
REMARK       I    between atoms: C14_23  and  N3_25 
REMARK    8  A    between atoms: N3_25  and  C15_27 
REMARK    9  A    between atoms: C15_27  and  C16_28 
REMARK   10  A    between atoms: C19_31  and  O4_32 
ROOT
HETATM    1  C3  UNL     1      13.230  25.651  17.909  1.00  0.00     0.119 C 
HETATM    2  C4  UNL     1      14.485  26.435  17.831  1.00  0.00     0.028 C 
HETATM    3  C5  UNL     1      15.762  25.739  18.044  1.00  0.00     0.002 C 
HETATM    4  C6  UNL     1      16.931  26.591  18.423  1.00  0.00     0.000 C 
HETATM    5  C7  UNL     1      16.665  27.950  18.924  1.00  0.00     0.000 C 
HETATM    6  C8  UNL     1      16.091  28.202  20.231  1.00  0.00     0.001 C 
HETATM    7  C9  UNL     1      15.941  27.095  21.209  1.00  0.00     0.010 C 
HETATM    8  C10 UNL     1      14.556  27.062  21.858  1.00  0.00     0.079 C 
HETATM    9  S2  UNL     1      13.225  27.093  20.694  1.00  0.00    -0.127 SA
HETATM   10  C11 UNL     1      12.474  25.498  20.322  1.00  0.00     0.059 C 
HETATM   11  C19 UNL     1      12.987  24.799  19.117  1.00  0.00     0.184 C 
ENDROOT
BRANCH  10  12
HETATM   12  C12 UNL     1      12.126  24.715  21.533  1.00  0.00     0.151 C 
BRANCH  12  13
HETATM   13  O2  UNL     1      10.986  25.222  22.192  1.00  0.00    -0.345 OA
ATOM     14  H2  UNL     1      10.181  25.009  21.736  1.00  0.00     0.219 HD
ENDBRANCH  12  13
BRANCH  12  15
HETATM   15  N2  UNL     1      12.089  23.328  21.561  1.00  0.00    -0.361 N 
ATOM     16  H2  UNL     1      12.878  22.841  21.135  1.00  0.00     0.162 HD
BRANCH  15  17
HETATM   17  C13 UNL     1      11.098  22.537  22.105  1.00  0.00     0.224 C 
BRANCH  17  18
HETATM   18  C14 UNL     1      10.105  22.111  21.003  1.00  0.00     0.238 C 
HETATM   19  O3  UNL     1       9.663  23.050  20.331  1.00  0.00    -0.271 OA
HETATM   20  N3  UNL     1       9.796  20.771  20.854  1.00  0.00    -0.339 N 
ATOM     21  H3  UNL     1      10.256  20.161  21.531  1.00  0.00     0.167 HD
BRANCH  20  22
HETATM   22  C15 UNL     1       8.967  20.093  19.946  1.00  0.00     0.068 C 
BRANCH  22  23
HETATM   23  C16 UNL     1       8.991  18.621  19.956  1.00  0.00     0.016 C 
HETATM   24  C17 UNL     1       9.174  17.925  18.665  1.00  0.00     0.015 C 
HETATM   25  C18 UNL     1      10.086  18.177  20.952  1.00  0.00     0.015 C 
ENDBRANCH  22  23
ENDBRANCH  20  22
ENDBRANCH  17  18
ENDBRANCH  15  17
ENDBRANCH  12  15
ENDBRANCH  10  12
BRANCH  11  26
HETATM   26  O4  UNL     1      12.022  23.803  18.775  1.00  0.00    -0.388 OA
ATOM     27  H4  UNL     1      11.752  23.364  19.573  1.00  0.00     0.210 HD
ENDBRANCH  11  26
BRANCH   1  28
HETATM   28  N1  UNL     1      13.116  24.887  16.675  1.00  0.00    -0.344 N 
HETATM   29  C2  UNL     1      12.598  25.394  15.476  1.00  0.00     0.279 C 
HETATM   30  O1  UNL     1      12.201  26.579  15.430  1.00  0.00    -0.260 OA
ATOM     31  H1  UNL     1      13.435  23.919  16.684  1.00  0.00     0.163 HD
BRANCH  29  32
HETATM   32  S1  UNL     1      12.498  24.382  14.026  1.00  0.00    -0.074 SA
HETATM   33  C1  UNL     1      11.790  25.258  12.623  1.00  0.00     0.100 C 
ENDBRANCH  29  32
ENDBRANCH   1  28
TORSDOF 10
ENDMDL
