MODEL 1
REMARK VINA RESULT: -7.109772182      0.000      0.000
REMARK  12 active torsions:
REMARK  status: ('A' for Active; 'I' for Inactive)
REMARK    1  A    between atoms: C2_2  and  C3_3 
REMARK    2  A    between atoms: C2_2  and  C17_19 
REMARK    3  A    between atoms: C3_3  and  C4_4 
REMARK    4  A    between atoms: C4_4  and  C5_5 
REMARK    5  A    between atoms: C11_11  and  O1_12 
REMARK    6  A    between atoms: C17_19  and  N1_20 
REMARK    7  A    between atoms: C20_23  and  N2_24 
REMARK    8  A    between atoms: C21_28  and  O2_29 
REMARK    9  A    between atoms: C21_28  and  C22_31 
REMARK   10  A    between atoms: C22_31  and  O3_32 
REMARK   11  A    between atoms: C24_35  and  C25_36 
REMARK   12  A    between atoms: C25_36  and  O4_37 
ROOT
HETATM    1  N1  UNL     1      10.834  24.857  21.576  1.00  0.00    -0.367 N 
HETATM    2  C18 UNL     1      10.196  25.195  20.380  1.00  0.00     0.066 C 
HETATM    3  C19 UNL     1      10.101  24.054  19.376  1.00  0.00     0.080 C 
HETATM    4  C20 UNL     1       8.812  23.317  19.612  1.00  0.00     0.224 C 
HETATM    5  C21 UNL     1       8.903  22.426  20.836  1.00  0.00     0.109 C 
HETATM    6  C23 UNL     1       8.968  23.318  22.022  1.00  0.00     0.070 C 
HETATM    7  C24 UNL     1      10.357  23.808  22.375  1.00  0.00     0.114 C 
ENDROOT
BRANCH   1   8
HETATM    8  C17 UNL     1      11.937  25.570  22.045  1.00  0.00     0.068 C 
BRANCH   8   9
HETATM    9  C2  UNL     1      13.317  25.041  21.713  1.00  0.00     0.020 C 
HETATM   10  C1  UNL     1      14.389  25.448  22.666  1.00  0.00     0.015 C 
BRANCH   9  11
HETATM   11  C3  UNL     1      13.643  25.521  20.330  1.00  0.00     0.014 C 
BRANCH  11  12
HETATM   12  C4  UNL     1      14.777  26.476  20.225  1.00  0.00     0.035 C 
BRANCH  12  13
HETATM   13  C5  UNL     1      15.291  26.644  18.853  1.00  0.00    -0.079 C 
HETATM   14  C6  UNL     1      15.963  27.678  18.421  1.00  0.00    -0.023 C 
HETATM   15  C7  UNL     1      16.477  27.839  17.035  1.00  0.00     0.033 C 
HETATM   16  C8  UNL     1      16.021  26.804  16.070  1.00  0.00     0.004 C 
HETATM   17  C9  UNL     1      17.157  25.813  15.896  1.00  0.00     0.015 C 
HETATM   18  C14 UNL     1      14.758  26.153  16.524  1.00  0.00    -0.036 C 
HETATM   19  C10 UNL     1      17.062  25.048  14.602  1.00  0.00     0.013 C 
HETATM   20  C11 UNL     1      17.351  24.953  17.104  1.00  0.00     0.122 C 
HETATM   21  C12 UNL     1      16.111  24.532  17.809  1.00  0.00     0.042 C 
HETATM   22  C13 UNL     1      15.014  25.536  17.872  1.00  0.00     0.025 C 
HETATM   23  C15 UNL     1      13.741  27.271  16.745  1.00  0.00     0.016 C 
HETATM   24  C16 UNL     1      14.153  25.178  15.577  1.00  0.00     0.016 C 
BRANCH  20  25
HETATM   25  O1  UNL     1      18.042  23.804  16.701  1.00  0.00    -0.395 OA
ATOM     26  H1  UNL     1      17.885  23.131  17.351  1.00  0.00     0.210 HD
ENDBRANCH  20  25
ENDBRANCH  12  13
ENDBRANCH  11  12
ENDBRANCH   9  11
ENDBRANCH   8   9
ENDBRANCH   1   8
BRANCH   7  27
HETATM   27  C25 UNL     1      10.228  24.294  23.826  1.00  0.00     0.189 C 
BRANCH  27  28
HETATM   28  O4  UNL     1      11.154  23.623  24.633  1.00  0.00    -0.399 OA
ATOM     29  H4  UNL     1      10.708  23.219  25.367  1.00  0.00     0.209 HD
ENDBRANCH  27  28
ENDBRANCH   7  27
BRANCH   4  30
HETATM   30  N2  UNL     1       8.369  22.586  18.442  1.00  0.00    -0.072 N 
ATOM     31  H23 UNL     1       8.388  23.177  17.611  1.00  0.00     0.274 HD
ATOM     32  H22 UNL     1       9.058  21.888  18.163  1.00  0.00     0.274 HD
ATOM     33  H21 UNL     1       7.449  22.163  18.571  1.00  0.00     0.274 HD
ENDBRANCH   4  30
BRANCH   5  34
HETATM   34  O2  UNL     1       7.695  21.716  20.915  1.00  0.00    -0.385 OA
ATOM     35  H2  UNL     1       7.759  20.993  20.302  1.00  0.00     0.210 HD
ENDBRANCH   5  34
BRANCH   5  36
HETATM   36  C22 UNL     1      10.007  21.425  20.731  1.00  0.00     0.204 C 
BRANCH  36  37
HETATM   37  O3  UNL     1       9.605  20.253  20.090  1.00  0.00    -0.398 OA
ATOM     38  H3  UNL     1       9.845  20.241  19.171  1.00  0.00     0.209 HD
ENDBRANCH  36  37
ENDBRANCH   5  36
TORSDOF 12
ENDMDL
MODEL 2
REMARK VINA RESULT: -7.097924357      1.322      2.100
REMARK  12 active torsions:
REMARK  status: ('A' for Active; 'I' for Inactive)
REMARK    1  A    between atoms: C2_2  and  C3_3 
REMARK    2  A    between atoms: C2_2  and  C17_19 
REMARK    3  A    between atoms: C3_3  and  C4_4 
REMARK    4  A    between atoms: C4_4  and  C5_5 
REMARK    5  A    between atoms: C11_11  and  O1_12 
REMARK    6  A    between atoms: C17_19  and  N1_20 
REMARK    7  A    between atoms: C20_23  and  N2_24 
REMARK    8  A    between atoms: C21_28  and  O2_29 
REMARK    9  A    between atoms: C21_28  and  C22_31 
REMARK   10  A    between atoms: C22_31  and  O3_32 
REMARK   11  A    between atoms: C24_35  and  C25_36 
REMARK   12  A    between atoms: C25_36  and  O4_37 
ROOT
HETATM    1  N1  UNL     1      10.586  25.026  21.022  1.00  0.00    -0.367 N 
HETATM    2  C18 UNL     1       9.500  25.537  20.306  1.00  0.00     0.066 C 
HETATM    3  C19 UNL     1       9.019  24.640  19.173  1.00  0.00     0.080 C 
HETATM    4  C20 UNL     1       7.962  23.716  19.712  1.00  0.00     0.224 C 
HETATM    5  C21 UNL     1       8.574  22.598  20.533  1.00  0.00     0.109 C 
HETATM    6  C23 UNL     1       9.109  23.210  21.776  1.00  0.00     0.070 C 
HETATM    7  C24 UNL     1      10.507  23.777  21.655  1.00  0.00     0.114 C 
ENDROOT
BRANCH   1   8
HETATM    8  C17 UNL     1      11.769  25.749  21.174  1.00  0.00     0.068 C 
BRANCH   8   9
HETATM    9  C2  UNL     1      13.016  25.217  20.500  1.00  0.00     0.020 C 
HETATM   10  C1  UNL     1      14.294  25.570  21.182  1.00  0.00     0.015 C 
BRANCH   9  11
HETATM   11  C3  UNL     1      13.012  25.750  19.098  1.00  0.00     0.014 C 
BRANCH  11  12
HETATM   12  C4  UNL     1      13.501  24.817  18.049  1.00  0.00     0.035 C 
BRANCH  12  13
HETATM   13  C5  UNL     1      14.830  25.167  17.512  1.00  0.00    -0.079 C 
HETATM   14  C6  UNL     1      15.919  24.464  17.676  1.00  0.00    -0.023 C 
HETATM   15  C7  UNL     1      17.254  24.824  17.132  1.00  0.00     0.033 C 
HETATM   16  C8  UNL     1      17.337  26.172  16.510  1.00  0.00     0.004 C 
HETATM   17  C9  UNL     1      17.273  25.983  15.005  1.00  0.00     0.015 C 
HETATM   18  C14 UNL     1      16.266  27.076  17.020  1.00  0.00    -0.036 C 
HETATM   19  C10 UNL     1      17.865  27.145  14.252  1.00  0.00     0.013 C 
HETATM   20  C11 UNL     1      15.909  25.584  14.541  1.00  0.00     0.122 C 
HETATM   21  C12 UNL     1      14.767  26.219  15.251  1.00  0.00     0.042 C 
HETATM   22  C13 UNL     1      14.937  26.438  16.713  1.00  0.00     0.025 C 
HETATM   23  C15 UNL     1      16.395  27.097  18.542  1.00  0.00     0.016 C 
HETATM   24  C16 UNL     1      16.323  28.484  16.545  1.00  0.00     0.016 C 
BRANCH  20  25
HETATM   25  O1  UNL     1      15.814  25.898  13.181  1.00  0.00    -0.395 OA
ATOM     26  H1  UNL     1      14.892  25.928  12.955  1.00  0.00     0.210 HD
ENDBRANCH  20  25
ENDBRANCH  12  13
ENDBRANCH  11  12
ENDBRANCH   9  11
ENDBRANCH   8   9
ENDBRANCH   1   8
BRANCH   7  27
HETATM   27  C25 UNL     1      10.986  23.915  23.109  1.00  0.00     0.189 C 
BRANCH  27  28
HETATM   28  O4  UNL     1      11.986  22.972  23.368  1.00  0.00    -0.399 OA
ATOM     29  H4  UNL     1      12.669  23.039  22.710  1.00  0.00     0.209 HD
ENDBRANCH  27  28
ENDBRANCH   7  27
BRANCH   4  30
HETATM   30  N2  UNL     1       7.087  23.209  18.674  1.00  0.00    -0.072 N 
ATOM     31  H23 UNL     1       7.062  23.841  17.873  1.00  0.00     0.274 HD
ATOM     32  H22 UNL     1       7.490  22.388  18.223  1.00  0.00     0.274 HD
ATOM     33  H21 UNL     1       6.146  23.015  19.017  1.00  0.00     0.274 HD
ENDBRANCH   4  30
BRANCH   5  34
HETATM   34  O2  UNL     1       7.525  21.745  20.907  1.00  0.00    -0.385 OA
ATOM     35  H2  UNL     1       7.381  21.147  20.182  1.00  0.00     0.210 HD
ENDBRANCH   5  34
BRANCH   5  36
HETATM   36  C22 UNL     1       9.554  21.786  19.750  1.00  0.00     0.204 C 
BRANCH  36  37
HETATM   37  O3  UNL     1       8.943  20.762  19.029  1.00  0.00    -0.398 OA
ATOM     38  H3  UNL     1       9.482  20.451  18.310  1.00  0.00     0.209 HD
ENDBRANCH  36  37
ENDBRANCH   5  36
TORSDOF 12
ENDMDL
MODEL 3
REMARK VINA RESULT: -6.833384469      1.374      2.056
REMARK  12 active torsions:
REMARK  status: ('A' for Active; 'I' for Inactive)
REMARK    1  A    between atoms: C2_2  and  C3_3 
REMARK    2  A    between atoms: C2_2  and  C17_19 
REMARK    3  A    between atoms: C3_3  and  C4_4 
REMARK    4  A    between atoms: C4_4  and  C5_5 
REMARK    5  A    between atoms: C11_11  and  O1_12 
REMARK    6  A    between atoms: C17_19  and  N1_20 
REMARK    7  A    between atoms: C20_23  and  N2_24 
REMARK    8  A    between atoms: C21_28  and  O2_29 
REMARK    9  A    between atoms: C21_28  and  C22_31 
REMARK   10  A    between atoms: C22_31  and  O3_32 
REMARK   11  A    between atoms: C24_35  and  C25_36 
REMARK   12  A    between atoms: C25_36  and  O4_37 
ROOT
HETATM    1  N1  UNL     1      10.887  24.903  21.542  1.00  0.00    -0.367 N 
HETATM    2  C18 UNL     1      10.241  25.259  20.355  1.00  0.00     0.066 C 
HETATM    3  C19 UNL     1      10.115  24.126  19.346  1.00  0.00     0.080 C 
HETATM    4  C20 UNL     1       8.817  23.409  19.593  1.00  0.00     0.224 C 
HETATM    5  C21 UNL     1       8.907  22.510  20.810  1.00  0.00     0.109 C 
HETATM    6  C23 UNL     1       9.001  23.393  22.001  1.00  0.00     0.070 C 
HETATM    7  C24 UNL     1      10.401  23.858  22.340  1.00  0.00     0.114 C 
ENDROOT
BRANCH   1   8
HETATM    8  C17 UNL     1      12.007  25.595  22.002  1.00  0.00     0.068 C 
BRANCH   8   9
HETATM    9  C2  UNL     1      13.358  24.923  21.872  1.00  0.00     0.020 C 
HETATM   10  C1  UNL     1      14.478  25.633  22.554  1.00  0.00     0.015 C 
BRANCH   9  11
HETATM   11  C3  UNL     1      13.640  24.798  20.404  1.00  0.00     0.014 C 
BRANCH  11  12
HETATM   12  C4  UNL     1      14.000  26.059  19.703  1.00  0.00     0.035 C 
BRANCH  12  13
HETATM   13  C5  UNL     1      14.538  25.854  18.346  1.00  0.00    -0.079 C 
HETATM   14  C6  UNL     1      15.513  25.040  18.036  1.00  0.00    -0.023 C 
HETATM   15  C7  UNL     1      16.050  24.839  16.665  1.00  0.00     0.033 C 
HETATM   16  C8  UNL     1      15.522  25.778  15.639  1.00  0.00     0.004 C 
HETATM   17  C9  UNL     1      14.462  25.036  14.847  1.00  0.00     0.015 C 
HETATM   18  C14 UNL     1      15.003  27.030  16.260  1.00  0.00    -0.036 C 
HETATM   19  C10 UNL     1      14.230  25.639  13.486  1.00  0.00     0.013 C 
HETATM   20  C11 UNL     1      13.213  24.813  15.639  1.00  0.00     0.122 C 
HETATM   21  C12 UNL     1      12.811  25.921  16.547  1.00  0.00     0.042 C 
HETATM   22  C13 UNL     1      13.916  26.649  17.229  1.00  0.00     0.025 C 
HETATM   23  C15 UNL     1      16.141  27.614  17.094  1.00  0.00     0.016 C 
HETATM   24  C16 UNL     1      14.552  28.086  15.314  1.00  0.00     0.016 C 
BRANCH  20  25
HETATM   25  O1  UNL     1      12.171  24.584  14.734  1.00  0.00    -0.395 OA
ATOM     26  H1  UNL     1      12.085  23.644  14.626  1.00  0.00     0.210 HD
ENDBRANCH  20  25
ENDBRANCH  12  13
ENDBRANCH  11  12
ENDBRANCH   9  11
ENDBRANCH   8   9
ENDBRANCH   1   8
BRANCH   7  27
HETATM   27  C25 UNL     1      10.298  24.337  23.796  1.00  0.00     0.189 C 
BRANCH  27  28
HETATM   28  O4  UNL     1      11.149  23.577  24.605  1.00  0.00    -0.399 OA
ATOM     29  H4  UNL     1      11.442  24.099  25.343  1.00  0.00     0.209 HD
ENDBRANCH  27  28
ENDBRANCH   7  27
BRANCH   4  30
HETATM   30  N2  UNL     1       8.348  22.692  18.424  1.00  0.00    -0.072 N 
ATOM     31  H23 UNL     1       7.334  22.763  18.332  1.00  0.00     0.274 HD
ATOM     32  H22 UNL     1       8.624  23.169  17.566  1.00  0.00     0.274 HD
ATOM     33  H21 UNL     1       8.650  21.718  18.416  1.00  0.00     0.274 HD
ENDBRANCH   4  30
BRANCH   5  34
HETATM   34  O2  UNL     1       7.689  21.820  20.900  1.00  0.00    -0.385 OA
ATOM     35  H2  UNL     1       7.481  21.743  21.824  1.00  0.00     0.210 HD
ENDBRANCH   5  34
BRANCH   5  36
HETATM   36  C22 UNL     1       9.992  21.490  20.687  1.00  0.00     0.204 C 
BRANCH  36  37
HETATM   37  O3  UNL     1       9.593  20.371  19.958  1.00  0.00    -0.398 OA
ATOM     38  H3  UNL     1      10.016  20.321  19.108  1.00  0.00     0.209 HD
ENDBRANCH  36  37
ENDBRANCH   5  36
TORSDOF 12
ENDMDL
MODEL 4
REMARK VINA RESULT: -6.814677760      1.087      1.770
REMARK  12 active torsions:
REMARK  status: ('A' for Active; 'I' for Inactive)
REMARK    1  A    between atoms: C2_2  and  C3_3 
REMARK    2  A    between atoms: C2_2  and  C17_19 
REMARK    3  A    between atoms: C3_3  and  C4_4 
REMARK    4  A    between atoms: C4_4  and  C5_5 
REMARK    5  A    between atoms: C11_11  and  O1_12 
REMARK    6  A    between atoms: C17_19  and  N1_20 
REMARK    7  A    between atoms: C20_23  and  N2_24 
REMARK    8  A    between atoms: C21_28  and  O2_29 
REMARK    9  A    between atoms: C21_28  and  C22_31 
REMARK   10  A    between atoms: C22_31  and  O3_32 
REMARK   11  A    between atoms: C24_35  and  C25_36 
REMARK   12  A    between atoms: C25_36  and  O4_37 
ROOT
HETATM    1  N1  UNL     1      10.938  24.990  21.493  1.00  0.00    -0.367 N 
HETATM    2  C18 UNL     1      10.289  25.333  20.305  1.00  0.00     0.066 C 
HETATM    3  C19 UNL     1      10.156  24.189  19.309  1.00  0.00     0.080 C 
HETATM    4  C20 UNL     1       8.857  23.478  19.570  1.00  0.00     0.224 C 
HETATM    5  C21 UNL     1       8.949  22.593  20.798  1.00  0.00     0.109 C 
HETATM    6  C23 UNL     1       9.050  23.490  21.978  1.00  0.00     0.070 C 
HETATM    7  C24 UNL     1      10.454  23.954  22.305  1.00  0.00     0.114 C 
ENDROOT
BRANCH   1   8
HETATM    8  C17 UNL     1      12.062  25.683  21.941  1.00  0.00     0.068 C 
BRANCH   8   9
HETATM    9  C2  UNL     1      13.417  25.253  21.418  1.00  0.00     0.020 C 
HETATM   10  C1  UNL     1      14.153  24.300  22.297  1.00  0.00     0.015 C 
BRANCH   9  11
HETATM   11  C3  UNL     1      14.221  26.503  21.219  1.00  0.00     0.014 C 
BRANCH  11  12
HETATM   12  C4  UNL     1      13.688  27.466  20.219  1.00  0.00     0.035 C 
BRANCH  12  13
HETATM   13  C5  UNL     1      14.024  27.123  18.824  1.00  0.00    -0.079 C 
HETATM   14  C6  UNL     1      13.241  27.307  17.794  1.00  0.00    -0.023 C 
HETATM   15  C7  UNL     1      13.586  26.958  16.391  1.00  0.00     0.033 C 
HETATM   16  C8  UNL     1      14.852  26.195  16.226  1.00  0.00     0.004 C 
HETATM   17  C9  UNL     1      15.917  27.175  15.770  1.00  0.00     0.015 C 
HETATM   18  C14 UNL     1      15.228  25.482  17.481  1.00  0.00    -0.036 C 
HETATM   19  C10 UNL     1      17.063  26.496  15.066  1.00  0.00     0.013 C 
HETATM   20  C11 UNL     1      16.335  28.108  16.862  1.00  0.00     0.122 C 
HETATM   21  C12 UNL     1      16.412  27.521  18.226  1.00  0.00     0.042 C 
HETATM   22  C13 UNL     1      15.374  26.510  18.570  1.00  0.00     0.025 C 
HETATM   23  C15 UNL     1      14.036  24.609  17.866  1.00  0.00     0.016 C 
HETATM   24  C16 UNL     1      16.421  24.598  17.393  1.00  0.00     0.016 C 
BRANCH  20  25
HETATM   25  O1  UNL     1      17.595  28.616  16.527  1.00  0.00    -0.395 OA
ATOM     26  H1  UNL     1      17.650  29.499  16.870  1.00  0.00     0.210 HD
ENDBRANCH  20  25
ENDBRANCH  12  13
ENDBRANCH  11  12
ENDBRANCH   9  11
ENDBRANCH   8   9
ENDBRANCH   1   8
BRANCH   7  27
HETATM   27  C25 UNL     1      10.357  24.451  23.756  1.00  0.00     0.189 C 
BRANCH  27  28
HETATM   28  O4  UNL     1      11.127  23.631  24.588  1.00  0.00    -0.399 OA
ATOM     29  H4  UNL     1      11.134  23.985  25.470  1.00  0.00     0.209 HD
ENDBRANCH  27  28
ENDBRANCH   7  27
BRANCH   4  30
HETATM   30  N2  UNL     1       8.381  22.749  18.412  1.00  0.00    -0.072 N 
ATOM     31  H23 UNL     1       7.756  23.323  17.847  1.00  0.00     0.274 HD
ATOM     32  H22 UNL     1       9.131  22.608  17.734  1.00  0.00     0.274 HD
ATOM     33  H21 UNL     1       7.941  21.863  18.661  1.00  0.00     0.274 HD
ENDBRANCH   4  30
BRANCH   5  34
HETATM   34  O2  UNL     1       7.730  21.907  20.900  1.00  0.00    -0.385 OA
ATOM     35  H2  UNL     1       7.313  21.954  20.047  1.00  0.00     0.210 HD
ENDBRANCH   5  34
BRANCH   5  36
HETATM   36  C22 UNL     1      10.032  21.569  20.682  1.00  0.00     0.204 C 
BRANCH  36  37
HETATM   37  O3  UNL     1       9.600  20.406  20.047  1.00  0.00    -0.398 OA
ATOM     38  H3  UNL     1       9.201  19.789  20.649  1.00  0.00     0.209 HD
ENDBRANCH  36  37
ENDBRANCH   5  36
TORSDOF 12
ENDMDL
MODEL 5
REMARK VINA RESULT: -6.777801449      1.526      2.273
REMARK  12 active torsions:
REMARK  status: ('A' for Active; 'I' for Inactive)
REMARK    1  A    between atoms: C2_2  and  C3_3 
REMARK    2  A    between atoms: C2_2  and  C17_19 
REMARK    3  A    between atoms: C3_3  and  C4_4 
REMARK    4  A    between atoms: C4_4  and  C5_5 
REMARK    5  A    between atoms: C11_11  and  O1_12 
REMARK    6  A    between atoms: C17_19  and  N1_20 
REMARK    7  A    between atoms: C20_23  and  N2_24 
REMARK    8  A    between atoms: C21_28  and  O2_29 
REMARK    9  A    between atoms: C21_28  and  C22_31 
REMARK   10  A    between atoms: C22_31  and  O3_32 
REMARK   11  A    between atoms: C24_35  and  C25_36 
REMARK   12  A    between atoms: C25_36  and  O4_37 
ROOT
HETATM    1  N1  UNL     1      10.912  24.718  21.454  1.00  0.00    -0.367 N 
HETATM    2  C18 UNL     1       9.756  24.544  20.689  1.00  0.00     0.066 C 
HETATM    3  C19 UNL     1       9.602  23.151  20.093  1.00  0.00     0.080 C 
HETATM    4  C20 UNL     1       8.836  22.298  21.066  1.00  0.00     0.224 C 
HETATM    5  C21 UNL     1       9.711  21.864  22.226  1.00  0.00     0.109 C 
HETATM    6  C23 UNL     1       9.994  23.076  23.038  1.00  0.00     0.070 C 
HETATM    7  C24 UNL     1      11.172  23.899  22.562  1.00  0.00     0.114 C 
ENDROOT
BRANCH   1   8
HETATM    8  C17 UNL     1      11.828  25.733  21.178  1.00  0.00     0.068 C 
BRANCH   8   9
HETATM    9  C2  UNL     1      13.158  25.341  20.568  1.00  0.00     0.020 C 
HETATM   10  C1  UNL     1      14.353  25.913  21.253  1.00  0.00     0.015 C 
BRANCH   9  11
HETATM   11  C3  UNL     1      13.123  25.780  19.134  1.00  0.00     0.014 C 
BRANCH  11  12
HETATM   12  C4  UNL     1      13.620  24.791  18.141  1.00  0.00     0.035 C 
BRANCH  12  13
HETATM   13  C5  UNL     1      14.933  25.134  17.564  1.00  0.00    -0.079 C 
HETATM   14  C6  UNL     1      16.022  24.422  17.690  1.00  0.00    -0.023 C 
HETATM   15  C7  UNL     1      17.341  24.776  17.105  1.00  0.00     0.033 C 
HETATM   16  C8  UNL     1      17.414  26.127  16.487  1.00  0.00     0.004 C 
HETATM   17  C9  UNL     1      17.300  25.945  14.984  1.00  0.00     0.015 C 
HETATM   18  C14 UNL     1      16.366  27.035  17.036  1.00  0.00    -0.036 C 
HETATM   19  C10 UNL     1      17.877  27.107  14.218  1.00  0.00     0.013 C 
HETATM   20  C11 UNL     1      15.920  25.558  14.562  1.00  0.00     0.122 C 
HETATM   21  C12 UNL     1      14.805  26.197  15.311  1.00  0.00     0.042 C 
HETATM   22  C13 UNL     1      15.024  26.408  16.768  1.00  0.00     0.025 C 
HETATM   23  C15 UNL     1      16.544  27.048  18.552  1.00  0.00     0.016 C 
HETATM   24  C16 UNL     1      16.419  28.446  16.565  1.00  0.00     0.016 C 
BRANCH  20  25
HETATM   25  O1  UNL     1      15.784  25.880  13.207  1.00  0.00    -0.395 OA
ATOM     26  H1  UNL     1      15.700  26.823  13.142  1.00  0.00     0.210 HD
ENDBRANCH  20  25
ENDBRANCH  12  13
ENDBRANCH  11  12
ENDBRANCH   9  11
ENDBRANCH   8   9
ENDBRANCH   1   8
BRANCH   7  27
HETATM   27  C25 UNL     1      11.530  24.779  23.770  1.00  0.00     0.189 C 
BRANCH  27  28
HETATM   28  O4  UNL     1      11.212  24.106  24.955  1.00  0.00    -0.399 OA
ATOM     29  H4  UNL     1      10.917  23.225  24.755  1.00  0.00     0.209 HD
ENDBRANCH  27  28
ENDBRANCH   7  27
BRANCH   4  30
HETATM   30  N2  UNL     1       8.189  21.171  20.425  1.00  0.00    -0.072 N 
ATOM     31  H23 UNL     1       7.837  21.426  19.502  1.00  0.00     0.274 HD
ATOM     32  H22 UNL     1       8.871  20.464  20.151  1.00  0.00     0.274 HD
ATOM     33  H21 UNL     1       7.450  20.766  21.000  1.00  0.00     0.274 HD
ENDBRANCH   4  30
BRANCH   5  34
HETATM   34  O2  UNL     1       8.939  21.003  23.020  1.00  0.00    -0.385 OA
ATOM     35  H2  UNL     1       8.039  21.088  22.727  1.00  0.00     0.210 HD
ENDBRANCH   5  34
BRANCH   5  36
HETATM   36  C22 UNL     1      10.915  21.102  21.778  1.00  0.00     0.204 C 
BRANCH  36  37
HETATM   37  O3  UNL     1      11.191  20.009  22.597  1.00  0.00    -0.398 OA
ATOM     38  H3  UNL     1      12.100  19.980  22.872  1.00  0.00     0.209 HD
ENDBRANCH  36  37
ENDBRANCH   5  36
TORSDOF 12
ENDMDL
