MODEL 1
REMARK VINA RESULT: -6.010745266      0.000      0.000
REMARK  6 active torsions:
REMARK  status: ('A' for Active; 'I' for Inactive)
REMARK    1  A    between atoms: C2_2  and  C3_3 
REMARK    2  A    between atoms: C3_3  and  N1_4 
REMARK    3  A    between atoms: C10_11  and  C11_12 
REMARK       I    between atoms: C11_12  and  N2_14 
REMARK    4  A    between atoms: N2_14  and  C12_16 
REMARK    5  A    between atoms: C12_16  and  C13_17 
REMARK    6  A    between atoms: C17_23  and  C18_24 
ROOT
HETATM    1  N1  UNL     1      28.971   1.678  55.631  1.00  0.00    -0.053 N 
HETATM    2  C4  UNL     1      29.086   2.118  54.229  1.00  0.00     0.265 C 
HETATM    3  C5  UNL     1      30.415   2.687  53.898  1.00  0.00    -0.003 C 
HETATM    4  C6  UNL     1      31.640   2.249  54.557  1.00  0.00    -0.029 C 
HETATM    5  C7  UNL     1      31.951   2.540  55.959  1.00  0.00     0.029 C 
HETATM    6  C8  UNL     1      30.872   2.403  56.997  1.00  0.00     0.038 C 
HETATM    7  C9  UNL     1      29.602   2.753  56.348  1.00  0.00     0.211 A 
HETATM    8  C10 UNL     1      28.374   3.099  57.137  1.00  0.00     0.099 A 
HETATM    9  C14 UNL     1      28.404   2.915  58.594  1.00  0.00     0.028 C 
HETATM   10  C15 UNL     1      27.381   2.059  59.225  1.00  0.00    -0.012 C 
HETATM   11  C16 UNL     1      25.979   2.523  59.265  1.00  0.00     0.010 C 
HETATM   12  C17 UNL     1      25.035   1.674  58.444  1.00  0.00     0.002 C 
HETATM   13  C20 UNL     1      25.539   1.346  57.090  1.00  0.00     0.012 C 
HETATM   14  C21 UNL     1      27.021   0.986  57.070  1.00  0.00     0.019 C 
HETATM   15  C22 UNL     1      27.413   0.747  58.453  1.00  0.00     0.011 C 
HETATM   16  C23 UNL     1      27.742   2.039  56.307  1.00  0.00     0.215 A 
ENDROOT
BRANCH   8  17
HETATM   17  C11 UNL     1      27.871   4.502  56.845  1.00  0.00     0.231 C 
HETATM   18  O1  UNL     1      28.395   5.471  57.402  1.00  0.00    -0.273 OA
HETATM   19  N2  UNL     1      26.806   4.679  55.938  1.00  0.00    -0.352 N 
ATOM     20  H2  UNL     1      26.387   3.867  55.487  1.00  0.00     0.162 HD
BRANCH  19  21
HETATM   21  C12 UNL     1      26.309   5.992  55.645  1.00  0.00     0.222 C 
BRANCH  21  22
HETATM   22  C13 UNL     1      24.990   5.921  54.938  1.00  0.00     0.248 C 
HETATM   23  N3  UNL     1      24.764   4.884  54.004  1.00  0.00    -0.061 NA
HETATM   24  O2  UNL     1      24.092   6.753  55.155  1.00  0.00    -0.275 OA
ENDBRANCH  21  22
ENDBRANCH  19  21
ENDBRANCH   8  17
BRANCH   1  25
HETATM   25  C3  UNL     1      29.465   0.369  55.736  1.00  0.00     0.238 C 
BRANCH  25  26
HETATM   26  C2  UNL     1      29.059  -0.561  54.575  1.00  0.00     0.023 C 
HETATM   27  C1  UNL     1      30.301  -1.450  54.378  1.00  0.00     0.007 C 
ENDBRANCH  25  26
ENDBRANCH   1  25
BRANCH  12  28
HETATM   28  C18 UNL     1      23.684   2.334  58.460  1.00  0.00     0.072 C 
HETATM   29  C19 UNL     1      22.515   1.355  58.510  1.00  0.00     0.102 C 
HETATM   30  S1  UNL     1      21.890   1.493  56.789  1.00  0.00    -0.096 SA
HETATM   31  S2  UNL     1      23.155   3.217  57.003  1.00  0.00    -0.092 SA
ENDBRANCH  12  28
TORSDOF 6
ENDMDL
MODEL 2
REMARK VINA RESULT: -5.721667012      4.318      6.200
REMARK  6 active torsions:
REMARK  status: ('A' for Active; 'I' for Inactive)
REMARK    1  A    between atoms: C2_2  and  C3_3 
REMARK    2  A    between atoms: C3_3  and  N1_4 
REMARK    3  A    between atoms: C10_11  and  C11_12 
REMARK       I    between atoms: C11_12  and  N2_14 
REMARK    4  A    between atoms: N2_14  and  C12_16 
REMARK    5  A    between atoms: C12_16  and  C13_17 
REMARK    6  A    between atoms: C17_23  and  C18_24 
ROOT
HETATM    1  N1  UNL     1      27.217   2.215  56.923  1.00  0.00    -0.053 N 
HETATM    2  C4  UNL     1      25.954   1.462  56.817  1.00  0.00     0.265 C 
HETATM    3  C5  UNL     1      24.767   2.328  56.614  1.00  0.00    -0.003 C 
HETATM    4  C6  UNL     1      24.839   3.601  55.908  1.00  0.00    -0.029 C 
HETATM    5  C7  UNL     1      25.514   4.785  56.445  1.00  0.00     0.029 C 
HETATM    6  C8  UNL     1      26.850   4.631  57.120  1.00  0.00     0.038 C 
HETATM    7  C9  UNL     1      26.852   3.316  57.774  1.00  0.00     0.211 A 
HETATM    8  C10 UNL     1      27.841   2.962  58.845  1.00  0.00     0.099 A 
HETATM    9  C14 UNL     1      28.938   3.899  59.121  1.00  0.00     0.028 C 
HETATM   10  C15 UNL     1      30.328   3.412  59.038  1.00  0.00    -0.012 C 
HETATM   11  C16 UNL     1      30.820   2.462  60.057  1.00  0.00     0.010 C 
HETATM   12  C17 UNL     1      31.153   1.096  59.502  1.00  0.00     0.002 C 
HETATM   13  C20 UNL     1      30.123   0.545  58.591  1.00  0.00     0.012 C 
HETATM   14  C21 UNL     1      29.551   1.584  57.631  1.00  0.00     0.019 C 
HETATM   15  C22 UNL     1      30.444   2.735  57.679  1.00  0.00     0.011 C 
HETATM   16  C23 UNL     1      28.119   1.790  57.973  1.00  0.00     0.215 A 
ENDROOT
BRANCH   8  17
HETATM   17  C11 UNL     1      27.171   2.612  60.163  1.00  0.00     0.231 C 
HETATM   18  O1  UNL     1      26.298   1.741  60.196  1.00  0.00    -0.273 OA
HETATM   19  N2  UNL     1      27.557   3.293  61.335  1.00  0.00    -0.352 N 
ATOM     20  H2  UNL     1      28.281   4.009  61.289  1.00  0.00     0.162 HD
BRANCH  19  21
HETATM   21  C12 UNL     1      26.940   2.986  62.594  1.00  0.00     0.222 C 
BRANCH  21  22
HETATM   22  C13 UNL     1      25.778   3.892  62.857  1.00  0.00     0.248 C 
HETATM   23  N3  UNL     1      26.013   5.166  63.425  1.00  0.00    -0.061 NA
HETATM   24  O2  UNL     1      24.614   3.550  62.588  1.00  0.00    -0.275 OA
ENDBRANCH  21  22
ENDBRANCH  19  21
ENDBRANCH   8  17
BRANCH   1  25
HETATM   25  C3  UNL     1      27.713   2.451  55.631  1.00  0.00     0.238 C 
BRANCH  25  26
HETATM   26  C2  UNL     1      27.699   1.217  54.708  1.00  0.00     0.023 C 
HETATM   27  C1  UNL     1      29.012   1.350  53.913  1.00  0.00     0.007 C 
ENDBRANCH  25  26
ENDBRANCH   1  25
BRANCH  12  28
HETATM   28  C18 UNL     1      31.503   0.198  60.657  1.00  0.00     0.072 C 
HETATM   29  C19 UNL     1      31.870   0.944  61.936  1.00  0.00     0.102 C 
HETATM   30  S1  UNL     1      33.686   0.681  61.967  1.00  0.00    -0.096 SA
HETATM   31  S2  UNL     1      32.993  -0.778  60.551  1.00  0.00    -0.092 SA
ENDBRANCH  12  28
TORSDOF 6
ENDMDL
MODEL 3
REMARK VINA RESULT: -5.694685851      1.240      1.408
REMARK  6 active torsions:
REMARK  status: ('A' for Active; 'I' for Inactive)
REMARK    1  A    between atoms: C2_2  and  C3_3 
REMARK    2  A    between atoms: C3_3  and  N1_4 
REMARK    3  A    between atoms: C10_11  and  C11_12 
REMARK       I    between atoms: C11_12  and  N2_14 
REMARK    4  A    between atoms: N2_14  and  C12_16 
REMARK    5  A    between atoms: C12_16  and  C13_17 
REMARK    6  A    between atoms: C17_23  and  C18_24 
ROOT
HETATM    1  N1  UNL     1      28.263   2.550  54.839  1.00  0.00    -0.053 N 
HETATM    2  C4  UNL     1      28.158   2.934  53.420  1.00  0.00     0.265 C 
HETATM    3  C5  UNL     1      29.315   3.725  52.937  1.00  0.00    -0.003 C 
HETATM    4  C6  UNL     1      30.659   3.557  53.479  1.00  0.00    -0.029 C 
HETATM    5  C7  UNL     1      31.041   3.970  54.832  1.00  0.00     0.029 C 
HETATM    6  C8  UNL     1      30.112   3.685  55.980  1.00  0.00     0.038 C 
HETATM    7  C9  UNL     1      28.742   3.758  55.454  1.00  0.00     0.211 A 
HETATM    8  C10 UNL     1      27.551   3.906  56.355  1.00  0.00     0.099 A 
HETATM    9  C14 UNL     1      27.755   3.804  57.806  1.00  0.00     0.028 C 
HETATM   10  C15 UNL     1      26.980   2.804  58.564  1.00  0.00    -0.012 C 
HETATM   11  C16 UNL     1      25.525   2.998  58.734  1.00  0.00     0.010 C 
HETATM   12  C17 UNL     1      24.688   1.947  58.042  1.00  0.00     0.002 C 
HETATM   13  C20 UNL     1      25.113   1.653  56.653  1.00  0.00     0.012 C 
HETATM   14  C21 UNL     1      26.629   1.577  56.492  1.00  0.00     0.019 C 
HETATM   15  C22 UNL     1      27.188   1.484  57.834  1.00  0.00     0.011 C 
HETATM   16  C23 UNL     1      27.058   2.707  55.627  1.00  0.00     0.215 A 
ENDROOT
BRANCH   8  17
HETATM   17  C11 UNL     1      26.763   5.174  56.073  1.00  0.00     0.231 C 
HETATM   18  O1  UNL     1      27.165   6.256  56.509  1.00  0.00    -0.273 OA
HETATM   19  N2  UNL     1      25.577   5.096  55.315  1.00  0.00    -0.352 N 
ATOM     20  H2  UNL     1      25.262   4.193  54.963  1.00  0.00     0.162 HD
BRANCH  19  21
HETATM   21  C12 UNL     1      24.811   6.276  55.036  1.00  0.00     0.222 C 
BRANCH  21  22
HETATM   22  C13 UNL     1      25.134   6.817  53.677  1.00  0.00     0.248 C 
HETATM   23  N3  UNL     1      25.785   5.981  52.740  1.00  0.00    -0.061 NA
HETATM   24  O2  UNL     1      24.843   7.981  53.355  1.00  0.00    -0.275 OA
ENDBRANCH  21  22
ENDBRANCH  19  21
ENDBRANCH   8  17
BRANCH   1  25
HETATM   25  C3  UNL     1      29.006   1.363  54.933  1.00  0.00     0.238 C 
BRANCH  25  26
HETATM   26  C2  UNL     1      28.642   0.297  53.881  1.00  0.00     0.023 C 
HETATM   27  C1  UNL     1      29.363  -0.966  54.386  1.00  0.00     0.007 C 
ENDBRANCH  25  26
ENDBRANCH   1  25
BRANCH  12  28
HETATM   28  C18 UNL     1      23.242   2.342  58.177  1.00  0.00     0.072 C 
HETATM   29  C19 UNL     1      22.360   1.268  58.805  1.00  0.00     0.102 C 
HETATM   30  S1  UNL     1      21.436   0.688  57.328  1.00  0.00    -0.096 SA
HETATM   31  S2  UNL     1      22.281   2.558  56.689  1.00  0.00    -0.092 SA
ENDBRANCH  12  28
TORSDOF 6
ENDMDL
MODEL 4
REMARK VINA RESULT: -5.642750699      2.238      2.573
REMARK  6 active torsions:
REMARK  status: ('A' for Active; 'I' for Inactive)
REMARK    1  A    between atoms: C2_2  and  C3_3 
REMARK    2  A    between atoms: C3_3  and  N1_4 
REMARK    3  A    between atoms: C10_11  and  C11_12 
REMARK       I    between atoms: C11_12  and  N2_14 
REMARK    4  A    between atoms: N2_14  and  C12_16 
REMARK    5  A    between atoms: C12_16  and  C13_17 
REMARK    6  A    between atoms: C17_23  and  C18_24 
ROOT
HETATM    1  N1  UNL     1      28.769   1.329  54.195  1.00  0.00    -0.053 N 
HETATM    2  C4  UNL     1      28.500   0.908  52.809  1.00  0.00     0.265 C 
HETATM    3  C5  UNL     1      29.564   1.305  51.855  1.00  0.00    -0.003 C 
HETATM    4  C6  UNL     1      30.962   1.427  52.250  1.00  0.00    -0.029 C 
HETATM    5  C7  UNL     1      31.463   2.486  53.130  1.00  0.00     0.029 C 
HETATM    6  C8  UNL     1      30.672   2.865  54.352  1.00  0.00     0.038 C 
HETATM    7  C9  UNL     1      29.254   2.672  54.024  1.00  0.00     0.211 A 
HETATM    8  C10 UNL     1      28.157   3.292  54.839  1.00  0.00     0.099 A 
HETATM    9  C14 UNL     1      28.514   3.968  56.093  1.00  0.00     0.028 C 
HETATM   10  C15 UNL     1      27.869   3.532  57.346  1.00  0.00    -0.012 C 
HETATM   11  C16 UNL     1      26.432   3.810  57.550  1.00  0.00     0.010 C 
HETATM   12  C17 UNL     1      25.576   2.566  57.613  1.00  0.00     0.002 C 
HETATM   13  C20 UNL     1      25.868   1.576  56.549  1.00  0.00     0.012 C 
HETATM   14  C21 UNL     1      27.360   1.402  56.284  1.00  0.00     0.019 C 
HETATM   15  C22 UNL     1      28.060   2.022  57.401  1.00  0.00     0.011 C 
HETATM   16  C23 UNL     1      27.646   1.898  54.911  1.00  0.00     0.215 A 
ENDROOT
BRANCH   8  17
HETATM   17  C11 UNL     1      27.287   4.233  54.023  1.00  0.00     0.231 C 
HETATM   18  O1  UNL     1      26.084   4.333  54.278  1.00  0.00    -0.273 OA
HETATM   19  N2  UNL     1      27.869   4.981  52.980  1.00  0.00    -0.352 N 
ATOM     20  H2  UNL     1      28.865   4.887  52.785  1.00  0.00     0.162 HD
BRANCH  19  21
HETATM   21  C12 UNL     1      27.072   5.876  52.191  1.00  0.00     0.222 C 
BRANCH  21  22
HETATM   22  C13 UNL     1      26.631   5.222  50.918  1.00  0.00     0.248 C 
HETATM   23  N3  UNL     1      25.763   5.922  50.049  1.00  0.00    -0.061 NA
HETATM   24  O2  UNL     1      27.012   4.080  50.609  1.00  0.00    -0.275 OA
ENDBRANCH  21  22
ENDBRANCH  19  21
ENDBRANCH   8  17
BRANCH   1  25
HETATM   25  C3  UNL     1      29.571   0.359  54.816  1.00  0.00     0.238 C 
BRANCH  25  26
HETATM   26  C2  UNL     1      29.267  -1.090  54.385  1.00  0.00     0.023 C 
HETATM   27  C1  UNL     1      30.662  -1.736  54.293  1.00  0.00     0.007 C 
ENDBRANCH  25  26
ENDBRANCH   1  25
BRANCH  12  28
HETATM   28  C18 UNL     1      24.136   2.996  57.681  1.00  0.00     0.072 C 
HETATM   29  C19 UNL     1      23.305   2.225  58.702  1.00  0.00     0.102 C 
HETATM   30  S1  UNL     1      22.305   1.164  57.587  1.00  0.00    -0.096 SA
HETATM   31  S2  UNL     1      23.088   2.673  56.273  1.00  0.00    -0.092 SA
ENDBRANCH  12  28
TORSDOF 6
ENDMDL
MODEL 5
REMARK VINA RESULT: -5.602163182      5.193      7.756
REMARK  6 active torsions:
REMARK  status: ('A' for Active; 'I' for Inactive)
REMARK    1  A    between atoms: C2_2  and  C3_3 
REMARK    2  A    between atoms: C3_3  and  N1_4 
REMARK    3  A    between atoms: C10_11  and  C11_12 
REMARK       I    between atoms: C11_12  and  N2_14 
REMARK    4  A    between atoms: N2_14  and  C12_16 
REMARK    5  A    between atoms: C12_16  and  C13_17 
REMARK    6  A    between atoms: C17_23  and  C18_24 
ROOT
HETATM    1  N1  UNL     1      30.414   1.085  51.519  1.00  0.00    -0.053 N 
HETATM    2  C4  UNL     1      31.352   0.527  50.528  1.00  0.00     0.265 C 
HETATM    3  C5  UNL     1      30.707   0.172  49.241  1.00  0.00    -0.003 C 
HETATM    4  C6  UNL     1      29.547   0.888  48.723  1.00  0.00    -0.029 C 
HETATM    5  C7  UNL     1      28.213   0.807  49.325  1.00  0.00     0.029 C 
HETATM    6  C8  UNL     1      28.075   0.858  50.822  1.00  0.00     0.038 C 
HETATM    7  C9  UNL     1      29.272   0.221  51.387  1.00  0.00     0.211 A 
HETATM    8  C10 UNL     1      29.324  -0.253  52.810  1.00  0.00     0.099 A 
HETATM    9  C14 UNL     1      28.207   0.086  53.701  1.00  0.00     0.028 C 
HETATM   10  C15 UNL     1      28.492   0.808  54.956  1.00  0.00    -0.012 C 
HETATM   11  C16 UNL     1      29.209   0.108  56.042  1.00  0.00     0.010 C 
HETATM   12  C17 UNL     1      30.574   0.685  56.337  1.00  0.00     0.002 C 
HETATM   13  C20 UNL     1      31.391   0.952  55.130  1.00  0.00     0.012 C 
HETATM   14  C21 UNL     1      30.591   1.567  53.986  1.00  0.00     0.019 C 
HETATM   15  C22 UNL     1      29.326   2.016  54.554  1.00  0.00     0.011 C 
HETATM   16  C23 UNL     1      30.552   0.584  52.871  1.00  0.00     0.215 A 
ENDROOT
BRANCH   8  17
HETATM   17  C11 UNL     1      29.582  -1.746  52.917  1.00  0.00     0.231 C 
HETATM   18  O1  UNL     1      29.689  -2.273  54.028  1.00  0.00    -0.273 OA
HETATM   19  N2  UNL     1      29.697  -2.512  51.740  1.00  0.00    -0.352 N 
ATOM     20  H2  UNL     1      29.605  -2.060  50.831  1.00  0.00     0.162 HD
BRANCH  19  21
HETATM   21  C12 UNL     1      29.943  -3.924  51.809  1.00  0.00     0.222 C 
BRANCH  21  22
HETATM   22  C13 UNL     1      31.194  -4.289  51.072  1.00  0.00     0.248 C 
HETATM   23  N3  UNL     1      31.401  -5.634  50.689  1.00  0.00    -0.061 NA
HETATM   24  O2  UNL     1      32.053  -3.436  50.790  1.00  0.00    -0.275 OA
ENDBRANCH  21  22
ENDBRANCH  19  21
ENDBRANCH   8  17
BRANCH   1  25
HETATM   25  C3  UNL     1      30.289   2.465  51.297  1.00  0.00     0.238 C 
BRANCH  25  26
HETATM   26  C2  UNL     1      31.611   3.176  50.946  1.00  0.00     0.023 C 
HETATM   27  C1  UNL     1      31.199   4.179  49.853  1.00  0.00     0.007 C 
ENDBRANCH  25  26
ENDBRANCH   1  25
BRANCH  12  28
HETATM   28  C18 UNL     1      31.242  -0.200  57.355  1.00  0.00     0.072 C 
HETATM   29  C19 UNL     1      30.673  -0.066  58.764  1.00  0.00     0.102 C 
HETATM   30  S1  UNL     1      32.025   0.869  59.582  1.00  0.00    -0.096 SA
HETATM   31  S2  UNL     1      32.941   0.135  57.783  1.00  0.00    -0.092 SA
ENDBRANCH  12  28
TORSDOF 6
ENDMDL
