MODEL 1
REMARK VINA RESULT: -6.794355316      0.000      0.000
REMARK  7 active torsions:
REMARK  status: ('A' for Active; 'I' for Inactive)
REMARK    1  A    between atoms: C3_3  and  N1_4 
REMARK       I    between atoms: N1_4  and  C4_6 
REMARK    2  A    between atoms: C4_6  and  C5_8 
REMARK    3  A    between atoms: C7_10  and  O2_11 
REMARK    4  A    between atoms: C16_21  and  C17_22 
REMARK    5  A    between atoms: C17_22  and  C19_24 
REMARK    6  A    between atoms: C19_24  and  C20_25 
REMARK    7  A    between atoms: C26_31  and  O3_32 
ROOT
HETATM    1  C1  UNL     1      20.227   0.809  55.129  1.00  0.00     0.014 C 
HETATM    2  C2  UNL     1      20.926   1.492  55.827  1.00  0.00    -0.098 C 
HETATM    3  C3  UNL     1      21.764   2.323  56.700  1.00  0.00     0.216 C 
ENDROOT
BRANCH   3   4
HETATM    4  N1  UNL     1      23.136   1.888  56.657  1.00  0.00    -0.349 N 
HETATM    5  C4  UNL     1      24.108   2.647  55.992  1.00  0.00     0.241 C 
HETATM    6  O1  UNL     1      23.764   3.724  55.427  1.00  0.00    -0.271 OA
ATOM      7  H1  UNL     1      23.403   1.019  57.117  1.00  0.00     0.163 HD
BRANCH   5   8
HETATM    8  C5  UNL     1      25.539   2.259  55.909  1.00  0.00     0.179 C 
HETATM    9  C6  UNL     1      26.401   3.496  55.837  1.00  0.00     0.066 C 
HETATM   10  C7  UNL     1      27.033   3.706  57.177  1.00  0.00     0.121 C 
HETATM   11  C8  UNL     1      28.449   3.149  57.256  1.00  0.00     0.054 C 
HETATM   12  C9  UNL     1      28.441   1.637  57.348  1.00  0.00     0.074 C 
HETATM   13  C10 UNL     1      28.647   1.023  55.955  1.00  0.00     0.023 C 
HETATM   14  C26 UNL     1      29.525   1.082  58.192  1.00  0.00     0.078 C 
HETATM   15  C27 UNL     1      27.076   1.238  57.771  1.00  0.00     0.230 C 
HETATM   16  C11 UNL     1      29.785   0.006  56.140  1.00  0.00     0.009 C 
HETATM   17  C12 UNL     1      30.594   0.712  57.160  1.00  0.00     0.026 C 
HETATM   18  C13 UNL     1      31.738  -0.003  57.726  1.00  0.00     0.001 C 
HETATM   19  C14 UNL     1      32.925   0.228  56.797  1.00  0.00     0.006 C 
HETATM   20  C22 UNL     1      32.178   0.382  59.110  1.00  0.00    -0.036 C 
HETATM   21  C15 UNL     1      34.115   0.147  57.720  1.00  0.00     0.006 C 
HETATM   22  C16 UNL     1      33.575   0.884  58.951  1.00  0.00    -0.002 C 
HETATM   23  C23 UNL     1      32.265  -0.933  59.890  1.00  0.00     0.016 C 
HETATM   24  C24 UNL     1      31.343   1.369  59.810  1.00  0.00     0.013 C 
HETATM   25  C25 UNL     1      30.247   2.052  59.058  1.00  0.00     0.040 C 
HETATM   26  O4  UNL     1      26.884   0.687  58.879  1.00  0.00    -0.273 OA
HETATM   27  N2  UNL     1      25.878   1.413  57.037  1.00  0.00    -0.347 N 
ATOM     28  H2  UNL     1      25.106   0.833  57.363  1.00  0.00     0.163 HD
BRANCH  10  29
HETATM   29  O2  UNL     1      27.154   5.090  57.379  1.00  0.00    -0.395 OA
ATOM     30  H2  UNL     1      27.491   5.226  58.257  1.00  0.00     0.210 HD
ENDBRANCH  10  29
BRANCH  22  31
HETATM   31  C17 UNL     1      34.543   0.631  60.041  1.00  0.00    -0.014 C 
HETATM   32  C18 UNL     1      35.794   0.095  59.315  1.00  0.00     0.010 C 
BRANCH  31  33
HETATM   33  C19 UNL     1      34.982   1.852  60.793  1.00  0.00     0.004 C 
BRANCH  33  34
HETATM   34  C20 UNL     1      34.237   1.960  62.104  1.00  0.00    -0.004 C 
HETATM   35  C21 UNL     1      34.052   0.589  62.737  1.00  0.00     0.005 C 
ENDBRANCH  33  34
ENDBRANCH  31  33
ENDBRANCH  22  31
BRANCH  14  36
HETATM   36  O3  UNL     1      29.152  -0.008  58.957  1.00  0.00    -0.388 OA
ATOM     37  H3  UNL     1      29.313   0.093  59.889  1.00  0.00     0.210 HD
ENDBRANCH  14  36
ENDBRANCH   5   8
ENDBRANCH   3   4
TORSDOF 7
ENDMDL
MODEL 2
REMARK VINA RESULT: -6.719039566      3.953      6.905
REMARK  7 active torsions:
REMARK  status: ('A' for Active; 'I' for Inactive)
REMARK    1  A    between atoms: C3_3  and  N1_4 
REMARK       I    between atoms: N1_4  and  C4_6 
REMARK    2  A    between atoms: C4_6  and  C5_8 
REMARK    3  A    between atoms: C7_10  and  O2_11 
REMARK    4  A    between atoms: C16_21  and  C17_22 
REMARK    5  A    between atoms: C17_22  and  C19_24 
REMARK    6  A    between atoms: C19_24  and  C20_25 
REMARK    7  A    between atoms: C26_31  and  O3_32 
ROOT
HETATM    1  C1  UNL     1      24.782   6.842  63.556  1.00  0.00     0.014 C 
HETATM    2  C2  UNL     1      25.289   5.796  63.247  1.00  0.00    -0.098 C 
HETATM    3  C3  UNL     1      25.886   4.509  62.872  1.00  0.00     0.216 C 
ENDROOT
BRANCH   3   4
HETATM    4  N1  UNL     1      26.595   4.617  61.624  1.00  0.00    -0.349 N 
HETATM    5  C4  UNL     1      26.748   3.502  60.788  1.00  0.00     0.241 C 
HETATM    6  O1  UNL     1      26.252   2.396  61.145  1.00  0.00    -0.271 OA
ATOM      7  H1  UNL     1      26.991   5.514  61.346  1.00  0.00     0.163 HD
BRANCH   5   8
HETATM    8  C5  UNL     1      27.467   3.542  59.489  1.00  0.00     0.179 C 
HETATM    9  C6  UNL     1      28.816   2.881  59.632  1.00  0.00     0.066 C 
HETATM   10  C7  UNL     1      28.745   1.525  59.004  1.00  0.00     0.121 C 
HETATM   11  C8  UNL     1      29.276   1.507  57.576  1.00  0.00     0.054 C 
HETATM   12  C9  UNL     1      28.297   2.152  56.616  1.00  0.00     0.074 C 
HETATM   13  C10 UNL     1      28.684   3.619  56.375  1.00  0.00     0.023 C 
HETATM   14  C26 UNL     1      28.269   1.521  55.275  1.00  0.00     0.078 C 
HETATM   15  C27 UNL     1      26.981   2.184  57.301  1.00  0.00     0.230 C 
HETATM   16  C11 UNL     1      28.704   3.771  54.845  1.00  0.00     0.009 C 
HETATM   17  C12 UNL     1      29.198   2.428  54.462  1.00  0.00     0.026 C 
HETATM   18  C13 UNL     1      29.236   2.106  53.036  1.00  0.00     0.001 C 
HETATM   19  C14 UNL     1      30.563   2.618  52.487  1.00  0.00     0.006 C 
HETATM   20  C22 UNL     1      29.128   0.657  52.651  1.00  0.00    -0.036 C 
HETATM   21  C15 UNL     1      30.860   1.677  51.348  1.00  0.00     0.006 C 
HETATM   22  C16 UNL     1      30.408   0.342  51.951  1.00  0.00    -0.002 C 
HETATM   23  C23 UNL     1      28.019   0.597  51.597  1.00  0.00     0.016 C 
HETATM   24  C24 UNL     1      28.882  -0.292  53.746  1.00  0.00     0.013 C 
HETATM   25  C25 UNL     1      28.939   0.199  55.156  1.00  0.00     0.040 C 
HETATM   26  O4  UNL     1      26.015   1.518  56.863  1.00  0.00    -0.273 OA
HETATM   27  N2  UNL     1      26.652   2.918  58.465  1.00  0.00    -0.347 N 
ATOM     28  H2  UNL     1      25.649   3.031  58.612  1.00  0.00     0.163 HD
BRANCH  10  29
HETATM   29  O2  UNL     1      29.584   0.671  59.736  1.00  0.00    -0.395 OA
ATOM     30  H2  UNL     1      30.062   0.133  59.115  1.00  0.00     0.210 HD
ENDBRANCH  10  29
BRANCH  22  31
HETATM   31  C17 UNL     1      30.380  -0.628  50.834  1.00  0.00    -0.014 C 
HETATM   32  C18 UNL     1      31.261   0.025  49.748  1.00  0.00     0.010 C 
BRANCH  31  33
HETATM   33  C19 UNL     1      30.999  -1.959  51.136  1.00  0.00     0.004 C 
BRANCH  33  34
HETATM   34  C20 UNL     1      29.927  -2.994  51.389  1.00  0.00    -0.004 C 
HETATM   35  C21 UNL     1      29.887  -3.385  52.859  1.00  0.00     0.005 C 
ENDBRANCH  33  34
ENDBRANCH  31  33
ENDBRANCH  22  31
BRANCH  14  36
HETATM   36  O3  UNL     1      27.010   1.437  54.710  1.00  0.00    -0.388 OA
ATOM     37  H3  UNL     1      26.966   0.899  53.927  1.00  0.00     0.210 HD
ENDBRANCH  14  36
ENDBRANCH   5   8
ENDBRANCH   3   4
TORSDOF 7
ENDMDL
MODEL 3
REMARK VINA RESULT: -6.715560562      1.525      2.448
REMARK  7 active torsions:
REMARK  status: ('A' for Active; 'I' for Inactive)
REMARK    1  A    between atoms: C3_3  and  N1_4 
REMARK       I    between atoms: N1_4  and  C4_6 
REMARK    2  A    between atoms: C4_6  and  C5_8 
REMARK    3  A    between atoms: C7_10  and  O2_11 
REMARK    4  A    between atoms: C16_21  and  C17_22 
REMARK    5  A    between atoms: C17_22  and  C19_24 
REMARK    6  A    between atoms: C19_24  and  C20_25 
REMARK    7  A    between atoms: C26_31  and  O3_32 
ROOT
HETATM    1  C1  UNL     1      20.565   0.663  57.202  1.00  0.00     0.014 C 
HETATM    2  C2  UNL     1      21.354   1.357  56.619  1.00  0.00    -0.098 C 
HETATM    3  C3  UNL     1      22.299   2.224  55.906  1.00  0.00     0.216 C 
ENDROOT
BRANCH   3   4
HETATM    4  N1  UNL     1      23.539   2.335  56.629  1.00  0.00    -0.349 N 
HETATM    5  C4  UNL     1      24.586   3.128  56.140  1.00  0.00     0.241 C 
HETATM    6  O1  UNL     1      24.427   3.748  55.052  1.00  0.00    -0.271 OA
ATOM      7  H1  UNL     1      23.656   1.830  57.508  1.00  0.00     0.163 HD
BRANCH   5   8
HETATM    8  C5  UNL     1      25.890   3.287  56.834  1.00  0.00     0.179 C 
HETATM    9  C6  UNL     1      25.726   2.987  58.303  1.00  0.00     0.066 C 
HETATM   10  C7  UNL     1      26.295   1.630  58.573  1.00  0.00     0.121 C 
HETATM   11  C8  UNL     1      27.724   1.681  59.099  1.00  0.00     0.054 C 
HETATM   12  C9  UNL     1      28.705   2.021  57.995  1.00  0.00     0.074 C 
HETATM   13  C10 UNL     1      29.012   3.526  58.008  1.00  0.00     0.023 C 
HETATM   14  C26 UNL     1      30.017   1.345  58.130  1.00  0.00     0.078 C 
HETATM   15  C27 UNL     1      28.014   1.756  56.708  1.00  0.00     0.230 C 
HETATM   16  C11 UNL     1      30.547   3.611  57.998  1.00  0.00     0.009 C 
HETATM   17  C12 UNL     1      30.874   2.417  58.810  1.00  0.00     0.026 C 
HETATM   18  C13 UNL     1      32.285   2.052  58.934  1.00  0.00     0.001 C 
HETATM   19  C14 UNL     1      32.864   2.851  60.096  1.00  0.00     0.006 C 
HETATM   20  C22 UNL     1      32.606   0.606  59.189  1.00  0.00    -0.036 C 
HETATM   21  C15 UNL     1      33.963   1.964  60.621  1.00  0.00     0.006 C 
HETATM   22  C16 UNL     1      33.300   0.587  60.510  1.00  0.00    -0.002 C 
HETATM   23  C23 UNL     1      33.650   0.228  58.134  1.00  0.00     0.016 C 
HETATM   24  C24 UNL     1      31.469  -0.326  59.180  1.00  0.00     0.013 C 
HETATM   25  C25 UNL     1      30.082   0.225  59.107  1.00  0.00     0.040 C 
HETATM   26  O4  UNL     1      28.417   0.854  55.939  1.00  0.00    -0.273 OA
HETATM   27  N2  UNL     1      26.880   2.437  56.203  1.00  0.00    -0.347 N 
ATOM     28  H2  UNL     1      26.733   2.305  55.202  1.00  0.00     0.163 HD
BRANCH  10  29
HETATM   29  O2  UNL     1      25.531   1.042  59.593  1.00  0.00    -0.395 OA
ATOM     30  H2  UNL     1      25.330   1.718  60.229  1.00  0.00     0.210 HD
ENDBRANCH  10  29
BRANCH  22  31
HETATM   31  C17 UNL     1      34.373  -0.408  60.728  1.00  0.00    -0.014 C 
HETATM   32  C18 UNL     1      35.522   0.411  61.353  1.00  0.00     0.010 C 
BRANCH  31  33
HETATM   33  C19 UNL     1      34.043  -1.490  61.712  1.00  0.00     0.004 C 
BRANCH  33  34
HETATM   34  C20 UNL     1      33.383  -0.904  62.939  1.00  0.00    -0.004 C 
HETATM   35  C21 UNL     1      33.740  -1.705  64.182  1.00  0.00     0.005 C 
ENDBRANCH  33  34
ENDBRANCH  31  33
ENDBRANCH  22  31
BRANCH  14  36
HETATM   36  O3  UNL     1      30.570   0.927  56.934  1.00  0.00    -0.388 OA
ATOM     37  H3  UNL     1      31.119   1.575  56.508  1.00  0.00     0.210 HD
ENDBRANCH  14  36
ENDBRANCH   5   8
ENDBRANCH   3   4
TORSDOF 7
ENDMDL
MODEL 4
REMARK VINA RESULT: -6.686880881      4.022      7.206
REMARK  7 active torsions:
REMARK  status: ('A' for Active; 'I' for Inactive)
REMARK    1  A    between atoms: C3_3  and  N1_4 
REMARK       I    between atoms: N1_4  and  C4_6 
REMARK    2  A    between atoms: C4_6  and  C5_8 
REMARK    3  A    between atoms: C7_10  and  O2_11 
REMARK    4  A    between atoms: C16_21  and  C17_22 
REMARK    5  A    between atoms: C17_22  and  C19_24 
REMARK    6  A    between atoms: C19_24  and  C20_25 
REMARK    7  A    between atoms: C26_31  and  O3_32 
ROOT
HETATM    1  C1  UNL     1      27.826   6.584  64.748  1.00  0.00     0.014 C 
HETATM    2  C2  UNL     1      27.042   6.360  63.865  1.00  0.00    -0.098 C 
HETATM    3  C3  UNL     1      26.083   6.111  62.784  1.00  0.00     0.216 C 
ENDROOT
BRANCH   3   4
HETATM    4  N1  UNL     1      26.635   5.211  61.805  1.00  0.00    -0.349 N 
HETATM    5  C4  UNL     1      26.073   3.944  61.598  1.00  0.00     0.241 C 
HETATM    6  O1  UNL     1      25.070   3.599  62.284  1.00  0.00    -0.271 OA
ATOM      7  H1  UNL     1      27.444   5.500  61.256  1.00  0.00     0.163 HD
BRANCH   5   8
HETATM    8  C5  UNL     1      26.592   2.967  60.607  1.00  0.00     0.179 C 
HETATM    9  C6  UNL     1      25.440   2.311  59.885  1.00  0.00     0.066 C 
HETATM   10  C7  UNL     1      25.337   2.914  58.519  1.00  0.00     0.121 C 
HETATM   11  C8  UNL     1      26.028   2.076  57.450  1.00  0.00     0.054 C 
HETATM   12  C9  UNL     1      27.535   2.204  57.540  1.00  0.00     0.074 C 
HETATM   13  C10 UNL     1      28.116   1.031  58.345  1.00  0.00     0.023 C 
HETATM   14  C26 UNL     1      28.220   2.163  56.226  1.00  0.00     0.078 C 
HETATM   15  C27 UNL     1      27.818   3.425  58.335  1.00  0.00     0.230 C 
HETATM   16  C11 UNL     1      29.242   0.471  57.460  1.00  0.00     0.009 C 
HETATM   17  C12 UNL     1      28.652   0.698  56.122  1.00  0.00     0.026 C 
HETATM   18  C13 UNL     1      29.491   0.412  54.958  1.00  0.00     0.001 C 
HETATM   19  C14 UNL     1      29.341  -1.072  54.640  1.00  0.00     0.006 C 
HETATM   20  C22 UNL     1      29.198   1.167  53.692  1.00  0.00    -0.036 C 
HETATM   21  C15 UNL     1      29.566  -1.137  53.151  1.00  0.00     0.006 C 
HETATM   22  C16 UNL     1      28.825   0.124  52.692  1.00  0.00    -0.002 C 
HETATM   23  C23 UNL     1      30.542   1.750  53.246  1.00  0.00     0.016 C 
HETATM   24  C24 UNL     1      28.161   2.206  53.777  1.00  0.00     0.013 C 
HETATM   25  C25 UNL     1      27.352   2.321  55.028  1.00  0.00     0.040 C 
HETATM   26  O4  UNL     1      28.387   4.410  57.815  1.00  0.00    -0.273 OA
HETATM   27  N2  UNL     1      27.505   3.635  59.700  1.00  0.00    -0.347 N 
ATOM     28  H2  UNL     1      28.021   4.404  60.127  1.00  0.00     0.163 HD
BRANCH  10  29
HETATM   29  O2  UNL     1      23.979   2.942  58.166  1.00  0.00    -0.395 OA
ATOM     30  H2  UNL     1      23.703   3.850  58.150  1.00  0.00     0.210 HD
ENDBRANCH  10  29
BRANCH  22  31
HETATM   31  C17 UNL     1      29.206   0.335  51.278  1.00  0.00    -0.014 C 
HETATM   32  C18 UNL     1      29.993  -0.939  50.907  1.00  0.00     0.010 C 
BRANCH  31  33
HETATM   33  C19 UNL     1      28.057   0.416  50.318  1.00  0.00     0.004 C 
BRANCH  33  34
HETATM   34  C20 UNL     1      27.573   1.842  50.194  1.00  0.00    -0.004 C 
HETATM   35  C21 UNL     1      28.745   2.805  50.075  1.00  0.00     0.005 C 
ENDBRANCH  33  34
ENDBRANCH  31  33
ENDBRANCH  22  31
BRANCH  14  36
HETATM   36  O3  UNL     1      29.295   3.025  56.115  1.00  0.00    -0.388 OA
ATOM     37  H3  UNL     1      29.689   3.052  55.251  1.00  0.00     0.210 HD
ENDBRANCH  14  36
ENDBRANCH   5   8
ENDBRANCH   3   4
TORSDOF 7
ENDMDL
MODEL 5
REMARK VINA RESULT: -6.580559605      5.033      9.355
REMARK  7 active torsions:
REMARK  status: ('A' for Active; 'I' for Inactive)
REMARK    1  A    between atoms: C3_3  and  N1_4 
REMARK       I    between atoms: N1_4  and  C4_6 
REMARK    2  A    between atoms: C4_6  and  C5_8 
REMARK    3  A    between atoms: C7_10  and  O2_11 
REMARK    4  A    between atoms: C16_21  and  C17_22 
REMARK    5  A    between atoms: C17_22  and  C19_24 
REMARK    6  A    between atoms: C19_24  and  C20_25 
REMARK    7  A    between atoms: C26_31  and  O3_32 
ROOT
HETATM    1  C1  UNL     1      37.906  -3.401  51.236  1.00  0.00     0.014 C 
HETATM    2  C2  UNL     1      36.772  -3.674  50.945  1.00  0.00    -0.098 C 
HETATM    3  C3  UNL     1      35.390  -4.030  50.604  1.00  0.00     0.216 C 
ENDROOT
BRANCH   3   4
HETATM    4  N1  UNL     1      34.479  -2.991  51.004  1.00  0.00    -0.349 N 
HETATM    5  C4  UNL     1      33.099  -3.127  50.796  1.00  0.00     0.241 C 
HETATM    6  O1  UNL     1      32.663  -4.180  50.251  1.00  0.00    -0.271 OA
ATOM      7  H1  UNL     1      34.841  -2.145  51.444  1.00  0.00     0.163 HD
BRANCH   5   8
HETATM    8  C5  UNL     1      32.104  -2.096  51.183  1.00  0.00     0.179 C 
HETATM    9  C6  UNL     1      30.736  -2.722  51.294  1.00  0.00     0.066 C 
HETATM   10  C7  UNL     1      30.412  -2.890  52.746  1.00  0.00     0.121 C 
HETATM   11  C8  UNL     1      29.553  -1.756  53.294  1.00  0.00     0.054 C 
HETATM   12  C9  UNL     1      30.366  -0.492  53.483  1.00  0.00     0.074 C 
HETATM   13  C10 UNL     1      30.197   0.430  52.266  1.00  0.00     0.023 C 
HETATM   14  C26 UNL     1      29.955   0.316  54.656  1.00  0.00     0.078 C 
HETATM   15  C27 UNL     1      31.795  -0.896  53.494  1.00  0.00     0.230 C 
HETATM   16  C11 UNL     1      29.831   1.799  52.862  1.00  0.00     0.009 C 
HETATM   17  C12 UNL     1      29.031   1.364  54.029  1.00  0.00     0.026 C 
HETATM   18  C13 UNL     1      28.590   2.396  54.967  1.00  0.00     0.001 C 
HETATM   19  C14 UNL     1      27.280   2.967  54.435  1.00  0.00     0.006 C 
HETATM   20  C22 UNL     1      28.344   1.978  56.390  1.00  0.00    -0.036 C 
HETATM   21  C15 UNL     1      26.554   3.404  55.681  1.00  0.00     0.006 C 
HETATM   22  C16 UNL     1      26.897   2.253  56.633  1.00  0.00    -0.002 C 
HETATM   23  C23 UNL     1      29.134   2.971  57.248  1.00  0.00     0.016 C 
HETATM   24  C24 UNL     1      28.679   0.588  56.729  1.00  0.00     0.013 C 
HETATM   25  C25 UNL     1      29.054  -0.354  55.632  1.00  0.00     0.040 C 
HETATM   26  O4  UNL     1      32.492  -0.757  54.524  1.00  0.00    -0.273 OA
HETATM   27  N2  UNL     1      32.522  -1.458  52.416  1.00  0.00    -0.347 N 
ATOM     28  H2  UNL     1      33.534  -1.403  52.529  1.00  0.00     0.163 HD
BRANCH  10  29
HETATM   29  O2  UNL     1      29.639  -4.055  52.879  1.00  0.00    -0.395 OA
ATOM     30  H2  UNL     1      29.689  -4.331  53.786  1.00  0.00     0.210 HD
ENDBRANCH  10  29
BRANCH  22  31
HETATM   31  C17 UNL     1      26.480   2.694  57.983  1.00  0.00    -0.014 C 
HETATM   32  C18 UNL     1      25.716   4.010  57.728  1.00  0.00     0.010 C 
BRANCH  31  33
HETATM   33  C19 UNL     1      25.521   1.777  58.680  1.00  0.00     0.004 C 
BRANCH  33  34
HETATM   34  C20 UNL     1      24.101   2.265  58.504  1.00  0.00    -0.004 C 
HETATM   35  C21 UNL     1      23.176   1.118  58.129  1.00  0.00     0.005 C 
ENDBRANCH  33  34
ENDBRANCH  31  33
ENDBRANCH  22  31
BRANCH  14  36
HETATM   36  O3  UNL     1      31.003   0.900  55.343  1.00  0.00    -0.388 OA
ATOM     37  H3  UNL     1      31.647   0.284  55.674  1.00  0.00     0.210 HD
ENDBRANCH  14  36
ENDBRANCH   5   8
ENDBRANCH   3   4
TORSDOF 7
ENDMDL
