MODEL 1
REMARK VINA RESULT: -8.035395815      0.000      0.000
REMARK  5 active torsions:
REMARK  status: ('A' for Active; 'I' for Inactive)
REMARK    1  A    between atoms: C2_2  and  C3_3 
REMARK       I    between atoms: C3_3  and  N1_5 
REMARK    2  A    between atoms: N1_5  and  S1_7 
REMARK    3  A    between atoms: C14_21  and  C15_22 
REMARK       I    between atoms: C15_22  and  N2_24 
REMARK    4  A    between atoms: N2_24  and  C16_26 
REMARK    5  A    between atoms: C16_26  and  C17_27 
ROOT
HETATM    1  C1  UNL     1      24.639   3.763  58.115  1.00  0.00     0.026 C 
HETATM    2  C2  UNL     1      24.425   2.365  57.657  1.00  0.00     0.042 C 
HETATM    3  C4  UNL     1      24.760   1.470  58.868  1.00  0.00     0.020 C 
HETATM    4  C5  UNL     1      26.301   1.594  58.752  1.00  0.00     0.007 C 
HETATM    5  C6  UNL     1      26.422   1.141  57.330  1.00  0.00    -0.004 C 
HETATM    6  C7  UNL     1      25.374   1.889  56.573  1.00  0.00     0.007 C 
HETATM    7  C8  UNL     1      25.755   2.886  55.583  1.00  0.00     0.007 C 
HETATM    8  C9  UNL     1      27.171   2.957  55.129  1.00  0.00     0.010 C 
HETATM    9  C10 UNL     1      28.181   2.457  56.075  1.00  0.00    -0.036 C 
HETATM   10  C11 UNL     1      28.555   3.489  57.140  1.00  0.00     0.016 C 
HETATM   11  C12 UNL     1      29.507   2.037  55.536  1.00  0.00    -0.001 C 
HETATM   12  C13 UNL     1      29.603   1.065  54.459  1.00  0.00     0.020 C 
HETATM   13  C14 UNL     1      30.883   0.299  54.761  1.00  0.00     0.078 C 
HETATM   14  C20 UNL     1      31.134   0.464  56.255  1.00  0.00     0.019 C 
HETATM   15  C21 UNL     1      30.076   1.347  56.802  1.00  0.00    -0.009 C 
HETATM   16  C22 UNL     1      28.898   0.673  57.430  1.00  0.00     0.011 C 
HETATM   17  C23 UNL     1      27.725   1.162  56.681  1.00  0.00    -0.001 C 
ENDROOT
BRANCH   2  18
HETATM   18  C3  UNL     1      22.999   2.101  57.332  1.00  0.00     0.241 C 
HETATM   19  O1  UNL     1      22.209   3.021  56.949  1.00  0.00    -0.272 OA
HETATM   20  N1  UNL     1      22.468   0.797  57.443  1.00  0.00    -0.235 N 
ATOM     21  H1  UNL     1      23.085   0.045  57.750  1.00  0.00     0.184 HD
BRANCH  20  22
HETATM   22  S1  UNL     1      20.831   0.421  57.084  1.00  0.00     0.211 S 
HETATM   23  O2  UNL     1      20.671  -1.081  57.144  1.00  0.00    -0.578 OA
HETATM   24  O3  UNL     1      19.937   1.016  58.142  1.00  0.00    -0.578 OA
HETATM   25  O4  UNL     1      20.340   1.033  55.591  1.00  0.00    -0.578 OA
ENDBRANCH  20  22
ENDBRANCH   2  18
BRANCH  13  26
HETATM   26  C15 UNL     1      30.803  -1.137  54.425  1.00  0.00     0.221 C 
HETATM   27  O5  UNL     1      31.623  -1.989  54.917  1.00  0.00    -0.273 OA
HETATM   28  N2  UNL     1      29.797  -1.588  53.532  1.00  0.00    -0.360 N 
ATOM     29  H2  UNL     1      29.131  -0.926  53.134  1.00  0.00     0.162 HD
BRANCH  28  30
HETATM   30  C16 UNL     1      29.723  -2.972  53.196  1.00  0.00     0.127 C 
BRANCH  30  31
HETATM   31  C17 UNL     1      30.024  -3.306  51.783  1.00  0.00     0.003 A 
HETATM   32  C18 UNL     1      30.059  -4.716  51.314  1.00  0.00     0.007 A 
HETATM   33  C19 UNL     1      31.328  -3.893  51.325  1.00  0.00     0.007 A 
ENDBRANCH  30  31
ENDBRANCH  28  30
ENDBRANCH  13  26
TORSDOF 5
ENDMDL
MODEL 2
REMARK VINA RESULT: -7.830015013      2.019      3.095
REMARK  5 active torsions:
REMARK  status: ('A' for Active; 'I' for Inactive)
REMARK    1  A    between atoms: C2_2  and  C3_3 
REMARK       I    between atoms: C3_3  and  N1_5 
REMARK    2  A    between atoms: N1_5  and  S1_7 
REMARK    3  A    between atoms: C14_21  and  C15_22 
REMARK       I    between atoms: C15_22  and  N2_24 
REMARK    4  A    between atoms: N2_24  and  C16_26 
REMARK    5  A    between atoms: C16_26  and  C17_27 
ROOT
HETATM    1  C1  UNL     1      27.760   3.021  57.973  1.00  0.00     0.026 C 
HETATM    2  C2  UNL     1      27.238   1.633  57.877  1.00  0.00     0.042 C 
HETATM    3  C4  UNL     1      28.142   0.780  58.792  1.00  0.00     0.020 C 
HETATM    4  C5  UNL     1      29.352   0.716  57.825  1.00  0.00     0.007 C 
HETATM    5  C6  UNL     1      28.621   0.166  56.640  1.00  0.00    -0.004 C 
HETATM    6  C7  UNL     1      27.377   0.984  56.512  1.00  0.00     0.007 C 
HETATM    7  C8  UNL     1      27.194   1.869  55.370  1.00  0.00     0.007 C 
HETATM    8  C9  UNL     1      28.108   1.745  54.201  1.00  0.00     0.010 C 
HETATM    9  C10 UNL     1      29.443   1.190  54.477  1.00  0.00    -0.036 C 
HETATM   10  C11 UNL     1      30.416   2.233  55.026  1.00  0.00     0.016 C 
HETATM   11  C12 UNL     1      30.203   0.585  53.345  1.00  0.00    -0.001 C 
HETATM   12  C13 UNL     1      29.614  -0.455  52.517  1.00  0.00     0.020 C 
HETATM   13  C14 UNL     1      30.790  -1.346  52.143  1.00  0.00     0.078 C 
HETATM   14  C20 UNL     1      31.850  -1.121  53.215  1.00  0.00     0.019 C 
HETATM   15  C21 UNL     1      31.343  -0.088  54.151  1.00  0.00    -0.009 C 
HETATM   16  C22 UNL     1      30.686  -0.581  55.400  1.00  0.00     0.011 C 
HETATM   17  C23 UNL     1      29.328  -0.004  55.379  1.00  0.00    -0.001 C 
ENDROOT
BRANCH   2  18
HETATM   18  C3  UNL     1      25.864   1.518  58.433  1.00  0.00     0.241 C 
HETATM   19  O1  UNL     1      25.646   1.145  59.629  1.00  0.00    -0.272 OA
HETATM   20  N1  UNL     1      24.740   1.825  57.636  1.00  0.00    -0.235 N 
ATOM     21  H1  UNL     1      24.894   2.126  56.673  1.00  0.00     0.184 HD
BRANCH  20  22
HETATM   22  S1  UNL     1      23.127   1.715  58.213  1.00  0.00     0.211 S 
HETATM   23  O2  UNL     1      23.098   2.242  59.629  1.00  0.00    -0.578 OA
HETATM   24  O3  UNL     1      22.235   2.600  57.379  1.00  0.00    -0.578 OA
HETATM   25  O4  UNL     1      22.516   0.144  58.129  1.00  0.00    -0.578 OA
ENDBRANCH  20  22
ENDBRANCH   2  18
BRANCH  13  26
HETATM   26  C15 UNL     1      30.445  -2.780  52.078  1.00  0.00     0.221 C 
HETATM   27  O5  UNL     1      29.640  -3.317  52.915  1.00  0.00    -0.273 OA
HETATM   28  N2  UNL     1      31.022  -3.588  51.064  1.00  0.00    -0.360 N 
ATOM     29  H2  UNL     1      31.662  -3.179  50.384  1.00  0.00     0.162 HD
BRANCH  28  30
HETATM   30  C16 UNL     1      30.702  -4.977  51.004  1.00  0.00     0.127 C 
BRANCH  30  31
HETATM   31  C17 UNL     1      31.818  -5.878  50.629  1.00  0.00     0.003 A 
HETATM   32  C18 UNL     1      33.130  -5.338  50.187  1.00  0.00     0.007 A 
HETATM   33  C19 UNL     1      32.264  -6.108  49.214  1.00  0.00     0.007 A 
ENDBRANCH  30  31
ENDBRANCH  28  30
ENDBRANCH  13  26
TORSDOF 5
ENDMDL
MODEL 3
REMARK VINA RESULT: -7.630779104      1.643      2.330
REMARK  5 active torsions:
REMARK  status: ('A' for Active; 'I' for Inactive)
REMARK    1  A    between atoms: C2_2  and  C3_3 
REMARK       I    between atoms: C3_3  and  N1_5 
REMARK    2  A    between atoms: N1_5  and  S1_7 
REMARK    3  A    between atoms: C14_21  and  C15_22 
REMARK       I    between atoms: C15_22  and  N2_24 
REMARK    4  A    between atoms: N2_24  and  C16_26 
REMARK    5  A    between atoms: C16_26  and  C17_27 
ROOT
HETATM    1  C1  UNL     1      27.179   3.531  57.957  1.00  0.00     0.026 C 
HETATM    2  C2  UNL     1      26.541   2.220  57.666  1.00  0.00     0.042 C 
HETATM    3  C4  UNL     1      27.116   1.233  58.704  1.00  0.00     0.020 C 
HETATM    4  C5  UNL     1      28.498   1.055  58.024  1.00  0.00     0.007 C 
HETATM    5  C6  UNL     1      27.995   0.639  56.677  1.00  0.00    -0.004 C 
HETATM    6  C7  UNL     1      26.911   1.606  56.329  1.00  0.00     0.007 C 
HETATM    7  C8  UNL     1      27.089   2.544  55.229  1.00  0.00     0.007 C 
HETATM    8  C9  UNL     1      28.223   2.350  54.284  1.00  0.00     0.010 C 
HETATM    9  C10 UNL     1      29.392   1.627  54.812  1.00  0.00    -0.036 C 
HETATM   10  C11 UNL     1      30.326   2.526  55.624  1.00  0.00     0.016 C 
HETATM   11  C12 UNL     1      30.315   0.973  53.841  1.00  0.00    -0.001 C 
HETATM   12  C13 UNL     1      29.816   0.041  52.843  1.00  0.00     0.020 C 
HETATM   13  C14 UNL     1      30.940  -0.973  52.683  1.00  0.00     0.078 C 
HETATM   14  C20 UNL     1      31.750  -0.914  53.973  1.00  0.00     0.019 C 
HETATM   15  C21 UNL     1      31.163   0.140  54.835  1.00  0.00    -0.009 C 
HETATM   16  C22 UNL     1      30.191  -0.312  55.878  1.00  0.00     0.011 C 
HETATM   17  C23 UNL     1      28.945   0.427  55.594  1.00  0.00    -0.001 C 
ENDROOT
BRANCH   2  18
HETATM   18  C3  UNL     1      25.073   2.254  57.899  1.00  0.00     0.241 C 
HETATM   19  O1  UNL     1      24.435   3.345  58.045  1.00  0.00    -0.272 OA
HETATM   20  N1  UNL     1      24.331   1.056  57.967  1.00  0.00    -0.235 N 
ATOM     21  H1  UNL     1      24.824   0.170  57.853  1.00  0.00     0.184 HD
BRANCH  20  22
HETATM   22  S1  UNL     1      22.634   1.021  58.233  1.00  0.00     0.211 S 
HETATM   23  O2  UNL     1      22.154  -0.395  58.018  1.00  0.00    -0.578 OA
HETATM   24  O3  UNL     1      22.344   1.387  59.667  1.00  0.00    -0.578 OA
HETATM   25  O4  UNL     1      21.803   2.110  57.247  1.00  0.00    -0.578 OA
ENDBRANCH  20  22
ENDBRANCH   2  18
BRANCH  13  26
HETATM   26  C15 UNL     1      30.462  -2.351  52.458  1.00  0.00     0.221 C 
HETATM   27  O5  UNL     1      29.650  -2.923  53.266  1.00  0.00    -0.273 OA
HETATM   28  N2  UNL     1      30.915  -3.067  51.319  1.00  0.00    -0.360 N 
ATOM     29  H2  UNL     1      31.557  -2.628  50.660  1.00  0.00     0.162 HD
BRANCH  28  30
HETATM   30  C16 UNL     1      30.465  -4.404  51.103  1.00  0.00     0.127 C 
BRANCH  30  31
HETATM   31  C17 UNL     1      31.530  -5.428  50.985  1.00  0.00     0.003 A 
HETATM   32  C18 UNL     1      32.885  -5.078  50.485  1.00  0.00     0.007 A 
HETATM   33  C19 UNL     1      31.997  -5.999  49.677  1.00  0.00     0.007 A 
ENDBRANCH  30  31
ENDBRANCH  28  30
ENDBRANCH  13  26
TORSDOF 5
ENDMDL
MODEL 4
REMARK VINA RESULT: -7.570688111      1.837      2.693
REMARK  5 active torsions:
REMARK  status: ('A' for Active; 'I' for Inactive)
REMARK    1  A    between atoms: C2_2  and  C3_3 
REMARK       I    between atoms: C3_3  and  N1_5 
REMARK    2  A    between atoms: N1_5  and  S1_7 
REMARK    3  A    between atoms: C14_21  and  C15_22 
REMARK       I    between atoms: C15_22  and  N2_24 
REMARK    4  A    between atoms: N2_24  and  C16_26 
REMARK    5  A    between atoms: C16_26  and  C17_27 
ROOT
HETATM    1  C1  UNL     1      27.621   2.923  58.625  1.00  0.00     0.026 C 
HETATM    2  C2  UNL     1      26.972   1.851  57.826  1.00  0.00     0.042 C 
HETATM    3  C4  UNL     1      27.417   0.521  58.470  1.00  0.00     0.020 C 
HETATM    4  C5  UNL     1      28.849   0.514  57.878  1.00  0.00     0.007 C 
HETATM    5  C6  UNL     1      28.461   0.646  56.439  1.00  0.00    -0.004 C 
HETATM    6  C7  UNL     1      27.445   1.741  56.389  1.00  0.00     0.007 C 
HETATM    7  C8  UNL     1      27.754   3.000  55.726  1.00  0.00     0.007 C 
HETATM    8  C9  UNL     1      28.964   3.091  54.864  1.00  0.00     0.010 C 
HETATM    9  C10 UNL     1      30.055   2.153  55.176  1.00  0.00    -0.036 C 
HETATM   10  C11 UNL     1      30.937   2.636  56.328  1.00  0.00     0.016 C 
HETATM   11  C12 UNL     1      31.044   1.839  54.105  1.00  0.00    -0.001 C 
HETATM   12  C13 UNL     1      30.609   1.365  52.800  1.00  0.00     0.020 C 
HETATM   13  C14 UNL     1      31.711   0.409  52.364  1.00  0.00     0.078 C 
HETATM   14  C20 UNL     1      32.400  -0.055  53.643  1.00  0.00     0.019 C 
HETATM   15  C21 UNL     1      31.768   0.649  54.784  1.00  0.00    -0.009 C 
HETATM   16  C22 UNL     1      30.690  -0.086  55.513  1.00  0.00     0.011 C 
HETATM   17  C23 UNL     1      29.500   0.782  55.427  1.00  0.00    -0.001 C 
ENDROOT
BRANCH   2  18
HETATM   18  C3  UNL     1      25.491   1.891  57.945  1.00  0.00     0.241 C 
HETATM   19  O1  UNL     1      24.900   1.862  59.071  1.00  0.00    -0.272 OA
HETATM   20  N1  UNL     1      24.681   1.963  56.791  1.00  0.00    -0.235 N 
ATOM     21  H1  UNL     1      25.136   1.987  55.879  1.00  0.00     0.184 HD
BRANCH  20  22
HETATM   22  S1  UNL     1      22.966   2.013  56.855  1.00  0.00     0.211 S 
HETATM   23  O2  UNL     1      22.555   3.359  57.407  1.00  0.00    -0.578 OA
HETATM   24  O3  UNL     1      22.409   1.906  55.457  1.00  0.00    -0.578 OA
HETATM   25  O4  UNL     1      22.315   0.750  57.766  1.00  0.00    -0.578 OA
ENDBRANCH  20  22
ENDBRANCH   2  18
BRANCH  13  26
HETATM   26  C15 UNL     1      31.212  -0.761  51.614  1.00  0.00     0.221 C 
HETATM   27  O5  UNL     1      31.636  -1.036  50.438  1.00  0.00    -0.273 OA
HETATM   28  N2  UNL     1      30.235  -1.602  52.207  1.00  0.00    -0.360 N 
ATOM     29  H2  UNL     1      29.889  -1.404  53.145  1.00  0.00     0.162 HD
BRANCH  28  30
HETATM   30  C16 UNL     1      29.742  -2.727  51.481  1.00  0.00     0.127 C 
BRANCH  30  31
HETATM   31  C17 UNL     1      30.362  -4.031  51.818  1.00  0.00     0.003 A 
HETATM   32  C18 UNL     1      31.505  -4.568  51.034  1.00  0.00     0.007 A 
HETATM   33  C19 UNL     1      30.171  -5.280  51.008  1.00  0.00     0.007 A 
ENDBRANCH  30  31
ENDBRANCH  28  30
ENDBRANCH  13  26
TORSDOF 5
ENDMDL
MODEL 5
REMARK VINA RESULT: -7.381751378      1.753      2.333
REMARK  5 active torsions:
REMARK  status: ('A' for Active; 'I' for Inactive)
REMARK    1  A    between atoms: C2_2  and  C3_3 
REMARK       I    between atoms: C3_3  and  N1_5 
REMARK    2  A    between atoms: N1_5  and  S1_7 
REMARK    3  A    between atoms: C14_21  and  C15_22 
REMARK       I    between atoms: C15_22  and  N2_24 
REMARK    4  A    between atoms: N2_24  and  C16_26 
REMARK    5  A    between atoms: C16_26  and  C17_27 
ROOT
HETATM    1  C1  UNL     1      24.637   3.234  58.714  1.00  0.00     0.026 C 
HETATM    2  C2  UNL     1      24.656   1.925  58.010  1.00  0.00     0.042 C 
HETATM    3  C4  UNL     1      25.699   1.064  58.754  1.00  0.00     0.020 C 
HETATM    4  C5  UNL     1      26.951   1.751  58.151  1.00  0.00     0.007 C 
HETATM    5  C6  UNL     1      26.597   1.559  56.709  1.00  0.00    -0.004 C 
HETATM    6  C7  UNL     1      25.166   1.968  56.582  1.00  0.00     0.007 C 
HETATM    7  C8  UNL     1      24.807   3.155  55.818  1.00  0.00     0.007 C 
HETATM    8  C9  UNL     1      25.827   3.790  54.939  1.00  0.00     0.010 C 
HETATM    9  C10 UNL     1      27.233   3.573  55.315  1.00  0.00    -0.036 C 
HETATM   10  C11 UNL     1      27.705   4.523  56.416  1.00  0.00     0.016 C 
HETATM   11  C12 UNL     1      28.278   3.733  54.263  1.00  0.00    -0.001 C 
HETATM   12  C13 UNL     1      28.192   3.009  53.005  1.00  0.00     0.020 C 
HETATM   13  C14 UNL     1      29.641   2.726  52.637  1.00  0.00     0.078 C 
HETATM   14  C20 UNL     1      30.428   2.777  53.941  1.00  0.00     0.019 C 
HETATM   15  C21 UNL     1      29.487   3.139  55.029  1.00  0.00    -0.009 C 
HETATM   16  C22 UNL     1      28.916   2.010  55.824  1.00  0.00     0.011 C 
HETATM   17  C23 UNL     1      27.453   2.134  55.680  1.00  0.00    -0.001 C 
ENDROOT
BRANCH   2  18
HETATM   18  C3  UNL     1      23.361   1.207  58.140  1.00  0.00     0.241 C 
HETATM   19  O1  UNL     1      23.028   0.597  59.204  1.00  0.00    -0.272 OA
HETATM   20  N1  UNL     1      22.446   1.180  57.065  1.00  0.00    -0.235 N 
ATOM     21  H1  UNL     1      22.695   1.663  56.202  1.00  0.00     0.184 HD
BRANCH  20  22
HETATM   22  S1  UNL     1      20.933   0.371  57.145  1.00  0.00     0.211 S 
HETATM   23  O2  UNL     1      20.129   0.990  58.265  1.00  0.00    -0.578 OA
HETATM   24  O3  UNL     1      20.175   0.598  55.861  1.00  0.00    -0.578 OA
HETATM   25  O4  UNL     1      21.102  -1.295  57.355  1.00  0.00    -0.578 OA
ENDBRANCH  20  22
ENDBRANCH   2  18
BRANCH  13  26
HETATM   26  C15 UNL     1      29.838   1.415  51.987  1.00  0.00     0.221 C 
HETATM   27  O5  UNL     1      29.453   1.194  50.786  1.00  0.00    -0.273 OA
HETATM   28  N2  UNL     1      30.467   0.368  52.711  1.00  0.00    -0.360 N 
ATOM     29  H2  UNL     1      30.786   0.525  53.666  1.00  0.00     0.162 HD
BRANCH  28  30
HETATM   30  C16 UNL     1      30.649  -0.904  52.092  1.00  0.00     0.127 C 
BRANCH  30  31
HETATM   31  C17 UNL     1      29.637  -1.933  52.430  1.00  0.00     0.003 A 
HETATM   32  C18 UNL     1      29.691  -2.675  53.717  1.00  0.00     0.007 A 
HETATM   33  C19 UNL     1      29.911  -3.410  52.413  1.00  0.00     0.007 A 
ENDBRANCH  30  31
ENDBRANCH  28  30
ENDBRANCH  13  26
TORSDOF 5
ENDMDL
