MODEL 1
REMARK VINA RESULT: -7.813156505      0.000      0.000
REMARK  8 active torsions:
REMARK  status: ('A' for Active; 'I' for Inactive)
REMARK       I    between atoms: C1_4  and  N3_6 
REMARK    1  A    between atoms: N3_6  and  C2_8 
REMARK    2  A    between atoms: C4_10  and  C5_11 
REMARK    3  A    between atoms: C5_11  and  C6_12 
REMARK    4  A    between atoms: C6_12  and  N4_13 
REMARK    5  A    between atoms: N4_13  and  C7_16 
REMARK    6  A    between atoms: C7_16  and  C8_17 
REMARK    7  A    between atoms: C13_22  and  N5_23 
REMARK    8  A    between atoms: N5_23  and  O1_25 
ROOT
HETATM    1  C6  UNL     1     187.879 128.414  28.996  1.00  0.00     0.236 C 
ENDROOT
BRANCH   1   2
HETATM    2  C5  UNL     1     186.543 127.762  29.261  1.00  0.00     0.061 C 
BRANCH   2   3
HETATM    3  C4  UNL     1     186.534 127.130  30.595  1.00  0.00    -0.080 C 
HETATM    4  C3  UNL     1     186.781 125.837  30.680  1.00  0.00     0.001 C 
HETATM    5  C2  UNL     1     186.803 125.089  31.941  1.00  0.00     0.107 C 
HETATM    6  C16 UNL     1     186.976 125.965  33.157  1.00  0.00     0.029 C 
HETATM    7  C15 UNL     1     186.182 127.235  33.077  1.00  0.00     0.007 C 
HETATM    8  C14 UNL     1     186.257 127.935  31.774  1.00  0.00     0.034 C 
BRANCH   5   9
HETATM    9  N3  UNL     1     187.903 124.155  31.924  1.00  0.00    -0.357 N 
HETATM   10  C1  UNL     1     187.715 122.759  31.769  1.00  0.00     0.182 C 
HETATM   11  N1  UNL     1     188.547 121.913  32.316  1.00  0.00    -0.374 N 
HETATM   12  N2  UNL     1     186.648 122.198  31.033  1.00  0.00    -0.064 NA
ATOM     13  H12 UNL     1     188.411 120.908  32.204  1.00  0.00     0.158 HD
ATOM     14  H11 UNL     1     189.318 122.318  32.847  1.00  0.00     0.158 HD
ATOM     15  H3  UNL     1     188.853 124.513  32.029  1.00  0.00     0.162 HD
ENDBRANCH   5   9
ENDBRANCH   2   3
ENDBRANCH   1   2
BRANCH   1  16
HETATM   16  N4  UNL     1     187.727 129.774  28.512  1.00  0.00    -0.074 N 
ATOM     17  H42 UNL     1     186.754 130.066  28.424  1.00  0.00     0.277 HD
ATOM     18  H41 UNL     1     188.009 130.480  29.193  1.00  0.00     0.277 HD
BRANCH  16  19
HETATM   19  C7  UNL     1     188.466 129.850  27.268  1.00  0.00     0.239 C 
BRANCH  19  20
HETATM   20  C8  UNL     1     187.688 130.631  26.209  1.00  0.00     0.036 C 
HETATM   21  C9  UNL     1     187.027 131.780  26.906  1.00  0.00     0.008 C 
HETATM   22  C10 UNL     1     185.875 132.375  26.160  1.00  0.00     0.001 C 
HETATM   23  C11 UNL     1     185.012 131.387  25.456  1.00  0.00     0.002 C 
HETATM   24  C12 UNL     1     185.837 130.402  24.642  1.00  0.00     0.027 C 
HETATM   25  C13 UNL     1     186.689 129.653  25.629  1.00  0.00     0.111 C 
BRANCH  25  26
HETATM   26  N5  UNL     1     187.333 128.519  25.102  1.00  0.00    -0.300 N 
ATOM     27  H5  UNL     1     187.523 127.757  25.752  1.00  0.00     0.187 HD
BRANCH  26  28
HETATM   28  O1  UNL     1     187.678 128.359  23.979  1.00  0.00    -0.294 OA
ATOM     29  H1  UNL     1     187.242 127.829  23.321  1.00  0.00     0.244 HD
ENDBRANCH  26  28
ENDBRANCH  25  26
ENDBRANCH  19  20
ENDBRANCH  16  19
ENDBRANCH   1  16
TORSDOF 8
ENDMDL
MODEL 2
REMARK VINA RESULT: -7.807951403      1.856      2.175
REMARK  8 active torsions:
REMARK  status: ('A' for Active; 'I' for Inactive)
REMARK       I    between atoms: C1_4  and  N3_6 
REMARK    1  A    between atoms: N3_6  and  C2_8 
REMARK    2  A    between atoms: C4_10  and  C5_11 
REMARK    3  A    between atoms: C5_11  and  C6_12 
REMARK    4  A    between atoms: C6_12  and  N4_13 
REMARK    5  A    between atoms: N4_13  and  C7_16 
REMARK    6  A    between atoms: C7_16  and  C8_17 
REMARK    7  A    between atoms: C13_22  and  N5_23 
REMARK    8  A    between atoms: N5_23  and  O1_25 
ROOT
HETATM    1  C6  UNL     1     186.112 129.358  30.241  1.00  0.00     0.236 C 
ENDROOT
BRANCH   1   2
HETATM    2  C5  UNL     1     186.510 127.943  29.895  1.00  0.00     0.061 C 
BRANCH   2   3
HETATM    3  C4  UNL     1     186.504 127.095  31.104  1.00  0.00    -0.080 C 
HETATM    4  C3  UNL     1     186.777 125.812  30.973  1.00  0.00     0.001 C 
HETATM    5  C2  UNL     1     186.806 124.863  32.091  1.00  0.00     0.107 C 
HETATM    6  C16 UNL     1     186.951 125.525  33.438  1.00  0.00     0.029 C 
HETATM    7  C15 UNL     1     186.131 126.774  33.564  1.00  0.00     0.007 C 
HETATM    8  C14 UNL     1     186.200 127.685  32.399  1.00  0.00     0.034 C 
BRANCH   5   9
HETATM    9  N3  UNL     1     187.925 123.967  31.930  1.00  0.00    -0.357 N 
HETATM   10  C1  UNL     1     187.782 122.557  31.954  1.00  0.00     0.182 C 
HETATM   11  N1  UNL     1     188.754 121.800  32.391  1.00  0.00    -0.374 N 
HETATM   12  N2  UNL     1     186.615 121.888  31.523  1.00  0.00    -0.064 NA
ATOM     13  H12 UNL     1     188.651 120.785  32.408  1.00  0.00     0.158 HD
ATOM     14  H11 UNL     1     189.597 122.283  32.701  1.00  0.00     0.158 HD
ATOM     15  H3  UNL     1     188.856 124.363  31.793  1.00  0.00     0.162 HD
ENDBRANCH   5   9
ENDBRANCH   2   3
ENDBRANCH   1   2
BRANCH   1  16
HETATM   16  N4  UNL     1     185.629 130.081  29.079  1.00  0.00    -0.074 N 
ATOM     17  H42 UNL     1     184.760 130.588  29.249  1.00  0.00     0.277 HD
ATOM     18  H41 UNL     1     186.203 130.890  28.839  1.00  0.00     0.277 HD
BRANCH  16  19
HETATM   19  C7  UNL     1     185.527 129.110  28.008  1.00  0.00     0.239 C 
BRANCH  19  20
HETATM   20  C8  UNL     1     186.159 129.638  26.720  1.00  0.00     0.036 C 
HETATM   21  C9  UNL     1     187.618 129.836  26.993  1.00  0.00     0.008 C 
HETATM   22  C10 UNL     1     188.305 130.761  26.039  1.00  0.00     0.001 C 
HETATM   23  C11 UNL     1     187.498 131.943  25.628  1.00  0.00     0.002 C 
HETATM   24  C12 UNL     1     186.094 131.541  25.201  1.00  0.00     0.027 C 
HETATM   25  C13 UNL     1     185.444 130.937  26.415  1.00  0.00     0.111 C 
BRANCH  25  26
HETATM   26  N5  UNL     1     184.057 130.740  26.298  1.00  0.00    -0.300 N 
ATOM     27  H5  UNL     1     183.711 130.453  25.383  1.00  0.00     0.187 HD
BRANCH  26  28
HETATM   28  O1  UNL     1     183.248 130.875  27.155  1.00  0.00    -0.294 OA
ATOM     29  H1  UNL     1     182.420 131.336  27.086  1.00  0.00     0.244 HD
ENDBRANCH  26  28
ENDBRANCH  25  26
ENDBRANCH  19  20
ENDBRANCH  16  19
ENDBRANCH   1  16
TORSDOF 8
ENDMDL
MODEL 3
REMARK VINA RESULT: -7.773920750      1.348      1.479
REMARK  8 active torsions:
REMARK  status: ('A' for Active; 'I' for Inactive)
REMARK       I    between atoms: C1_4  and  N3_6 
REMARK    1  A    between atoms: N3_6  and  C2_8 
REMARK    2  A    between atoms: C4_10  and  C5_11 
REMARK    3  A    between atoms: C5_11  and  C6_12 
REMARK    4  A    between atoms: C6_12  and  N4_13 
REMARK    5  A    between atoms: N4_13  and  C7_16 
REMARK    6  A    between atoms: C7_16  and  C8_17 
REMARK    7  A    between atoms: C13_22  and  N5_23 
REMARK    8  A    between atoms: N5_23  and  O1_25 
ROOT
HETATM    1  C6  UNL     1     187.894 127.900  28.872  1.00  0.00     0.236 C 
ENDROOT
BRANCH   1   2
HETATM    2  C5  UNL     1     186.570 127.269  29.233  1.00  0.00     0.061 C 
BRANCH   2   3
HETATM    3  C4  UNL     1     186.603 126.760  30.618  1.00  0.00    -0.080 C 
HETATM    4  C3  UNL     1     186.879 125.485  30.813  1.00  0.00     0.001 C 
HETATM    5  C2  UNL     1     186.944 124.854  32.135  1.00  0.00     0.107 C 
HETATM    6  C16 UNL     1     187.124 125.840  33.263  1.00  0.00     0.029 C 
HETATM    7  C15 UNL     1     186.303 127.082  33.088  1.00  0.00     0.007 C 
HETATM    8  C14 UNL     1     186.335 127.663  31.727  1.00  0.00     0.034 C 
BRANCH   5   9
HETATM    9  N3  UNL     1     188.063 123.944  32.177  1.00  0.00    -0.357 N 
HETATM   10  C1  UNL     1     187.917 122.549  31.970  1.00  0.00     0.182 C 
HETATM   11  N1  UNL     1     188.724 121.705  32.556  1.00  0.00    -0.374 N 
HETATM   12  N2  UNL     1     186.920 121.988  31.142  1.00  0.00    -0.064 NA
ATOM     13  H12 UNL     1     188.620 120.701  32.407  1.00  0.00     0.158 HD
ATOM     14  H11 UNL     1     189.444 122.110  33.154  1.00  0.00     0.158 HD
ATOM     15  H3  UNL     1     188.994 124.318  32.362  1.00  0.00     0.162 HD
ENDBRANCH   5   9
ENDBRANCH   2   3
ENDBRANCH   1   2
BRANCH   1  16
HETATM   16  N4  UNL     1     187.769 128.804  27.743  1.00  0.00    -0.074 N 
ATOM     17  H42 UNL     1     188.607 128.847  27.163  1.00  0.00     0.277 HD
ATOM     18  H41 UNL     1     187.133 128.465  27.021  1.00  0.00     0.277 HD
BRANCH  16  19
HETATM   19  C7  UNL     1     187.384 130.090  28.291  1.00  0.00     0.239 C 
BRANCH  19  20
HETATM   20  C8  UNL     1     186.304 130.754  27.438  1.00  0.00     0.036 C 
HETATM   21  C9  UNL     1     185.045 129.967  27.628  1.00  0.00     0.008 C 
HETATM   22  C10 UNL     1     184.025 130.163  26.552  1.00  0.00     0.001 C 
HETATM   23  C11 UNL     1     184.584 130.276  25.177  1.00  0.00     0.002 C 
HETATM   24  C12 UNL     1     185.742 131.261  25.123  1.00  0.00     0.027 C 
HETATM   25  C13 UNL     1     186.814 130.697  26.014  1.00  0.00     0.111 C 
BRANCH  25  26
HETATM   26  N5  UNL     1     188.064 131.329  25.894  1.00  0.00    -0.300 N 
ATOM     27  H5  UNL     1     188.131 132.283  26.248  1.00  0.00     0.187 HD
BRANCH  26  28
HETATM   28  O1  UNL     1     189.049 130.866  25.424  1.00  0.00    -0.294 OA
ATOM     29  H1  UNL     1     189.109 130.081  24.890  1.00  0.00     0.244 HD
ENDBRANCH  26  28
ENDBRANCH  25  26
ENDBRANCH  19  20
ENDBRANCH  16  19
ENDBRANCH   1  16
TORSDOF 8
ENDMDL
MODEL 4
REMARK VINA RESULT: -7.753305427      5.208      7.339
REMARK  8 active torsions:
REMARK  status: ('A' for Active; 'I' for Inactive)
REMARK       I    between atoms: C1_4  and  N3_6 
REMARK    1  A    between atoms: N3_6  and  C2_8 
REMARK    2  A    between atoms: C4_10  and  C5_11 
REMARK    3  A    between atoms: C5_11  and  C6_12 
REMARK    4  A    between atoms: C6_12  and  N4_13 
REMARK    5  A    between atoms: N4_13  and  C7_16 
REMARK    6  A    between atoms: C7_16  and  C8_17 
REMARK    7  A    between atoms: C13_22  and  N5_23 
REMARK    8  A    between atoms: N5_23  and  O1_25 
ROOT
HETATM    1  C6  UNL     1     191.052 126.873  30.793  1.00  0.00     0.236 C 
ENDROOT
BRANCH   1   2
HETATM    2  C5  UNL     1     189.779 126.737  29.992  1.00  0.00     0.061 C 
BRANCH   2   3
HETATM    3  C4  UNL     1     188.669 126.294  30.859  1.00  0.00    -0.080 C 
HETATM    4  C3  UNL     1     187.851 125.364  30.407  1.00  0.00     0.001 C 
HETATM    5  C2  UNL     1     186.713 124.836  31.166  1.00  0.00     0.107 C 
HETATM    6  C16 UNL     1     186.809 125.090  32.650  1.00  0.00     0.029 C 
HETATM    7  C15 UNL     1     187.327 126.460  32.973  1.00  0.00     0.007 C 
HETATM    8  C14 UNL     1     188.503 126.884  32.179  1.00  0.00     0.034 C 
BRANCH   5   9
HETATM    9  N3  UNL     1     186.634 123.407  30.979  1.00  0.00    -0.357 N 
HETATM   10  C1  UNL     1     185.721 122.806  30.078  1.00  0.00     0.182 C 
HETATM   11  N1  UNL     1     185.241 121.614  30.316  1.00  0.00    -0.374 N 
HETATM   12  N2  UNL     1     185.275 123.432  28.893  1.00  0.00    -0.064 NA
ATOM     13  H12 UNL     1     184.584 121.181  29.668  1.00  0.00     0.158 HD
ATOM     14  H11 UNL     1     185.564 121.162  31.172  1.00  0.00     0.158 HD
ATOM     15  H3  UNL     1     187.260 122.806  31.516  1.00  0.00     0.162 HD
ENDBRANCH   5   9
ENDBRANCH   2   3
ENDBRANCH   1   2
BRANCH   1  16
HETATM   16  N4  UNL     1     191.957 125.763  30.557  1.00  0.00    -0.074 N 
ATOM     17  H42 UNL     1     191.557 125.033  29.968  1.00  0.00     0.277 HD
ATOM     18  H41 UNL     1     192.740 126.002  29.948  1.00  0.00     0.277 HD
BRANCH  16  19
HETATM   19  C7  UNL     1     192.368 125.287  31.863  1.00  0.00     0.239 C 
BRANCH  19  20
HETATM   20  C8  UNL     1     191.856 123.871  32.122  1.00  0.00     0.036 C 
HETATM   21  C9  UNL     1     191.598 123.244  30.787  1.00  0.00     0.008 C 
HETATM   22  C10 UNL     1     190.677 122.066  30.826  1.00  0.00     0.001 C 
HETATM   23  C11 UNL     1     189.537 122.197  31.774  1.00  0.00     0.002 C 
HETATM   24  C12 UNL     1     190.001 122.668  33.144  1.00  0.00     0.027 C 
HETATM   25  C13 UNL     1     190.593 124.035  32.939  1.00  0.00     0.111 C 
BRANCH  25  26
HETATM   26  N5  UNL     1     190.842 124.748  34.126  1.00  0.00    -0.300 N 
ATOM     27  H5  UNL     1     190.313 125.609  34.262  1.00  0.00     0.187 HD
BRANCH  26  28
HETATM   28  O1  UNL     1     191.603 124.449  34.984  1.00  0.00    -0.294 OA
ATOM     29  H1  UNL     1     192.546 124.366  34.903  1.00  0.00     0.244 HD
ENDBRANCH  26  28
ENDBRANCH  25  26
ENDBRANCH  19  20
ENDBRANCH  16  19
ENDBRANCH   1  16
TORSDOF 8
ENDMDL
MODEL 5
REMARK VINA RESULT: -7.750440681      3.979      6.756
REMARK  8 active torsions:
REMARK  status: ('A' for Active; 'I' for Inactive)
REMARK       I    between atoms: C1_4  and  N3_6 
REMARK    1  A    between atoms: N3_6  and  C2_8 
REMARK    2  A    between atoms: C4_10  and  C5_11 
REMARK    3  A    between atoms: C5_11  and  C6_12 
REMARK    4  A    between atoms: C6_12  and  N4_13 
REMARK    5  A    between atoms: N4_13  and  C7_16 
REMARK    6  A    between atoms: C7_16  and  C8_17 
REMARK    7  A    between atoms: C13_22  and  N5_23 
REMARK    8  A    between atoms: N5_23  and  O1_25 
ROOT
HETATM    1  C6  UNL     1     187.547 121.979  31.422  1.00  0.00     0.236 C 
ENDROOT
BRANCH   1   2
HETATM    2  C5  UNL     1     188.568 121.830  32.525  1.00  0.00     0.061 C 
BRANCH   2   3
HETATM    3  C4  UNL     1     189.823 122.516  32.162  1.00  0.00    -0.080 C 
HETATM    4  C3  UNL     1     190.245 123.503  32.928  1.00  0.00     0.001 C 
HETATM    5  C2  UNL     1     191.473 124.265  32.680  1.00  0.00     0.107 C 
HETATM    6  C16 UNL     1     192.445 123.558  31.769  1.00  0.00     0.029 C 
HETATM    7  C15 UNL     1     191.771 122.869  30.620  1.00  0.00     0.007 C 
HETATM    8  C14 UNL     1     190.562 122.095  30.981  1.00  0.00     0.034 C 
BRANCH   5   9
HETATM    9  N3  UNL     1     192.151 124.501  33.932  1.00  0.00    -0.357 N 
HETATM   10  C1  UNL     1     192.497 125.801  34.378  1.00  0.00     0.182 C 
HETATM   11  N1  UNL     1     193.552 125.986  35.126  1.00  0.00    -0.374 N 
HETATM   12  N2  UNL     1     191.750 126.956  34.055  1.00  0.00    -0.064 NA
ATOM     13  H12 UNL     1     193.801 126.922  35.447  1.00  0.00     0.158 HD
ATOM     14  H11 UNL     1     194.091 125.152  35.360  1.00  0.00     0.158 HD
ATOM     15  H3  UNL     1     192.391 123.701  34.519  1.00  0.00     0.162 HD
ENDBRANCH   5   9
ENDBRANCH   2   3
ENDBRANCH   1   2
BRANCH   1  16
HETATM   16  N4  UNL     1     186.566 123.003  31.732  1.00  0.00    -0.074 N 
ATOM     17  H42 UNL     1     185.613 122.646  31.794  1.00  0.00     0.277 HD
ATOM     18  H41 UNL     1     186.633 123.351  32.689  1.00  0.00     0.277 HD
BRANCH  16  19
HETATM   19  C7  UNL     1     186.728 124.039  30.731  1.00  0.00     0.239 C 
BRANCH  19  20
HETATM   20  C8  UNL     1     187.148 125.363  31.368  1.00  0.00     0.036 C 
HETATM   21  C9  UNL     1     186.566 125.394  32.747  1.00  0.00     0.008 C 
HETATM   22  C10 UNL     1     186.468 126.761  33.346  1.00  0.00     0.001 C 
HETATM   23  C11 UNL     1     186.073 127.832  32.391  1.00  0.00     0.002 C 
HETATM   24  C12 UNL     1     186.894 127.772  31.112  1.00  0.00     0.027 C 
HETATM   25  C13 UNL     1     186.582 126.446  30.475  1.00  0.00     0.111 C 
BRANCH  25  26
HETATM   26  N5  UNL     1     187.041 126.310  29.153  1.00  0.00    -0.300 N 
ATOM     27  H5  UNL     1     186.493 125.709  28.538  1.00  0.00     0.187 HD
BRANCH  26  28
HETATM   28  O1  UNL     1     188.001 126.822  28.681  1.00  0.00    -0.294 OA
ATOM     29  H1  UNL     1     188.025 127.631  28.183  1.00  0.00     0.244 HD
ENDBRANCH  26  28
ENDBRANCH  25  26
ENDBRANCH  19  20
ENDBRANCH  16  19
ENDBRANCH   1  16
TORSDOF 8
ENDMDL
