MODEL 1
REMARK VINA RESULT: -6.638582658      0.000      0.000
REMARK  9 active torsions:
REMARK  status: ('A' for Active; 'I' for Inactive)
REMARK    1  A    between atoms: N1_1  and  C1_5 
REMARK    2  A    between atoms: C1_5  and  C2_6 
REMARK    3  A    between atoms: C2_6  and  C3_7 
REMARK    4  A    between atoms: C3_7  and  C4_8 
REMARK    5  A    between atoms: C4_8  and  C5_9 
REMARK    6  A    between atoms: C5_9  and  C6_10 
REMARK    7  A    between atoms: C6_10  and  C7_11 
REMARK    8  A    between atoms: C7_11  and  C8_12 
REMARK    9  A    between atoms: C10_19  and  C11_20 
ROOT
HETATM    1  C8  UNL     1     187.896 125.684  32.737  1.00  0.00     0.039 A 
HETATM    2  N2  UNL     1     189.124 126.068  33.198  1.00  0.00    -0.335 N 
ATOM      3  H2  UNL     1     189.284 126.725  33.964  1.00  0.00     0.168 HD
HETATM    4  C9  UNL     1     190.069 125.468  32.513  1.00  0.00     0.176 A 
HETATM    5  S1  UNL     1     191.680 125.658  32.753  1.00  0.00    -0.041 SA
HETATM    6  N3  UNL     1     189.477 124.682  31.592  1.00  0.00    -0.331 N 
ATOM      7  H3  UNL     1     189.962 124.094  30.915  1.00  0.00     0.168 HD
HETATM    8  C10 UNL     1     188.125 124.801  31.713  1.00  0.00     0.069 A 
ENDROOT
BRANCH   1   9
HETATM    9  C7  UNL     1     186.662 126.170  33.333  1.00  0.00     0.059 C 
BRANCH   9  10
HETATM   10  C6  UNL     1     186.356 127.619  33.062  1.00  0.00     0.006 C 
BRANCH  10  11
HETATM   11  C5  UNL     1     186.247 127.971  31.613  1.00  0.00     0.000 C 
BRANCH  11  12
HETATM   12  C4  UNL     1     185.786 129.361  31.325  1.00  0.00     0.000 C 
BRANCH  12  13
HETATM   13  C3  UNL     1     186.214 129.820  29.937  1.00  0.00     0.002 C 
BRANCH  13  14
HETATM   14  C2  UNL     1     185.952 128.716  28.925  1.00  0.00     0.027 C 
BRANCH  14  15
HETATM   15  C1  UNL     1     185.551 129.292  27.608  1.00  0.00     0.229 C 
BRANCH  15  16
HETATM   16  N1  UNL     1     184.557 130.321  27.695  1.00  0.00    -0.079 N 
ATOM     17  H13 UNL     1     183.790 130.026  28.298  1.00  0.00     0.274 HD
ATOM     18  H12 UNL     1     184.908 131.112  28.235  1.00  0.00     0.274 HD
ATOM     19  H11 UNL     1     184.201 130.635  26.792  1.00  0.00     0.274 HD
ENDBRANCH  15  16
ENDBRANCH  14  15
ENDBRANCH  13  14
ENDBRANCH  12  13
ENDBRANCH  11  12
ENDBRANCH  10  11
ENDBRANCH   9  10
ENDBRANCH   1   9
BRANCH   8  20
HETATM   20  C11 UNL     1     187.171 124.011  30.908  1.00  0.00     0.019 A 
HETATM   21  C12 UNL     1     186.350 124.606  29.941  1.00  0.00     0.032 A 
HETATM   22  C13 UNL     1     185.432 123.810  29.283  1.00  0.00     0.088 A 
HETATM   23  N4  UNL     1     185.302 122.497  29.537  1.00  0.00    -0.373 N 
HETATM   24  C14 UNL     1     186.093 121.942  30.464  1.00  0.00     0.115 A 
ATOM     25  H4  UNL     1     184.614 121.935  29.035  1.00  0.00     0.164 HD
HETATM   26  C15 UNL     1     187.051 122.671  31.182  1.00  0.00     0.074 A 
HETATM   27  N5  UNL     1     187.802 121.998  32.161  1.00  0.00    -0.100 NA
ENDBRANCH   8  20
TORSDOF 9
ENDMDL
MODEL 2
REMARK VINA RESULT: -6.496737602      1.070      1.660
REMARK  9 active torsions:
REMARK  status: ('A' for Active; 'I' for Inactive)
REMARK    1  A    between atoms: N1_1  and  C1_5 
REMARK    2  A    between atoms: C1_5  and  C2_6 
REMARK    3  A    between atoms: C2_6  and  C3_7 
REMARK    4  A    between atoms: C3_7  and  C4_8 
REMARK    5  A    between atoms: C4_8  and  C5_9 
REMARK    6  A    between atoms: C5_9  and  C6_10 
REMARK    7  A    between atoms: C6_10  and  C7_11 
REMARK    8  A    between atoms: C7_11  and  C8_12 
REMARK    9  A    between atoms: C10_19  and  C11_20 
ROOT
HETATM    1  C8  UNL     1     187.729 126.258  32.314  1.00  0.00     0.039 A 
HETATM    2  N2  UNL     1     188.975 126.789  32.501  1.00  0.00    -0.335 N 
ATOM      3  H2  UNL     1     189.188 127.586  33.101  1.00  0.00     0.168 HD
HETATM    4  C9  UNL     1     189.858 126.122  31.794  1.00  0.00     0.176 A 
HETATM    5  S1  UNL     1     191.465 126.441  31.740  1.00  0.00    -0.041 SA
HETATM    6  N3  UNL     1     189.206 125.145  31.133  1.00  0.00    -0.331 N 
ATOM      7  H3  UNL     1     189.636 124.466  30.505  1.00  0.00     0.168 HD
HETATM    8  C10 UNL     1     187.880 125.210  31.441  1.00  0.00     0.069 A 
ENDROOT
BRANCH   1   9
HETATM    9  C7  UNL     1     186.558 126.780  32.999  1.00  0.00     0.059 C 
BRANCH   9  10
HETATM   10  C6  UNL     1     186.166 128.180  32.606  1.00  0.00     0.006 C 
BRANCH  10  11
HETATM   11  C5  UNL     1     186.149 128.430  31.132  1.00  0.00     0.000 C 
BRANCH  11  12
HETATM   12  C4  UNL     1     185.766 129.812  30.722  1.00  0.00     0.000 C 
BRANCH  12  13
HETATM   13  C3  UNL     1     186.256 130.139  29.317  1.00  0.00     0.002 C 
BRANCH  13  14
HETATM   14  C2  UNL     1     185.485 129.318  28.297  1.00  0.00     0.027 C 
BRANCH  14  15
HETATM   15  C1  UNL     1     185.064 130.168  27.145  1.00  0.00     0.229 C 
BRANCH  15  16
HETATM   16  N1  UNL     1     183.724 130.667  27.242  1.00  0.00    -0.079 N 
ATOM     17  H13 UNL     1     183.083 130.073  26.716  1.00  0.00     0.274 HD
ATOM     18  H12 UNL     1     183.358 130.527  28.183  1.00  0.00     0.274 HD
ATOM     19  H11 UNL     1     183.620 131.642  26.960  1.00  0.00     0.274 HD
ENDBRANCH  15  16
ENDBRANCH  14  15
ENDBRANCH  13  14
ENDBRANCH  12  13
ENDBRANCH  11  12
ENDBRANCH  10  11
ENDBRANCH   9  10
ENDBRANCH   1   9
BRANCH   8  20
HETATM   20  C11 UNL     1     186.889 124.231  30.951  1.00  0.00     0.019 A 
HETATM   21  C12 UNL     1     186.611 123.049  31.650  1.00  0.00     0.032 A 
HETATM   22  C13 UNL     1     185.725 122.149  31.087  1.00  0.00     0.088 A 
HETATM   23  N4  UNL     1     185.127 122.369  29.904  1.00  0.00    -0.373 N 
HETATM   24  C14 UNL     1     185.402 123.504  29.249  1.00  0.00     0.115 A 
ATOM     25  H4  UNL     1     184.477 121.687  29.514  1.00  0.00     0.164 HD
HETATM   26  C15 UNL     1     186.288 124.472  29.741  1.00  0.00     0.074 A 
HETATM   27  N5  UNL     1     186.536 125.609  28.952  1.00  0.00    -0.100 NA
ENDBRANCH   8  20
TORSDOF 9
ENDMDL
MODEL 3
REMARK VINA RESULT: -6.467198346      3.411      6.699
REMARK  9 active torsions:
REMARK  status: ('A' for Active; 'I' for Inactive)
REMARK    1  A    between atoms: N1_1  and  C1_5 
REMARK    2  A    between atoms: C1_5  and  C2_6 
REMARK    3  A    between atoms: C2_6  and  C3_7 
REMARK    4  A    between atoms: C3_7  and  C4_8 
REMARK    5  A    between atoms: C4_8  and  C5_9 
REMARK    6  A    between atoms: C5_9  and  C6_10 
REMARK    7  A    between atoms: C6_10  and  C7_11 
REMARK    8  A    between atoms: C7_11  and  C8_12 
REMARK    9  A    between atoms: C10_19  and  C11_20 
ROOT
HETATM    1  C8  UNL     1     188.198 122.776  31.864  1.00  0.00     0.039 A 
HETATM    2  N2  UNL     1     187.089 121.992  31.703  1.00  0.00    -0.335 N 
ATOM      3  H2  UNL     1     187.073 120.975  31.790  1.00  0.00     0.168 HD
HETATM    4  C9  UNL     1     186.047 122.739  31.421  1.00  0.00     0.176 A 
HETATM    5  S1  UNL     1     184.527 122.184  31.154  1.00  0.00    -0.041 SA
HETATM    6  N3  UNL     1     186.455 124.023  31.391  1.00  0.00    -0.331 N 
ATOM      7  H3  UNL     1     185.861 124.829  31.197  1.00  0.00     0.168 HD
HETATM    8  C10 UNL     1     187.789 124.071  31.664  1.00  0.00     0.069 A 
ENDROOT
BRANCH   1   9
HETATM    9  C7  UNL     1     189.493 122.217  32.213  1.00  0.00     0.059 C 
BRANCH   9  10
HETATM   10  C6  UNL     1     190.354 121.834  31.038  1.00  0.00     0.006 C 
BRANCH  10  11
HETATM   11  C5  UNL     1     191.086 122.973  30.406  1.00  0.00     0.000 C 
BRANCH  11  12
HETATM   12  C4  UNL     1     192.371 123.352  31.064  1.00  0.00     0.000 C 
BRANCH  12  13
HETATM   13  C3  UNL     1     192.386 124.823  31.463  1.00  0.00     0.002 C 
BRANCH  13  14
HETATM   14  C2  UNL     1     192.985 124.975  32.852  1.00  0.00     0.027 C 
BRANCH  14  15
HETATM   15  C1  UNL     1     192.297 124.076  33.824  1.00  0.00     0.229 C 
BRANCH  15  16
HETATM   16  N1  UNL     1     192.299 124.559  35.174  1.00  0.00    -0.079 N 
ATOM     17  H13 UNL     1     191.856 125.476  35.226  1.00  0.00     0.274 HD
ATOM     18  H12 UNL     1     191.651 124.019  35.747  1.00  0.00     0.274 HD
ATOM     19  H11 UNL     1     193.223 124.584  35.607  1.00  0.00     0.274 HD
ENDBRANCH  15  16
ENDBRANCH  14  15
ENDBRANCH  13  14
ENDBRANCH  12  13
ENDBRANCH  11  12
ENDBRANCH  10  11
ENDBRANCH   9  10
ENDBRANCH   1   9
BRANCH   8  20
HETATM   20  C11 UNL     1     188.542 125.335  31.792  1.00  0.00     0.019 A 
HETATM   21  C12 UNL     1     189.094 125.745  33.012  1.00  0.00     0.032 A 
HETATM   22  C13 UNL     1     189.720 126.976  33.066  1.00  0.00     0.088 A 
HETATM   23  N4  UNL     1     189.816 127.784  31.997  1.00  0.00    -0.373 N 
HETATM   24  C14 UNL     1     189.283 127.378  30.837  1.00  0.00     0.115 A 
ATOM     25  H4  UNL     1     190.284 128.688  32.067  1.00  0.00     0.164 HD
HETATM   26  C15 UNL     1     188.629 126.148  30.689  1.00  0.00     0.074 A 
HETATM   27  N5  UNL     1     188.071 125.838  29.437  1.00  0.00    -0.100 NA
ENDBRANCH   8  20
TORSDOF 9
ENDMDL
MODEL 4
REMARK VINA RESULT: -6.453525037      1.025      1.533
REMARK  9 active torsions:
REMARK  status: ('A' for Active; 'I' for Inactive)
REMARK    1  A    between atoms: N1_1  and  C1_5 
REMARK    2  A    between atoms: C1_5  and  C2_6 
REMARK    3  A    between atoms: C2_6  and  C3_7 
REMARK    4  A    between atoms: C3_7  and  C4_8 
REMARK    5  A    between atoms: C4_8  and  C5_9 
REMARK    6  A    between atoms: C5_9  and  C6_10 
REMARK    7  A    between atoms: C6_10  and  C7_11 
REMARK    8  A    between atoms: C7_11  and  C8_12 
REMARK    9  A    between atoms: C10_19  and  C11_20 
ROOT
HETATM    1  C8  UNL     1     187.592 125.551  32.960  1.00  0.00     0.039 A 
HETATM    2  N2  UNL     1     188.828 125.606  33.544  1.00  0.00    -0.335 N 
ATOM      3  H2  UNL     1     189.112 126.288  34.248  1.00  0.00     0.168 HD
HETATM    4  C9  UNL     1     189.594 124.654  33.066  1.00  0.00     0.176 A 
HETATM    5  S1  UNL     1     191.149 124.378  33.506  1.00  0.00    -0.041 SA
HETATM    6  N3  UNL     1     188.876 123.959  32.162  1.00  0.00    -0.331 N 
ATOM      7  H3  UNL     1     189.212 123.159  31.626  1.00  0.00     0.168 HD
HETATM    8  C10 UNL     1     187.627 124.499  32.079  1.00  0.00     0.069 A 
ENDROOT
BRANCH   1   9
HETATM    9  C7  UNL     1     186.526 126.470  33.321  1.00  0.00     0.059 C 
BRANCH   9  10
HETATM   10  C6  UNL     1     186.727 127.887  32.854  1.00  0.00     0.006 C 
BRANCH  10  11
HETATM   11  C5  UNL     1     186.159 128.183  31.504  1.00  0.00     0.000 C 
BRANCH  11  12
HETATM   12  C4  UNL     1     185.740 129.598  31.283  1.00  0.00     0.000 C 
BRANCH  12  13
HETATM   13  C3  UNL     1     186.041 130.059  29.863  1.00  0.00     0.002 C 
BRANCH  13  14
HETATM   14  C2  UNL     1     185.902 128.891  28.899  1.00  0.00     0.027 C 
BRANCH  14  15
HETATM   15  C1  UNL     1     185.457 129.365  27.556  1.00  0.00     0.229 C 
BRANCH  15  16
HETATM   16  N1  UNL     1     184.436 130.370  27.596  1.00  0.00    -0.079 N 
ATOM     17  H13 UNL     1     184.395 130.873  26.710  1.00  0.00     0.274 HD
ATOM     18  H12 UNL     1     183.512 129.940  27.595  1.00  0.00     0.274 HD
ATOM     19  H11 UNL     1     184.524 131.025  28.374  1.00  0.00     0.274 HD
ENDBRANCH  15  16
ENDBRANCH  14  15
ENDBRANCH  13  14
ENDBRANCH  12  13
ENDBRANCH  11  12
ENDBRANCH  10  11
ENDBRANCH   9  10
ENDBRANCH   1   9
BRANCH   8  20
HETATM   20  C11 UNL     1     186.555 123.927  31.239  1.00  0.00     0.019 A 
HETATM   21  C12 UNL     1     185.756 122.866  31.683  1.00  0.00     0.032 A 
HETATM   22  C13 UNL     1     184.824 122.338  30.810  1.00  0.00     0.088 A 
HETATM   23  N4  UNL     1     184.660 122.806  29.561  1.00  0.00    -0.373 N 
HETATM   24  C14 UNL     1     185.430 123.822  29.151  1.00  0.00     0.115 A 
ATOM     25  H4  UNL     1     183.963 122.396  28.939  1.00  0.00     0.164 HD
HETATM   26  C15 UNL     1     186.402 124.418  29.966  1.00  0.00     0.074 A 
HETATM   27  N5  UNL     1     187.184 125.451  29.422  1.00  0.00    -0.100 NA
ENDBRANCH   8  20
TORSDOF 9
ENDMDL
MODEL 5
REMARK VINA RESULT: -6.426663952      3.492      6.729
REMARK  9 active torsions:
REMARK  status: ('A' for Active; 'I' for Inactive)
REMARK    1  A    between atoms: N1_1  and  C1_5 
REMARK    2  A    between atoms: C1_5  and  C2_6 
REMARK    3  A    between atoms: C2_6  and  C3_7 
REMARK    4  A    between atoms: C3_7  and  C4_8 
REMARK    5  A    between atoms: C4_8  and  C5_9 
REMARK    6  A    between atoms: C5_9  and  C6_10 
REMARK    7  A    between atoms: C6_10  and  C7_11 
REMARK    8  A    between atoms: C7_11  and  C8_12 
REMARK    9  A    between atoms: C10_19  and  C11_20 
ROOT
HETATM    1  C8  UNL     1     188.081 122.731  31.729  1.00  0.00     0.039 A 
HETATM    2  N2  UNL     1     186.976 121.926  31.724  1.00  0.00    -0.335 N 
ATOM      3  H2  UNL     1     186.971 120.937  31.976  1.00  0.00     0.168 HD
HETATM    4  C9  UNL     1     185.922 122.611  31.348  1.00  0.00     0.176 A 
HETATM    5  S1  UNL     1     184.401 122.013  31.211  1.00  0.00    -0.041 SA
HETATM    6  N3  UNL     1     186.317 123.876  31.101  1.00  0.00    -0.331 N 
ATOM      7  H3  UNL     1     185.712 124.636  30.791  1.00  0.00     0.168 HD
HETATM    8  C10 UNL     1     187.657 123.974  31.331  1.00  0.00     0.069 A 
ENDROOT
BRANCH   1   9
HETATM    9  C7  UNL     1     189.389 122.243  32.135  1.00  0.00     0.059 C 
BRANCH   9  10
HETATM   10  C6  UNL     1     190.290 121.831  31.001  1.00  0.00     0.006 C 
BRANCH  10  11
HETATM   11  C5  UNL     1     191.716 122.249  31.156  1.00  0.00     0.000 C 
BRANCH  11  12
HETATM   12  C4  UNL     1     191.944 123.426  32.045  1.00  0.00     0.000 C 
BRANCH  12  13
HETATM   13  C3  UNL     1     192.977 124.382  31.461  1.00  0.00     0.002 C 
BRANCH  13  14
HETATM   14  C2  UNL     1     193.772 123.680  30.371  1.00  0.00     0.027 C 
BRANCH  14  15
HETATM   15  C1  UNL     1     194.893 124.544  29.897  1.00  0.00     0.229 C 
BRANCH  15  16
HETATM   16  N1  UNL     1     195.145 124.458  28.488  1.00  0.00    -0.079 N 
ATOM     17  H13 UNL     1     196.073 124.819  28.269  1.00  0.00     0.274 HD
ATOM     18  H12 UNL     1     195.265 123.486  28.205  1.00  0.00     0.274 HD
ATOM     19  H11 UNL     1     194.439 124.913  27.909  1.00  0.00     0.274 HD
ENDBRANCH  15  16
ENDBRANCH  14  15
ENDBRANCH  13  14
ENDBRANCH  12  13
ENDBRANCH  11  12
ENDBRANCH  10  11
ENDBRANCH   9  10
ENDBRANCH   1   9
BRANCH   8  20
HETATM   20  C11 UNL     1     188.401 125.246  31.234  1.00  0.00     0.019 A 
HETATM   21  C12 UNL     1     189.436 125.427  30.307  1.00  0.00     0.032 A 
HETATM   22  C13 UNL     1     190.133 126.621  30.329  1.00  0.00     0.088 A 
HETATM   23  N4  UNL     1     189.853 127.603  31.202  1.00  0.00    -0.373 N 
HETATM   24  C14 UNL     1     188.861 127.415  32.081  1.00  0.00     0.115 A 
ATOM     25  H4  UNL     1     190.385 128.474  31.194  1.00  0.00     0.164 HD
HETATM   26  C15 UNL     1     188.102 126.239  32.134  1.00  0.00     0.074 A 
HETATM   27  N5  UNL     1     187.110 126.130  33.123  1.00  0.00    -0.100 NA
ENDBRANCH   8  20
TORSDOF 9
ENDMDL
