MODEL 1
REMARK VINA RESULT: -9.145849764      0.000      0.000
REMARK  13 active torsions:
REMARK  status: ('A' for Active; 'I' for Inactive)
REMARK    1  A    between atoms: C2_2  and  C5_5 
REMARK    2  A    between atoms: C5_5  and  N1_6 
REMARK    3  A    between atoms: C5_5  and  C12_17 
REMARK       I    between atoms: N1_6  and  C6_8 
REMARK       I    between atoms: C6_8  and  N2_10 
REMARK    4  A    between atoms: N2_10  and  C7_12 
REMARK       I    between atoms: C12_17  and  N3_19 
REMARK    5  A    between atoms: N3_19  and  C13_20 
REMARK    6  A    between atoms: C13_20  and  C14_21 
REMARK    7  A    between atoms: C13_20  and  C18_29 
REMARK    8  A    between atoms: C14_21  and  C15_22 
REMARK    9  A    between atoms: C18_29  and  O3_30 
REMARK   10  A    between atoms: C18_29  and  N6_32 
REMARK   11  A    between atoms: C23_37  and  C24_38 
REMARK   12  A    between atoms: C24_38  and  C25_40 
REMARK   13  A    between atoms: C25_40  and  C26_41 
ROOT
HETATM    1  C13 UNL     1     -11.522  14.106  30.017  1.00  0.00     0.144 C 
ENDROOT
BRANCH   1   2
HETATM    2  N3  UNL     1     -10.586  14.561  29.049  1.00  0.00    -0.369 NA
HETATM    3  C12 UNL     1      -9.714  14.984  28.147  1.00  0.00     0.315 C 
HETATM    4  O2  UNL     1      -8.841  14.234  27.559  1.00  0.00    -0.255 OA
BRANCH   3   5
HETATM    5  C5  UNL     1      -9.572  16.408  27.632  1.00  0.00     0.201 C 
BRANCH   5   6
HETATM    6  C2  UNL     1      -8.697  17.183  28.610  1.00  0.00    -0.021 C 
HETATM    7  C1  UNL     1      -7.597  16.340  29.178  1.00  0.00     0.017 C 
HETATM    8  C3  UNL     1      -8.006  18.338  27.880  1.00  0.00     0.017 C 
HETATM    9  C4  UNL     1      -9.468  17.767  29.742  1.00  0.00     0.017 C 
ENDBRANCH   5   6
BRANCH   5  10
HETATM   10  N1  UNL     1      -8.954  16.400  26.329  1.00  0.00    -0.328 N 
HETATM   11  C6  UNL     1      -9.499  16.795  25.107  1.00  0.00     0.317 C 
HETATM   12  O1  UNL     1     -10.673  17.224  25.047  1.00  0.00    -0.247 OA
HETATM   13  N2  UNL     1      -8.750  16.731  23.928  1.00  0.00    -0.339 N 
ATOM     14  H2  UNL     1      -7.808  16.344  23.983  1.00  0.00     0.164 HD
ATOM     15  H1  UNL     1      -7.992  16.061  26.296  1.00  0.00     0.165 HD
BRANCH  13  16
HETATM   16  C7  UNL     1      -9.223  17.181  22.626  1.00  0.00     0.086 C 
HETATM   17  C8  UNL     1      -9.696  16.030  21.817  1.00  0.00     0.025 C 
HETATM   18  C9  UNL     1      -9.658  16.608  20.395  1.00  0.00     0.002 C 
HETATM   19  C10 UNL     1      -8.549  17.637  20.408  1.00  0.00     0.002 C 
HETATM   20  C11 UNL     1      -8.079  17.757  21.817  1.00  0.00     0.025 C 
ENDBRANCH  13  16
ENDBRANCH   5  10
ENDBRANCH   3   5
ENDBRANCH   1   2
BRANCH   1  21
HETATM   21  C14 UNL     1     -12.743  13.442  29.519  1.00  0.00     0.136 C 
BRANCH  21  22
HETATM   22  C15 UNL     1     -13.239  12.292  30.277  1.00  0.00     0.032 A 
HETATM   23  C16 UNL     1     -14.476  12.281  30.894  1.00  0.00     0.114 A 
HETATM   24  N4  UNL     1     -14.606  11.090  31.508  1.00  0.00    -0.360 N 
HETATM   25  C17 UNL     1     -13.501  10.362  31.298  1.00  0.00     0.180 A 
ATOM     26  H4  UNL     1     -15.418  10.789  32.048  1.00  0.00     0.166 HD
HETATM   27  N5  UNL     1     -12.687  11.116  30.547  1.00  0.00    -0.354 N 
ATOM     28  H5  UNL     1     -11.764  10.824  30.224  1.00  0.00     0.166 HD
ENDBRANCH  21  22
ENDBRANCH   1  21
BRANCH   1  29
HETATM   29  C18 UNL     1     -11.677  15.046  31.142  1.00  0.00     0.176 C 
BRANCH  29  30
HETATM   30  O3  UNL     1     -12.745  15.811  30.975  1.00  0.00    -0.344 OA
ATOM     31  H3  UNL     1     -12.559  16.710  31.219  1.00  0.00     0.219 HD
ENDBRANCH  29  30
BRANCH  29  32
HETATM   32  N6  UNL     1     -10.988  15.313  32.298  1.00  0.00    -0.348 N 
HETATM   33  C19 UNL     1      -9.702  14.562  32.485  1.00  0.00     0.126 C 
HETATM   34  C20 UNL     1      -8.519  15.465  32.474  1.00  0.00     0.020 C 
HETATM   35  C21 UNL     1      -8.927  16.780  33.151  1.00  0.00     0.004 C 
HETATM   36  C22 UNL     1      -9.953  16.370  34.183  1.00  0.00     0.033 C 
HETATM   37  C23 UNL     1     -11.282  16.180  33.401  1.00  0.00     0.156 C 
BRANCH  37  38
HETATM   38  C24 UNL     1     -12.300  15.644  34.340  1.00  0.00     0.149 C 
HETATM   39  O4  UNL     1     -13.414  15.377  33.906  1.00  0.00    -0.296 OA
BRANCH  38  40
HETATM   40  C25 UNL     1     -11.965  15.439  35.740  1.00  0.00     0.085 C 
BRANCH  40  41
HETATM   41  C26 UNL     1     -11.993  14.034  36.247  1.00  0.00    -0.007 C 
HETATM   42  C27 UNL     1     -11.589  13.840  37.671  1.00  0.00     0.005 C 
HETATM   43  C28 UNL     1     -11.691  12.355  38.012  1.00  0.00     0.000 C 
HETATM   44  C29 UNL     1     -12.536  11.609  37.033  1.00  0.00     0.000 C 
HETATM   45  C30 UNL     1     -12.039  11.693  35.611  1.00  0.00     0.000 C 
HETATM   46  C31 UNL     1     -11.351  13.025  35.341  1.00  0.00     0.005 C 
ENDBRANCH  40  41
ENDBRANCH  38  40
ENDBRANCH  37  38
ENDBRANCH  29  32
ENDBRANCH   1  29
TORSDOF 13
ENDMDL
MODEL 2
REMARK VINA RESULT: -9.056004303      2.973     12.124
REMARK  13 active torsions:
REMARK  status: ('A' for Active; 'I' for Inactive)
REMARK    1  A    between atoms: C2_2  and  C5_5 
REMARK    2  A    between atoms: C5_5  and  N1_6 
REMARK    3  A    between atoms: C5_5  and  C12_17 
REMARK       I    between atoms: N1_6  and  C6_8 
REMARK       I    between atoms: C6_8  and  N2_10 
REMARK    4  A    between atoms: N2_10  and  C7_12 
REMARK       I    between atoms: C12_17  and  N3_19 
REMARK    5  A    between atoms: N3_19  and  C13_20 
REMARK    6  A    between atoms: C13_20  and  C14_21 
REMARK    7  A    between atoms: C13_20  and  C18_29 
REMARK    8  A    between atoms: C14_21  and  C15_22 
REMARK    9  A    between atoms: C18_29  and  O3_30 
REMARK   10  A    between atoms: C18_29  and  N6_32 
REMARK   11  A    between atoms: C23_37  and  C24_38 
REMARK   12  A    between atoms: C24_38  and  C25_40 
REMARK   13  A    between atoms: C25_40  and  C26_41 
ROOT
HETATM    1  C13 UNL     1      -6.625  16.648  25.634  1.00  0.00     0.144 C 
ENDROOT
BRANCH   1   2
HETATM    2  N3  UNL     1      -7.403  15.991  26.626  1.00  0.00    -0.369 NA
HETATM    3  C12 UNL     1      -8.127  15.378  27.549  1.00  0.00     0.315 C 
HETATM    4  O2  UNL     1      -7.863  14.209  28.036  1.00  0.00    -0.255 OA
BRANCH   3   5
HETATM    5  C5  UNL     1      -9.385  15.918  28.211  1.00  0.00     0.201 C 
BRANCH   5   6
HETATM    6  C2  UNL     1     -10.588  15.447  27.402  1.00  0.00    -0.021 C 
HETATM    7  C1  UNL     1     -10.975  14.038  27.729  1.00  0.00     0.017 C 
HETATM    8  C3  UNL     1     -11.808  16.308  27.744  1.00  0.00     0.017 C 
HETATM    9  C4  UNL     1     -10.372  15.541  25.931  1.00  0.00     0.017 C 
ENDBRANCH   5   6
BRANCH   5  10
HETATM   10  N1  UNL     1      -9.484  15.421  29.561  1.00  0.00    -0.328 N 
HETATM   11  C6  UNL     1      -9.865  16.107  30.714  1.00  0.00     0.317 C 
HETATM   12  O1  UNL     1     -10.178  17.318  30.654  1.00  0.00    -0.247 OA
HETATM   13  N2  UNL     1      -9.917  15.464  31.954  1.00  0.00    -0.339 N 
ATOM     14  H2  UNL     1      -9.622  14.488  31.996  1.00  0.00     0.164 HD
ATOM     15  H1  UNL     1      -9.243  14.438  29.690  1.00  0.00     0.165 HD
BRANCH  13  16
HETATM   16  C7  UNL     1     -10.362  16.092  33.190  1.00  0.00     0.086 C 
HETATM   17  C8  UNL     1      -9.224  16.745  33.884  1.00  0.00     0.025 C 
HETATM   18  C9  UNL     1      -9.761  16.878  35.316  1.00  0.00     0.002 C 
HETATM   19  C10 UNL     1     -10.717  15.717  35.496  1.00  0.00     0.002 C 
HETATM   20  C11 UNL     1     -10.842  15.044  34.173  1.00  0.00     0.025 C 
ENDBRANCH  13  16
ENDBRANCH   5  10
ENDBRANCH   3   5
ENDBRANCH   1   2
BRANCH   1  21
HETATM   21  C14 UNL     1      -5.414  17.362  26.087  1.00  0.00     0.136 C 
BRANCH  21  22
HETATM   22  C15 UNL     1      -4.574  17.978  25.059  1.00  0.00     0.032 A 
HETATM   23  C16 UNL     1      -4.254  19.323  25.061  1.00  0.00     0.114 A 
HETATM   24  N4  UNL     1      -3.488  19.555  23.978  1.00  0.00    -0.360 N 
HETATM   25  C17 UNL     1      -3.320  18.409  23.304  1.00  0.00     0.180 A 
ATOM     26  H4  UNL     1      -3.097  20.459  23.713  1.00  0.00     0.166 HD
HETATM   27  N5  UNL     1      -3.989  17.467  23.983  1.00  0.00    -0.354 N 
ATOM     28  H5  UNL     1      -4.042  16.486  23.709  1.00  0.00     0.166 HD
ENDBRANCH  21  22
ENDBRANCH   1  21
BRANCH   1  29
HETATM   29  C18 UNL     1      -7.453  17.307  24.609  1.00  0.00     0.176 C 
BRANCH  29  30
HETATM   30  O3  UNL     1      -7.919  18.466  25.050  1.00  0.00    -0.344 OA
ATOM     31  H3  UNL     1      -7.224  18.985  25.438  1.00  0.00     0.219 HD
ENDBRANCH  29  30
BRANCH  29  32
HETATM   32  N6  UNL     1      -7.851  17.010  23.330  1.00  0.00    -0.348 N 
HETATM   33  C19 UNL     1      -7.867  15.552  22.970  1.00  0.00     0.126 C 
HETATM   34  C20 UNL     1      -9.245  15.058  22.698  1.00  0.00     0.020 C 
HETATM   35  C21 UNL     1     -10.021  16.187  22.010  1.00  0.00     0.004 C 
HETATM   36  C22 UNL     1      -8.973  16.934  21.215  1.00  0.00     0.033 C 
HETATM   37  C23 UNL     1      -8.245  17.849  22.237  1.00  0.00     0.156 C 
BRANCH  37  38
HETATM   38  C24 UNL     1      -7.111  18.510  21.541  1.00  0.00     0.149 C 
HETATM   39  O4  UNL     1      -6.323  19.172  22.204  1.00  0.00    -0.296 OA
BRANCH  38  40
HETATM   40  C25 UNL     1      -6.949  18.358  20.104  1.00  0.00     0.085 C 
BRANCH  40  41
HETATM   41  C26 UNL     1      -5.684  17.724  19.626  1.00  0.00    -0.007 C 
HETATM   42  C27 UNL     1      -5.510  17.637  18.146  1.00  0.00     0.005 C 
HETATM   43  C28 UNL     1      -4.164  16.978  17.847  1.00  0.00     0.000 C 
HETATM   44  C29 UNL     1      -3.251  17.003  19.028  1.00  0.00     0.000 C 
HETATM   45  C30 UNL     1      -3.811  16.312  20.246  1.00  0.00     0.000 C 
HETATM   46  C31 UNL     1      -5.327  16.436  20.307  1.00  0.00     0.005 C 
ENDBRANCH  40  41
ENDBRANCH  38  40
ENDBRANCH  37  38
ENDBRANCH  29  32
ENDBRANCH   1  29
TORSDOF 13
ENDMDL
MODEL 3
REMARK VINA RESULT: -8.843233005      2.851      5.452
REMARK  13 active torsions:
REMARK  status: ('A' for Active; 'I' for Inactive)
REMARK    1  A    between atoms: C2_2  and  C5_5 
REMARK    2  A    between atoms: C5_5  and  N1_6 
REMARK    3  A    between atoms: C5_5  and  C12_17 
REMARK       I    between atoms: N1_6  and  C6_8 
REMARK       I    between atoms: C6_8  and  N2_10 
REMARK    4  A    between atoms: N2_10  and  C7_12 
REMARK       I    between atoms: C12_17  and  N3_19 
REMARK    5  A    between atoms: N3_19  and  C13_20 
REMARK    6  A    between atoms: C13_20  and  C14_21 
REMARK    7  A    between atoms: C13_20  and  C18_29 
REMARK    8  A    between atoms: C14_21  and  C15_22 
REMARK    9  A    between atoms: C18_29  and  O3_30 
REMARK   10  A    between atoms: C18_29  and  N6_32 
REMARK   11  A    between atoms: C23_37  and  C24_38 
REMARK   12  A    between atoms: C24_38  and  C25_40 
REMARK   13  A    between atoms: C25_40  and  C26_41 
ROOT
HETATM    1  C13 UNL     1      -9.802  17.341  26.488  1.00  0.00     0.144 C 
ENDROOT
BRANCH   1   2
HETATM    2  N3  UNL     1      -8.596  18.094  26.543  1.00  0.00    -0.369 NA
HETATM    3  C12 UNL     1      -7.475  18.794  26.594  1.00  0.00     0.315 C 
HETATM    4  O2  UNL     1      -7.399  20.040  26.934  1.00  0.00    -0.255 OA
BRANCH   3   5
HETATM    5  C5  UNL     1      -6.079  18.283  26.273  1.00  0.00     0.201 C 
BRANCH   5   6
HETATM    6  C2  UNL     1      -5.669  17.301  27.365  1.00  0.00    -0.021 C 
HETATM    7  C1  UNL     1      -5.810  17.887  28.736  1.00  0.00     0.017 C 
HETATM    8  C3  UNL     1      -6.593  16.080  27.333  1.00  0.00     0.017 C 
HETATM    9  C4  UNL     1      -4.272  16.810  27.210  1.00  0.00     0.017 C 
ENDBRANCH   5   6
BRANCH   5  10
HETATM   10  N1  UNL     1      -6.080  17.616  24.995  1.00  0.00    -0.328 N 
HETATM   11  C6  UNL     1      -5.909  18.169  23.726  1.00  0.00     0.317 C 
HETATM   12  O1  UNL     1      -5.726  19.401  23.593  1.00  0.00    -0.247 OA
HETATM   13  N2  UNL     1      -5.928  17.368  22.580  1.00  0.00    -0.339 N 
ATOM     14  H2  UNL     1      -6.117  16.373  22.699  1.00  0.00     0.164 HD
ATOM     15  H1  UNL     1      -6.225  16.606  25.022  1.00  0.00     0.165 HD
BRANCH  13  16
HETATM   16  C7  UNL     1      -5.697  17.859  21.229  1.00  0.00     0.086 C 
HETATM   17  C8  UNL     1      -6.984  18.034  20.509  1.00  0.00     0.025 C 
HETATM   18  C9  UNL     1      -6.527  18.047  19.043  1.00  0.00     0.002 C 
HETATM   19  C10 UNL     1      -5.284  17.183  19.002  1.00  0.00     0.002 C 
HETATM   20  C11 UNL     1      -4.953  16.824  20.410  1.00  0.00     0.025 C 
ENDBRANCH  13  16
ENDBRANCH   5  10
ENDBRANCH   3   5
ENDBRANCH   1   2
BRANCH   1  21
HETATM   21  C14 UNL     1     -10.493  17.266  25.186  1.00  0.00     0.136 C 
BRANCH  21  22
HETATM   22  C15 UNL     1      -9.881  16.436  24.148  1.00  0.00     0.032 A 
HETATM   23  C16 UNL     1     -10.426  16.293  22.886  1.00  0.00     0.114 A 
HETATM   24  N4  UNL     1      -9.626  15.458  22.196  1.00  0.00    -0.360 N 
HETATM   25  C17 UNL     1      -8.607  15.077  22.978  1.00  0.00     0.180 A 
ATOM     26  H4  UNL     1      -9.772  15.163  21.231  1.00  0.00     0.166 HD
HETATM   27  N5  UNL     1      -8.786  15.686  24.158  1.00  0.00    -0.354 N 
ATOM     28  H5  UNL     1      -8.162  15.587  24.959  1.00  0.00     0.166 HD
ENDBRANCH  21  22
ENDBRANCH   1  21
BRANCH   1  29
HETATM   29  C18 UNL     1     -10.638  17.523  27.688  1.00  0.00     0.176 C 
BRANCH  29  30
HETATM   30  O3  UNL     1     -10.919  18.803  27.878  1.00  0.00    -0.344 OA
ATOM     31  H3  UNL     1     -10.153  19.344  27.732  1.00  0.00     0.219 HD
ENDBRANCH  29  30
BRANCH  29  32
HETATM   32  N6  UNL     1     -11.183  16.696  28.638  1.00  0.00    -0.348 N 
HETATM   33  C19 UNL     1     -12.679  16.724  28.751  1.00  0.00     0.126 C 
HETATM   34  C20 UNL     1     -13.294  15.424  28.366  1.00  0.00     0.020 C 
HETATM   35  C21 UNL     1     -12.354  14.304  28.830  1.00  0.00     0.004 C 
HETATM   36  C22 UNL     1     -11.702  14.855  30.079  1.00  0.00     0.033 C 
HETATM   37  C23 UNL     1     -10.578  15.804  29.582  1.00  0.00     0.156 C 
BRANCH  37  38
HETATM   38  C24 UNL     1      -9.987  16.483  30.764  1.00  0.00     0.149 C 
HETATM   39  O4  UNL     1     -10.071  17.702  30.843  1.00  0.00    -0.296 OA
BRANCH  38  40
HETATM   40  C25 UNL     1      -9.334  15.701  31.802  1.00  0.00     0.085 C 
BRANCH  40  41
HETATM   41  C26 UNL     1      -9.922  15.765  33.174  1.00  0.00    -0.007 C 
HETATM   42  C27 UNL     1      -9.307  16.754  34.108  1.00  0.00     0.005 C 
HETATM   43  C28 UNL     1     -10.040  16.688  35.446  1.00  0.00     0.000 C 
HETATM   44  C29 UNL     1     -11.369  16.018  35.327  1.00  0.00     0.000 C 
HETATM   45  C30 UNL     1     -11.295  14.605  34.804  1.00  0.00     0.000 C 
HETATM   46  C31 UNL     1     -10.135  14.434  33.831  1.00  0.00     0.005 C 
ENDBRANCH  40  41
ENDBRANCH  38  40
ENDBRANCH  37  38
ENDBRANCH  29  32
ENDBRANCH   1  29
TORSDOF 13
ENDMDL
MODEL 4
REMARK VINA RESULT: -8.840440690      0.722      1.124
REMARK  13 active torsions:
REMARK  status: ('A' for Active; 'I' for Inactive)
REMARK    1  A    between atoms: C2_2  and  C5_5 
REMARK    2  A    between atoms: C5_5  and  N1_6 
REMARK    3  A    between atoms: C5_5  and  C12_17 
REMARK       I    between atoms: N1_6  and  C6_8 
REMARK       I    between atoms: C6_8  and  N2_10 
REMARK    4  A    between atoms: N2_10  and  C7_12 
REMARK       I    between atoms: C12_17  and  N3_19 
REMARK    5  A    between atoms: N3_19  and  C13_20 
REMARK    6  A    between atoms: C13_20  and  C14_21 
REMARK    7  A    between atoms: C13_20  and  C18_29 
REMARK    8  A    between atoms: C14_21  and  C15_22 
REMARK    9  A    between atoms: C18_29  and  O3_30 
REMARK   10  A    between atoms: C18_29  and  N6_32 
REMARK   11  A    between atoms: C23_37  and  C24_38 
REMARK   12  A    between atoms: C24_38  and  C25_40 
REMARK   13  A    between atoms: C25_40  and  C26_41 
ROOT
HETATM    1  C13 UNL     1     -11.250  14.209  30.019  1.00  0.00     0.144 C 
ENDROOT
BRANCH   1   2
HETATM    2  N3  UNL     1     -10.414  14.664  28.964  1.00  0.00    -0.369 NA
HETATM    3  C12 UNL     1      -9.635  15.088  27.981  1.00  0.00     0.315 C 
HETATM    4  O2  UNL     1      -8.907  14.322  27.236  1.00  0.00    -0.255 OA
BRANCH   3   5
HETATM    5  C5  UNL     1      -9.447  16.532  27.540  1.00  0.00     0.201 C 
BRANCH   5   6
HETATM    6  C2  UNL     1      -8.562  17.232  28.564  1.00  0.00    -0.021 C 
HETATM    7  C1  UNL     1      -7.581  16.295  29.200  1.00  0.00     0.017 C 
HETATM    8  C3  UNL     1      -7.724  18.309  27.870  1.00  0.00     0.017 C 
HETATM    9  C4  UNL     1      -9.339  17.896  29.646  1.00  0.00     0.017 C 
ENDBRANCH   5   6
BRANCH   5  10
HETATM   10  N1  UNL     1      -8.817  16.572  26.243  1.00  0.00    -0.328 N 
HETATM   11  C6  UNL     1      -9.382  16.905  25.012  1.00  0.00     0.317 C 
HETATM   12  O1  UNL     1     -10.590  17.222  24.937  1.00  0.00    -0.247 OA
HETATM   13  N2  UNL     1      -8.616  16.903  23.842  1.00  0.00    -0.339 N 
ATOM     14  H2  UNL     1      -7.643  16.606  23.912  1.00  0.00     0.164 HD
ATOM     15  H1  UNL     1      -7.827  16.325  26.225  1.00  0.00     0.165 HD
BRANCH  13  16
HETATM   16  C7  UNL     1      -9.114  17.297  22.532  1.00  0.00     0.086 C 
HETATM   17  C8  UNL     1      -9.614  16.114  21.787  1.00  0.00     0.025 C 
HETATM   18  C9  UNL     1      -9.603  16.626  20.339  1.00  0.00     0.002 C 
HETATM   19  C10 UNL     1      -8.485  17.644  20.281  1.00  0.00     0.002 C 
HETATM   20  C11 UNL     1      -7.984  17.824  21.673  1.00  0.00     0.025 C 
ENDBRANCH  13  16
ENDBRANCH   5  10
ENDBRANCH   3   5
ENDBRANCH   1   2
BRANCH   1  21
HETATM   21  C14 UNL     1     -12.469  13.464  29.644  1.00  0.00     0.136 C 
BRANCH  21  22
HETATM   22  C15 UNL     1     -13.214  12.810  30.720  1.00  0.00     0.032 A 
HETATM   23  C16 UNL     1     -14.473  13.219  31.115  1.00  0.00     0.114 A 
HETATM   24  N4  UNL     1     -14.857  12.419  32.128  1.00  0.00    -0.360 N 
HETATM   25  C17 UNL     1     -13.887  11.529  32.377  1.00  0.00     0.180 A 
ATOM     26  H4  UNL     1     -15.745  12.480  32.625  1.00  0.00     0.166 HD
HETATM   27  N5  UNL     1     -12.900  11.788  31.508  1.00  0.00    -0.354 N 
ATOM     28  H5  UNL     1     -12.024  11.268  31.457  1.00  0.00     0.166 HD
ENDBRANCH  21  22
ENDBRANCH   1  21
BRANCH   1  29
HETATM   29  C18 UNL     1     -11.368  15.189  31.113  1.00  0.00     0.176 C 
BRANCH  29  30
HETATM   30  O3  UNL     1     -12.157  16.194  30.763  1.00  0.00    -0.344 OA
ATOM     31  H3  UNL     1     -12.352  16.748  31.510  1.00  0.00     0.219 HD
ENDBRANCH  29  30
BRANCH  29  32
HETATM   32  N6  UNL     1     -10.863  15.308  32.383  1.00  0.00    -0.348 N 
HETATM   33  C19 UNL     1      -9.381  15.112  32.520  1.00  0.00     0.126 C 
HETATM   34  C20 UNL     1      -8.689  16.358  32.950  1.00  0.00     0.020 C 
HETATM   35  C21 UNL     1      -9.616  17.098  33.922  1.00  0.00     0.004 C 
HETATM   36  C22 UNL     1     -10.379  15.998  34.625  1.00  0.00     0.033 C 
HETATM   37  C23 UNL     1     -11.500  15.569  33.640  1.00  0.00     0.156 C 
BRANCH  37  38
HETATM   38  C24 UNL     1     -12.202  14.395  34.219  1.00  0.00     0.149 C 
HETATM   39  O4  UNL     1     -13.426  14.404  34.257  1.00  0.00    -0.296 OA
BRANCH  38  40
HETATM   40  C25 UNL     1     -11.439  13.262  34.718  1.00  0.00     0.085 C 
BRANCH  40  41
HETATM   41  C26 UNL     1     -11.752  12.787  36.099  1.00  0.00    -0.007 C 
HETATM   42  C27 UNL     1     -12.828  11.758  36.213  1.00  0.00     0.005 C 
HETATM   43  C28 UNL     1     -13.000  11.387  37.685  1.00  0.00     0.000 C 
HETATM   44  C29 UNL     1     -11.822  11.793  38.508  1.00  0.00     0.000 C 
HETATM   45  C30 UNL     1     -11.531  13.273  38.466  1.00  0.00     0.000 C 
HETATM   46  C31 UNL     1     -11.910  13.875  37.120  1.00  0.00     0.005 C 
ENDBRANCH  40  41
ENDBRANCH  38  40
ENDBRANCH  37  38
ENDBRANCH  29  32
ENDBRANCH   1  29
TORSDOF 13
ENDMDL
MODEL 5
REMARK VINA RESULT: -8.826093020      2.154      9.620
REMARK  13 active torsions:
REMARK  status: ('A' for Active; 'I' for Inactive)
REMARK    1  A    between atoms: C2_2  and  C5_5 
REMARK    2  A    between atoms: C5_5  and  N1_6 
REMARK    3  A    between atoms: C5_5  and  C12_17 
REMARK       I    between atoms: N1_6  and  C6_8 
REMARK       I    between atoms: C6_8  and  N2_10 
REMARK    4  A    between atoms: N2_10  and  C7_12 
REMARK       I    between atoms: C12_17  and  N3_19 
REMARK    5  A    between atoms: N3_19  and  C13_20 
REMARK    6  A    between atoms: C13_20  and  C14_21 
REMARK    7  A    between atoms: C13_20  and  C18_29 
REMARK    8  A    between atoms: C14_21  and  C15_22 
REMARK    9  A    between atoms: C18_29  and  O3_30 
REMARK   10  A    between atoms: C18_29  and  N6_32 
REMARK   11  A    between atoms: C23_37  and  C24_38 
REMARK   12  A    between atoms: C24_38  and  C25_40 
REMARK   13  A    between atoms: C25_40  and  C26_41 
ROOT
HETATM    1  C13 UNL     1      -9.432  14.700  29.137  1.00  0.00     0.144 C 
ENDROOT
BRANCH   1   2
HETATM    2  N3  UNL     1     -10.674  15.354  29.371  1.00  0.00    -0.369 NA
HETATM    3  C12 UNL     1     -11.829  15.962  29.588  1.00  0.00     0.315 C 
HETATM    4  O2  UNL     1     -12.199  17.063  29.021  1.00  0.00    -0.255 OA
BRANCH   3   5
HETATM    5  C5  UNL     1     -12.930  15.493  30.527  1.00  0.00     0.201 C 
BRANCH   5   6
HETATM    6  C2  UNL     1     -13.896  14.623  29.732  1.00  0.00    -0.021 C 
HETATM    7  C1  UNL     1     -13.959  15.019  28.289  1.00  0.00     0.017 C 
HETATM    8  C3  UNL     1     -13.412  13.170  29.747  1.00  0.00     0.017 C 
HETATM    9  C4  UNL     1     -15.280  14.640  30.280  1.00  0.00     0.017 C 
ENDBRANCH   5   6
BRANCH   5  10
HETATM   10  N1  UNL     1     -12.362  14.726  31.609  1.00  0.00    -0.328 N 
HETATM   11  C6  UNL     1     -12.586  14.859  32.979  1.00  0.00     0.317 C 
HETATM   12  O1  UNL     1     -13.368  15.736  33.410  1.00  0.00    -0.247 OA
HETATM   13  N2  UNL     1     -11.954  14.016  33.899  1.00  0.00    -0.339 N 
ATOM     14  H2  UNL     1     -11.289  13.332  33.538  1.00  0.00     0.164 HD
ATOM     15  H1  UNL     1     -11.711  13.990  31.335  1.00  0.00     0.165 HD
BRANCH  13  16
HETATM   16  C7  UNL     1     -12.181  14.050  35.337  1.00  0.00     0.086 C 
HETATM   17  C8  UNL     1     -11.090  14.790  36.020  1.00  0.00     0.025 C 
HETATM   18  C9  UNL     1     -11.228  14.290  37.466  1.00  0.00     0.002 C 
HETATM   19  C10 UNL     1     -11.784  12.886  37.355  1.00  0.00     0.002 C 
HETATM   20  C11 UNL     1     -12.101  12.653  35.917  1.00  0.00     0.025 C 
ENDBRANCH  13  16
ENDBRANCH   5  10
ENDBRANCH   3   5
ENDBRANCH   1   2
BRANCH   1  21
HETATM   21  C14 UNL     1      -8.470  14.657  30.255  1.00  0.00     0.136 C 
BRANCH  21  22
HETATM   22  C15 UNL     1      -8.750  15.505  31.415  1.00  0.00     0.032 A 
HETATM   23  C16 UNL     1      -8.873  15.002  32.697  1.00  0.00     0.114 A 
HETATM   24  N4  UNL     1      -9.143  16.041  33.510  1.00  0.00    -0.360 N 
HETATM   25  C17 UNL     1      -9.191  17.167  32.786  1.00  0.00     0.180 A 
ATOM     26  H4  UNL     1      -9.287  15.980  34.518  1.00  0.00     0.166 HD
HETATM   27  N5  UNL     1      -8.948  16.813  31.517  1.00  0.00    -0.354 N 
ATOM     28  H5  UNL     1      -8.918  17.464  30.732  1.00  0.00     0.166 HD
ENDBRANCH  21  22
ENDBRANCH   1  21
BRANCH   1  29
HETATM   29  C18 UNL     1      -8.893  14.971  27.792  1.00  0.00     0.176 C 
BRANCH  29  30
HETATM   30  O3  UNL     1      -8.127  13.972  27.380  1.00  0.00    -0.344 OA
ATOM     31  H3  UNL     1      -7.492  13.735  28.045  1.00  0.00     0.219 HD
ENDBRANCH  29  30
BRANCH  29  32
HETATM   32  N6  UNL     1      -8.992  15.994  26.884  1.00  0.00    -0.348 N 
HETATM   33  C19 UNL     1      -8.426  15.718  25.521  1.00  0.00     0.126 C 
HETATM   34  C20 UNL     1      -9.480  15.703  24.470  1.00  0.00     0.020 C 
HETATM   35  C21 UNL     1     -10.525  16.764  24.838  1.00  0.00     0.004 C 
HETATM   36  C22 UNL     1      -9.736  17.840  25.549  1.00  0.00     0.033 C 
HETATM   37  C23 UNL     1      -9.527  17.319  26.997  1.00  0.00     0.156 C 
BRANCH  37  38
HETATM   38  C24 UNL     1      -8.639  18.273  27.710  1.00  0.00     0.149 C 
HETATM   39  O4  UNL     1      -8.694  18.324  28.932  1.00  0.00    -0.296 OA
BRANCH  38  40
HETATM   40  C25 UNL     1      -7.722  19.115  26.958  1.00  0.00     0.085 C 
BRANCH  40  41
HETATM   41  C26 UNL     1      -6.407  18.518  26.577  1.00  0.00    -0.007 C 
HETATM   42  C27 UNL     1      -5.769  17.629  27.593  1.00  0.00     0.005 C 
HETATM   43  C28 UNL     1      -4.450  17.105  27.027  1.00  0.00     0.000 C 
HETATM   44  C29 UNL     1      -4.375  17.253  25.544  1.00  0.00     0.000 C 
HETATM   45  C30 UNL     1      -4.515  18.678  25.067  1.00  0.00     0.000 C 
HETATM   46  C31 UNL     1      -5.424  19.484  25.984  1.00  0.00     0.005 C 
ENDBRANCH  40  41
ENDBRANCH  38  40
ENDBRANCH  37  38
ENDBRANCH  29  32
ENDBRANCH   1  29
TORSDOF 13
ENDMDL
