MODEL 1
REMARK VINA RESULT: -8.549438658      0.000      0.000
REMARK  12 active torsions:
REMARK  status: ('A' for Active; 'I' for Inactive)
REMARK    1  A    between atoms: C2_2  and  C4_4 
REMARK    2  A    between atoms: C4_4  and  C5_5 
REMARK    3  A    between atoms: C5_5  and  C6_6 
REMARK    4  A    between atoms: C6_6  and  N1_7 
REMARK    5  A    between atoms: C6_6  and  C22_26 
REMARK    6  A    between atoms: C6_6  and  C28_38 
REMARK    7  A    between atoms: N1_7  and  C7_9 
REMARK    8  A    between atoms: C7_9  and  C8_10 
REMARK    9  A    between atoms: C7_9  and  C12_14 
REMARK   10  A    between atoms: C8_10  and  C9_11 
REMARK       I    between atoms: C12_14  and  N2_16 
REMARK       I    between atoms: C22_26  and  N3_28 
REMARK   11  A    between atoms: N3_28  and  C23_30 
REMARK       I    between atoms: C28_38  and  N6_40 
REMARK   12  A    between atoms: N6_40  and  C29_42 
ROOT
HETATM    1  C6  UNL     1     -10.379  15.838  27.318  1.00  0.00     0.190 C 
ENDROOT
BRANCH   1   2
HETATM    2  C5  UNL     1     -10.976  14.425  27.088  1.00  0.00     0.051 C 
BRANCH   2   3
HETATM    3  C4  UNL     1     -10.897  13.544  28.273  1.00  0.00     0.007 C 
BRANCH   3   4
HETATM    4  C2  UNL     1     -12.269  12.859  28.402  1.00  0.00    -0.023 C 
HETATM    5  C1  UNL     1     -12.353  12.069  29.678  1.00  0.00     0.009 C 
HETATM    6  C3  UNL     1     -12.544  11.988  27.211  1.00  0.00     0.009 C 
ENDBRANCH   3   4
ENDBRANCH   2   3
ENDBRANCH   1   2
BRANCH   1   7
HETATM    7  N1  UNL     1      -9.295  15.670  28.165  1.00  0.00    -0.385 N 
ATOM      8  H1  UNL     1      -9.062  14.716  28.441  1.00  0.00     0.155 HD
BRANCH   7   9
HETATM    9  C7  UNL     1      -8.483  16.715  28.679  1.00  0.00     0.171 C 
BRANCH   9  10
HETATM   10  C8  UNL     1      -8.193  16.570  30.123  1.00  0.00     0.038 C 
BRANCH  10  11
HETATM   11  C9  UNL     1      -9.135  16.010  31.080  1.00  0.00    -0.020 C 
HETATM   12  C10 UNL     1      -9.067  14.612  31.520  1.00  0.00     0.009 C 
HETATM   13  C11 UNL     1      -9.202  16.858  32.379  1.00  0.00     0.009 C 
ENDBRANCH  10  11
ENDBRANCH   9  10
BRANCH   9  14
HETATM   14  C12 UNL     1      -7.172  16.546  27.952  1.00  0.00     0.242 C 
HETATM   15  O1  UNL     1      -6.678  15.374  28.078  1.00  0.00    -0.271 OA
HETATM   16  N2  UNL     1      -6.495  17.486  27.197  1.00  0.00    -0.350 N 
HETATM   17  C13 UNL     1      -6.916  18.829  26.865  1.00  0.00     0.126 C 
HETATM   18  C21 UNL     1      -5.181  17.121  26.656  1.00  0.00     0.126 C 
HETATM   19  C14 UNL     1      -6.830  19.044  25.365  1.00  0.00     0.029 C 
HETATM   20  C15 UNL     1      -5.448  18.728  24.843  1.00  0.00    -0.037 C 
HETATM   21  C16 UNL     1      -5.380  18.869  23.337  1.00  0.00     0.010 C 
HETATM   22  C19 UNL     1      -4.413  19.736  25.297  1.00  0.00     0.010 C 
HETATM   23  C20 UNL     1      -5.103  17.315  25.179  1.00  0.00     0.029 C 
HETATM   24  C17 UNL     1      -3.915  19.168  23.026  1.00  0.00     0.001 C 
HETATM   25  C18 UNL     1      -3.280  19.621  24.299  1.00  0.00     0.001 C 
ENDBRANCH   9  14
ENDBRANCH   7   9
ENDBRANCH   1   7
BRANCH   1  26
HETATM   26  C22 UNL     1     -11.495  16.467  28.121  1.00  0.00     0.261 C 
HETATM   27  O2  UNL     1     -11.179  17.611  28.591  1.00  0.00    -0.270 OA
HETATM   28  N3  UNL     1     -12.734  15.980  28.382  1.00  0.00    -0.310 N 
ATOM     29  H3  UNL     1     -13.339  15.853  27.570  1.00  0.00     0.170 HD
BRANCH  28  30
HETATM   30  C23 UNL     1     -13.241  15.661  29.495  1.00  0.00     0.107 A 
HETATM   31  C24 UNL     1     -14.519  15.152  29.567  1.00  0.00     0.050 A 
HETATM   32  C25 UNL     1     -15.135  14.784  30.757  1.00  0.00     0.032 A 
HETATM   33  C26 UNL     1     -14.443  14.933  31.937  1.00  0.00     0.061 A 
HETATM   34  N4  UNL     1     -14.993  14.588  33.186  1.00  0.00    -0.101 NA
HETATM   35  C27 UNL     1     -13.156  15.448  31.849  1.00  0.00     0.116 A 
HETATM   36  N5  UNL     1     -12.598  15.789  30.677  1.00  0.00    -0.350 N 
ATOM     37  H5  UNL     1     -11.648  16.162  30.679  1.00  0.00     0.166 HD
ENDBRANCH  28  30
ENDBRANCH   1  26
BRANCH   1  38
HETATM   38  C28 UNL     1     -10.207  16.373  25.985  1.00  0.00     0.256 C 
HETATM   39  O3  UNL     1     -10.474  17.575  25.745  1.00  0.00    -0.270 OA
HETATM   40  N6  UNL     1      -9.743  15.641  24.865  1.00  0.00    -0.350 N 
ATOM     41  H6  UNL     1      -9.507  14.659  25.003  1.00  0.00     0.163 HD
BRANCH  40  42
HETATM   42  C29 UNL     1      -9.581  16.193  23.540  1.00  0.00     0.022 C 
HETATM   43  C30 UNL     1      -8.794  17.478  23.544  1.00  0.00     0.037 C 
HETATM   44  C31 UNL     1      -8.765  15.207  22.689  1.00  0.00     0.037 C 
HETATM   45  C32 UNL     1     -10.915  16.309  22.880  1.00  0.00     0.037 C 
ENDBRANCH  40  42
ENDBRANCH   1  38
TORSDOF 12
ENDMDL
MODEL 2
REMARK VINA RESULT: -8.500390697      1.610      5.923
REMARK  12 active torsions:
REMARK  status: ('A' for Active; 'I' for Inactive)
REMARK    1  A    between atoms: C2_2  and  C4_4 
REMARK    2  A    between atoms: C4_4  and  C5_5 
REMARK    3  A    between atoms: C5_5  and  C6_6 
REMARK    4  A    between atoms: C6_6  and  N1_7 
REMARK    5  A    between atoms: C6_6  and  C22_26 
REMARK    6  A    between atoms: C6_6  and  C28_38 
REMARK    7  A    between atoms: N1_7  and  C7_9 
REMARK    8  A    between atoms: C7_9  and  C8_10 
REMARK    9  A    between atoms: C7_9  and  C12_14 
REMARK   10  A    between atoms: C8_10  and  C9_11 
REMARK       I    between atoms: C12_14  and  N2_16 
REMARK       I    between atoms: C22_26  and  N3_28 
REMARK   11  A    between atoms: N3_28  and  C23_30 
REMARK       I    between atoms: C28_38  and  N6_40 
REMARK   12  A    between atoms: N6_40  and  C29_42 
ROOT
HETATM    1  C6  UNL     1      -8.823  16.426  25.468  1.00  0.00     0.190 C 
ENDROOT
BRANCH   1   2
HETATM    2  C5  UNL     1      -9.352  15.662  24.226  1.00  0.00     0.051 C 
BRANCH   2   3
HETATM    3  C4  UNL     1     -10.056  16.522  23.252  1.00  0.00     0.007 C 
BRANCH   3   4
HETATM    4  C2  UNL     1      -9.593  16.072  21.855  1.00  0.00    -0.023 C 
HETATM    5  C1  UNL     1      -8.225  15.453  21.920  1.00  0.00     0.009 C 
HETATM    6  C3  UNL     1      -9.618  17.221  20.889  1.00  0.00     0.009 C 
ENDBRANCH   3   4
ENDBRANCH   2   3
ENDBRANCH   1   2
BRANCH   1   7
HETATM    7  N1  UNL     1      -8.231  15.478  26.285  1.00  0.00    -0.385 N 
ATOM      8  H1  UNL     1      -8.379  14.497  26.048  1.00  0.00     0.155 HD
BRANCH   7   9
HETATM    9  C7  UNL     1      -7.434  15.757  27.427  1.00  0.00     0.171 C 
BRANCH   9  10
HETATM   10  C8  UNL     1      -7.492  17.176  27.845  1.00  0.00     0.038 C 
BRANCH  10  11
HETATM   11  C9  UNL     1      -6.318  17.957  28.200  1.00  0.00    -0.020 C 
HETATM   12  C10 UNL     1      -4.974  17.613  27.722  1.00  0.00     0.009 C 
HETATM   13  C11 UNL     1      -6.511  19.462  27.867  1.00  0.00     0.009 C 
ENDBRANCH  10  11
ENDBRANCH   9  10
BRANCH   9  14
HETATM   14  C12 UNL     1      -8.081  14.952  28.526  1.00  0.00     0.242 C 
HETATM   15  O1  UNL     1      -7.781  13.710  28.479  1.00  0.00    -0.271 OA
HETATM   16  N2  UNL     1      -8.918  15.405  29.529  1.00  0.00    -0.350 N 
HETATM   17  C13 UNL     1      -9.314  16.768  29.807  1.00  0.00     0.126 C 
HETATM   18  C21 UNL     1      -9.507  14.415  30.439  1.00  0.00     0.126 C 
HETATM   19  C14 UNL     1      -9.052  17.097  31.265  1.00  0.00     0.029 C 
HETATM   20  C15 UNL     1      -9.727  16.103  32.182  1.00  0.00    -0.037 C 
HETATM   21  C16 UNL     1      -9.405  16.386  33.635  1.00  0.00     0.010 C 
HETATM   22  C19 UNL     1     -11.235  16.232  32.167  1.00  0.00     0.010 C 
HETATM   23  C20 UNL     1      -9.234  14.729  31.870  1.00  0.00     0.029 C 
HETATM   24  C17 UNL     1     -10.574  15.803  34.427  1.00  0.00     0.001 C 
HETATM   25  C18 UNL     1     -11.701  15.611  33.467  1.00  0.00     0.001 C 
ENDBRANCH   9  14
ENDBRANCH   7   9
ENDBRANCH   1   7
BRANCH   1  26
HETATM   26  C22 UNL     1     -10.133  16.829  26.106  1.00  0.00     0.261 C 
HETATM   27  O2  UNL     1     -10.091  17.996  26.623  1.00  0.00    -0.270 OA
HETATM   28  N3  UNL     1     -11.292  16.127  26.184  1.00  0.00    -0.310 N 
ATOM     29  H3  UNL     1     -11.746  15.923  25.293  1.00  0.00     0.170 HD
BRANCH  28  30
HETATM   30  C23 UNL     1     -11.885  15.692  27.211  1.00  0.00     0.107 A 
HETATM   31  C24 UNL     1     -11.803  14.363  27.562  1.00  0.00     0.050 A 
HETATM   32  C25 UNL     1     -12.432  13.819  28.676  1.00  0.00     0.032 A 
HETATM   33  C26 UNL     1     -13.183  14.644  29.481  1.00  0.00     0.061 A 
HETATM   34  N4  UNL     1     -13.855  14.175  30.627  1.00  0.00    -0.101 NA
HETATM   35  C27 UNL     1     -13.258  15.981  29.116  1.00  0.00     0.116 A 
HETATM   36  N5  UNL     1     -12.633  16.465  28.031  1.00  0.00    -0.350 N 
ATOM     37  H5  UNL     1     -12.726  17.458  27.816  1.00  0.00     0.166 HD
ENDBRANCH  28  30
ENDBRANCH   1  26
BRANCH   1  38
HETATM   38  C28 UNL     1      -8.051  17.517  24.912  1.00  0.00     0.256 C 
HETATM   39  O3  UNL     1      -8.454  18.700  25.025  1.00  0.00    -0.270 OA
HETATM   40  N6  UNL     1      -6.824  17.379  24.221  1.00  0.00    -0.350 N 
ATOM     41  H6  UNL     1      -6.447  16.439  24.103  1.00  0.00     0.163 HD
BRANCH  40  42
HETATM   42  C29 UNL     1      -6.070  18.482  23.670  1.00  0.00     0.022 C 
HETATM   43  C30 UNL     1      -5.604  19.447  24.729  1.00  0.00     0.037 C 
HETATM   44  C31 UNL     1      -4.791  17.930  23.017  1.00  0.00     0.037 C 
HETATM   45  C32 UNL     1      -6.852  19.126  22.574  1.00  0.00     0.037 C 
ENDBRANCH  40  42
ENDBRANCH   1  38
TORSDOF 12
ENDMDL
MODEL 3
REMARK VINA RESULT: -8.488649543      1.988      6.192
REMARK  12 active torsions:
REMARK  status: ('A' for Active; 'I' for Inactive)
REMARK    1  A    between atoms: C2_2  and  C4_4 
REMARK    2  A    between atoms: C4_4  and  C5_5 
REMARK    3  A    between atoms: C5_5  and  C6_6 
REMARK    4  A    between atoms: C6_6  and  N1_7 
REMARK    5  A    between atoms: C6_6  and  C22_26 
REMARK    6  A    between atoms: C6_6  and  C28_38 
REMARK    7  A    between atoms: N1_7  and  C7_9 
REMARK    8  A    between atoms: C7_9  and  C8_10 
REMARK    9  A    between atoms: C7_9  and  C12_14 
REMARK   10  A    between atoms: C8_10  and  C9_11 
REMARK       I    between atoms: C12_14  and  N2_16 
REMARK       I    between atoms: C22_26  and  N3_28 
REMARK   11  A    between atoms: N3_28  and  C23_30 
REMARK       I    between atoms: C28_38  and  N6_40 
REMARK   12  A    between atoms: N6_40  and  C29_42 
ROOT
HETATM    1  C6  UNL     1      -8.894  17.171  24.699  1.00  0.00     0.190 C 
ENDROOT
BRANCH   1   2
HETATM    2  C5  UNL     1      -7.623  16.394  25.130  1.00  0.00     0.051 C 
BRANCH   2   3
HETATM    3  C4  UNL     1      -6.569  16.352  24.094  1.00  0.00     0.007 C 
BRANCH   3   4
HETATM    4  C2  UNL     1      -5.542  17.435  24.469  1.00  0.00    -0.023 C 
HETATM    5  C1  UNL     1      -4.956  18.065  23.236  1.00  0.00     0.009 C 
HETATM    6  C3  UNL     1      -4.465  16.866  25.346  1.00  0.00     0.009 C 
ENDBRANCH   3   4
ENDBRANCH   2   3
ENDBRANCH   1   2
BRANCH   1   7
HETATM    7  N1  UNL     1      -9.094  18.151  25.657  1.00  0.00    -0.385 N 
ATOM      8  H1  UNL     1      -9.850  18.816  25.495  1.00  0.00     0.155 HD
BRANCH   7   9
HETATM    9  C7  UNL     1      -8.334  18.306  26.847  1.00  0.00     0.171 C 
BRANCH   9  10
HETATM   10  C8  UNL     1      -7.666  19.623  26.944  1.00  0.00     0.038 C 
BRANCH  10  11
HETATM   11  C9  UNL     1      -6.270  19.790  27.321  1.00  0.00    -0.020 C 
HETATM   12  C10 UNL     1      -5.483  18.702  27.912  1.00  0.00     0.009 C 
HETATM   13  C11 UNL     1      -5.420  20.332  26.140  1.00  0.00     0.009 C 
ENDBRANCH  10  11
ENDBRANCH   9  10
BRANCH   9  14
HETATM   14  C12 UNL     1      -9.367  18.260  27.945  1.00  0.00     0.242 C 
HETATM   15  O1  UNL     1     -10.479  18.793  27.608  1.00  0.00    -0.271 OA
HETATM   16  N2  UNL     1      -9.234  17.719  29.211  1.00  0.00    -0.350 N 
HETATM   17  C13 UNL     1      -8.101  17.007  29.758  1.00  0.00     0.126 C 
HETATM   18  C21 UNL     1     -10.352  17.874  30.149  1.00  0.00     0.126 C 
HETATM   19  C14 UNL     1      -8.554  15.680  30.339  1.00  0.00     0.029 C 
HETATM   20  C15 UNL     1      -9.657  15.872  31.353  1.00  0.00    -0.037 C 
HETATM   21  C16 UNL     1     -10.162  14.545  31.879  1.00  0.00     0.010 C 
HETATM   22  C19 UNL     1      -9.170  16.543  32.621  1.00  0.00     0.010 C 
HETATM   23  C20 UNL     1     -10.808  16.568  30.706  1.00  0.00     0.029 C 
HETATM   24  C17 UNL     1     -10.736  14.851  33.261  1.00  0.00     0.001 C 
HETATM   25  C18 UNL     1     -10.182  16.171  33.683  1.00  0.00     0.001 C 
ENDBRANCH   9  14
ENDBRANCH   7   9
ENDBRANCH   1   7
BRANCH   1  26
HETATM   26  C22 UNL     1      -9.940  16.101  24.911  1.00  0.00     0.261 C 
HETATM   27  O2  UNL     1     -10.814  16.075  23.979  1.00  0.00    -0.270 OA
HETATM   28  N3  UNL     1     -10.050  15.207  25.926  1.00  0.00    -0.310 N 
ATOM     29  H3  UNL     1      -9.289  14.531  26.003  1.00  0.00     0.170 HD
BRANCH  28  30
HETATM   30  C23 UNL     1     -10.966  15.099  26.789  1.00  0.00     0.107 A 
HETATM   31  C24 UNL     1     -11.126  13.933  27.504  1.00  0.00     0.050 A 
HETATM   32  C25 UNL     1     -12.113  13.747  28.465  1.00  0.00     0.032 A 
HETATM   33  C26 UNL     1     -12.988  14.777  28.725  1.00  0.00     0.061 A 
HETATM   34  N4  UNL     1     -14.018  14.672  29.680  1.00  0.00    -0.101 NA
HETATM   35  C27 UNL     1     -12.816  15.946  27.997  1.00  0.00     0.116 A 
HETATM   36  N5  UNL     1     -11.847  16.084  27.077  1.00  0.00    -0.350 N 
ATOM     37  H5  UNL     1     -11.772  16.969  26.576  1.00  0.00     0.166 HD
ENDBRANCH  28  30
ENDBRANCH   1  26
BRANCH   1  38
HETATM   38  C28 UNL     1      -8.646  17.521  23.317  1.00  0.00     0.256 C 
HETATM   39  O3  UNL     1      -8.358  18.700  23.004  1.00  0.00    -0.270 OA
HETATM   40  N6  UNL     1      -8.697  16.620  22.226  1.00  0.00    -0.350 N 
ATOM     41  H6  UNL     1      -8.924  15.646  22.423  1.00  0.00     0.163 HD
BRANCH  40  42
HETATM   42  C29 UNL     1      -8.451  16.990  20.851  1.00  0.00     0.022 C 
HETATM   43  C30 UNL     1      -8.120  18.452  20.699  1.00  0.00     0.037 C 
HETATM   44  C31 UNL     1      -7.214  16.228  20.347  1.00  0.00     0.037 C 
HETATM   45  C32 UNL     1      -9.592  16.542  19.999  1.00  0.00     0.037 C 
ENDBRANCH  40  42
ENDBRANCH   1  38
TORSDOF 12
ENDMDL
MODEL 4
REMARK VINA RESULT: -8.473614514      2.520      5.504
REMARK  12 active torsions:
REMARK  status: ('A' for Active; 'I' for Inactive)
REMARK    1  A    between atoms: C2_2  and  C4_4 
REMARK    2  A    between atoms: C4_4  and  C5_5 
REMARK    3  A    between atoms: C5_5  and  C6_6 
REMARK    4  A    between atoms: C6_6  and  N1_7 
REMARK    5  A    between atoms: C6_6  and  C22_26 
REMARK    6  A    between atoms: C6_6  and  C28_38 
REMARK    7  A    between atoms: N1_7  and  C7_9 
REMARK    8  A    between atoms: C7_9  and  C8_10 
REMARK    9  A    between atoms: C7_9  and  C12_14 
REMARK   10  A    between atoms: C8_10  and  C9_11 
REMARK       I    between atoms: C12_14  and  N2_16 
REMARK       I    between atoms: C22_26  and  N3_28 
REMARK   11  A    between atoms: N3_28  and  C23_30 
REMARK       I    between atoms: C28_38  and  N6_40 
REMARK   12  A    between atoms: N6_40  and  C29_42 
ROOT
HETATM    1  C6  UNL     1     -10.310  14.672  29.537  1.00  0.00     0.190 C 
ENDROOT
BRANCH   1   2
HETATM    2  C5  UNL     1     -11.170  15.894  29.123  1.00  0.00     0.051 C 
BRANCH   2   3
HETATM    3  C4  UNL     1     -11.433  16.840  30.228  1.00  0.00     0.007 C 
BRANCH   3   4
HETATM    4  C2  UNL     1     -10.796  18.180  29.819  1.00  0.00    -0.023 C 
HETATM    5  C1  UNL     1     -10.711  18.295  28.322  1.00  0.00     0.009 C 
HETATM    6  C3  UNL     1      -9.443  18.341  30.448  1.00  0.00     0.009 C 
ENDBRANCH   3   4
ENDBRANCH   2   3
ENDBRANCH   1   2
BRANCH   1   7
HETATM    7  N1  UNL     1      -9.258  14.614  28.638  1.00  0.00    -0.385 N 
ATOM      8  H1  UNL     1      -8.889  13.692  28.408  1.00  0.00     0.155 HD
BRANCH   7   9
HETATM    9  C7  UNL     1      -8.650  15.733  28.009  1.00  0.00     0.171 C 
BRANCH   9  10
HETATM   10  C8  UNL     1      -7.384  16.147  28.653  1.00  0.00     0.038 C 
BRANCH  10  11
HETATM   11  C9  UNL     1      -6.434  17.064  28.042  1.00  0.00    -0.020 C 
HETATM   12  C10 UNL     1      -6.686  18.506  27.949  1.00  0.00     0.009 C 
HETATM   13  C11 UNL     1      -5.020  16.923  28.670  1.00  0.00     0.009 C 
ENDBRANCH  10  11
ENDBRANCH   9  10
BRANCH   9  14
HETATM   14  C12 UNL     1      -8.295  15.227  26.633  1.00  0.00     0.242 C 
HETATM   15  O1  UNL     1      -7.899  14.011  26.635  1.00  0.00    -0.271 OA
HETATM   16  N2  UNL     1      -8.359  15.914  25.435  1.00  0.00    -0.350 N 
HETATM   17  C13 UNL     1      -8.850  17.254  25.205  1.00  0.00     0.126 C 
HETATM   18  C21 UNL     1      -7.870  15.240  24.226  1.00  0.00     0.126 C 
HETATM   19  C14 UNL     1      -9.882  17.245  24.093  1.00  0.00     0.029 C 
HETATM   20  C15 UNL     1      -9.332  16.609  22.837  1.00  0.00    -0.037 C 
HETATM   21  C16 UNL     1     -10.384  16.531  21.750  1.00  0.00     0.010 C 
HETATM   22  C19 UNL     1      -8.266  17.459  22.177  1.00  0.00     0.010 C 
HETATM   23  C20 UNL     1      -8.892  15.216  23.140  1.00  0.00     0.029 C 
HETATM   24  C17 UNL     1      -9.605  16.507  20.437  1.00  0.00     0.001 C 
HETATM   25  C18 UNL     1      -8.228  17.001  20.734  1.00  0.00     0.001 C 
ENDBRANCH   9  14
ENDBRANCH   7   9
ENDBRANCH   1   7
BRANCH   1  26
HETATM   26  C22 UNL     1     -11.266  13.551  29.197  1.00  0.00     0.261 C 
HETATM   27  O2  UNL     1     -11.780  13.677  28.035  1.00  0.00    -0.270 OA
HETATM   28  N3  UNL     1     -11.618  12.477  29.948  1.00  0.00    -0.310 N 
ATOM     29  H3  UNL     1     -10.866  11.821  30.162  1.00  0.00     0.170 HD
BRANCH  28  30
HETATM   30  C23 UNL     1     -12.752  12.179  30.419  1.00  0.00     0.107 A 
HETATM   31  C24 UNL     1     -13.730  13.139  30.562  1.00  0.00     0.050 A 
HETATM   32  C25 UNL     1     -14.996  12.880  31.074  1.00  0.00     0.032 A 
HETATM   33  C26 UNL     1     -15.302  11.597  31.467  1.00  0.00     0.061 A 
HETATM   34  N4  UNL     1     -16.559  11.249  31.998  1.00  0.00    -0.101 NA
HETATM   35  C27 UNL     1     -14.308  10.640  31.318  1.00  0.00     0.116 A 
HETATM   36  N5  UNL     1     -13.097  10.934  30.817  1.00  0.00    -0.350 N 
ATOM     37  H5  UNL     1     -12.409  10.185  30.732  1.00  0.00     0.166 HD
ENDBRANCH  28  30
ENDBRANCH   1  26
BRANCH   1  38
HETATM   38  C28 UNL     1     -10.072  14.866  30.951  1.00  0.00     0.256 C 
HETATM   39  O3  UNL     1      -8.900  14.882  31.399  1.00  0.00    -0.270 OA
HETATM   40  N6  UNL     1     -11.077  15.050  31.930  1.00  0.00    -0.350 N 
ATOM     41  H6  UNL     1     -12.049  15.050  31.621  1.00  0.00     0.163 HD
BRANCH  40  42
HETATM   42  C29 UNL     1     -10.818  15.239  33.340  1.00  0.00     0.022 C 
HETATM   43  C30 UNL     1      -9.861  16.373  33.602  1.00  0.00     0.037 C 
HETATM   44  C31 UNL     1     -12.131  15.632  34.036  1.00  0.00     0.037 C 
HETATM   45  C32 UNL     1     -10.395  13.943  33.948  1.00  0.00     0.037 C 
ENDBRANCH  40  42
ENDBRANCH   1  38
TORSDOF 12
ENDMDL
MODEL 5
REMARK VINA RESULT: -8.385468696      2.161      8.154
REMARK  12 active torsions:
REMARK  status: ('A' for Active; 'I' for Inactive)
REMARK    1  A    between atoms: C2_2  and  C4_4 
REMARK    2  A    between atoms: C4_4  and  C5_5 
REMARK    3  A    between atoms: C5_5  and  C6_6 
REMARK    4  A    between atoms: C6_6  and  N1_7 
REMARK    5  A    between atoms: C6_6  and  C22_26 
REMARK    6  A    between atoms: C6_6  and  C28_38 
REMARK    7  A    between atoms: N1_7  and  C7_9 
REMARK    8  A    between atoms: C7_9  and  C8_10 
REMARK    9  A    between atoms: C7_9  and  C12_14 
REMARK   10  A    between atoms: C8_10  and  C9_11 
REMARK       I    between atoms: C12_14  and  N2_16 
REMARK       I    between atoms: C22_26  and  N3_28 
REMARK   11  A    between atoms: N3_28  and  C23_30 
REMARK       I    between atoms: C28_38  and  N6_40 
REMARK   12  A    between atoms: N6_40  and  C29_42 
ROOT
HETATM    1  C6  UNL     1      -8.134  16.216  25.989  1.00  0.00     0.190 C 
ENDROOT
BRANCH   1   2
HETATM    2  C5  UNL     1      -8.492  17.559  26.676  1.00  0.00     0.051 C 
BRANCH   2   3
HETATM    3  C4  UNL     1      -8.021  18.750  25.939  1.00  0.00     0.007 C 
BRANCH   3   4
HETATM    4  C2  UNL     1      -7.373  19.681  26.979  1.00  0.00    -0.023 C 
HETATM    5  C1  UNL     1      -5.975  20.051  26.567  1.00  0.00     0.009 C 
HETATM    6  C3  UNL     1      -7.381  19.048  28.340  1.00  0.00     0.009 C 
ENDBRANCH   3   4
ENDBRANCH   2   3
ENDBRANCH   1   2
BRANCH   1   7
HETATM    7  N1  UNL     1      -8.586  15.214  26.833  1.00  0.00    -0.385 N 
ATOM      8  H1  UNL     1      -8.013  14.374  26.911  1.00  0.00     0.155 HD
BRANCH   7   9
HETATM    9  C7  UNL     1      -9.782  15.260  27.598  1.00  0.00     0.171 C 
BRANCH   9  10
HETATM   10  C8  UNL     1     -10.816  14.315  27.120  1.00  0.00     0.038 C 
BRANCH  10  11
HETATM   11  C9  UNL     1     -11.902  13.824  27.954  1.00  0.00    -0.020 C 
HETATM   12  C10 UNL     1     -13.097  14.628  28.237  1.00  0.00     0.009 C 
HETATM   13  C11 UNL     1     -12.427  12.449  27.458  1.00  0.00     0.009 C 
ENDBRANCH  10  11
ENDBRANCH   9  10
BRANCH   9  14
HETATM   14  C12 UNL     1      -9.355  14.785  28.965  1.00  0.00     0.242 C 
HETATM   15  O1  UNL     1      -8.422  13.911  28.921  1.00  0.00    -0.271 OA
HETATM   16  N2  UNL     1      -9.845  15.188  30.193  1.00  0.00    -0.350 N 
HETATM   17  C13 UNL     1     -10.831  16.211  30.464  1.00  0.00     0.126 C 
HETATM   18  C21 UNL     1      -9.338  14.515  31.394  1.00  0.00     0.126 C 
HETATM   19  C14 UNL     1     -10.293  17.191  31.490  1.00  0.00     0.029 C 
HETATM   20  C15 UNL     1      -9.842  16.479  32.745  1.00  0.00    -0.037 C 
HETATM   21  C16 UNL     1      -9.236  17.446  33.741  1.00  0.00     0.010 C 
HETATM   22  C19 UNL     1     -11.000  15.906  33.534  1.00  0.00     0.010 C 
HETATM   23  C20 UNL     1      -8.794  15.477  32.395  1.00  0.00     0.029 C 
HETATM   24  C17 UNL     1      -9.429  16.790  35.107  1.00  0.00     0.001 C 
HETATM   25  C18 UNL     1     -10.479  15.741  34.946  1.00  0.00     0.001 C 
ENDBRANCH   9  14
ENDBRANCH   7   9
ENDBRANCH   1   7
BRANCH   1  26
HETATM   26  C22 UNL     1      -6.627  16.260  26.096  1.00  0.00     0.261 C 
HETATM   27  O2  UNL     1      -6.218  16.267  27.306  1.00  0.00    -0.270 OA
HETATM   28  N3  UNL     1      -5.704  16.287  25.101  1.00  0.00    -0.310 N 
ATOM     29  H3  UNL     1      -5.675  15.460  24.503  1.00  0.00     0.170 HD
BRANCH  28  30
HETATM   30  C23 UNL     1      -4.876  17.197  24.815  1.00  0.00     0.107 A 
HETATM   31  C24 UNL     1      -5.086  18.026  23.735  1.00  0.00     0.050 A 
HETATM   32  C25 UNL     1      -4.215  19.045  23.365  1.00  0.00     0.032 A 
HETATM   33  C26 UNL     1      -3.075  19.245  24.108  1.00  0.00     0.061 A 
HETATM   34  N4  UNL     1      -2.139  20.252  23.801  1.00  0.00    -0.101 NA
HETATM   35  C27 UNL     1      -2.875  18.402  25.193  1.00  0.00     0.116 A 
HETATM   36  N5  UNL     1      -3.744  17.431  25.517  1.00  0.00    -0.350 N 
ATOM     37  H5  UNL     1      -3.541  16.844  26.326  1.00  0.00     0.166 HD
ENDBRANCH  28  30
ENDBRANCH   1  26
BRANCH   1  38
HETATM   38  C28 UNL     1      -8.657  16.351  24.647  1.00  0.00     0.256 C 
HETATM   39  O3  UNL     1      -9.855  16.676  24.464  1.00  0.00    -0.270 OA
HETATM   40  N6  UNL     1      -7.917  16.145  23.458  1.00  0.00    -0.350 N 
ATOM     41  H6  UNL     1      -6.936  15.883  23.548  1.00  0.00     0.163 HD
BRANCH  40  42
HETATM   42  C29 UNL     1      -8.459  16.281  22.125  1.00  0.00     0.022 C 
HETATM   43  C30 UNL     1      -8.791  17.711  21.783  1.00  0.00     0.037 C 
HETATM   44  C31 UNL     1      -7.391  15.846  21.109  1.00  0.00     0.037 C 
HETATM   45  C32 UNL     1      -9.606  15.342  21.953  1.00  0.00     0.037 C 
ENDBRANCH  40  42
ENDBRANCH   1  38
TORSDOF 12
ENDMDL
