MODEL 1
REMARK VINA RESULT: -8.944612293      0.000      0.000
REMARK  11 active torsions:
REMARK  status: ('A' for Active; 'I' for Inactive)
REMARK    1  A    between atoms: C2_2  and  N1_3 
REMARK    2  A    between atoms: C2_2  and  C16_24 
REMARK    3  A    between atoms: N1_3  and  C3_5 
REMARK    4  A    between atoms: C3_5  and  C4_6 
REMARK    5  A    between atoms: C3_5  and  C8_14 
REMARK    6  A    between atoms: C4_6  and  C5_7 
REMARK       I    between atoms: C8_14  and  N4_16 
REMARK    7  A    between atoms: N4_16  and  C10_18 
REMARK    8  A    between atoms: C16_24  and  N5_25 
REMARK    9  A    between atoms: C16_24  and  C28_43 
REMARK       I    between atoms: N5_25  and  C17_27 
REMARK   10  A    between atoms: C17_27  and  C18_29 
REMARK   11  A    between atoms: C18_29  and  N6_30 
ROOT
HETATM    1  C16 UNL     1     -11.779  14.362  29.936  1.00  0.00     0.110 C 
ENDROOT
BRANCH   1   2
HETATM    2  C2  UNL     1     -11.271  14.304  28.497  1.00  0.00     0.096 C 
HETATM    3  C1  UNL     1     -11.864  13.196  27.694  1.00  0.00     0.034 C 
BRANCH   2   4
HETATM    4  N1  UNL     1     -11.476  15.559  27.843  1.00  0.00    -0.403 N 
ATOM      5  H1  UNL     1     -12.408  15.935  27.669  1.00  0.00     0.154 HD
BRANCH   4   6
HETATM    6  C3  UNL     1     -10.287  16.253  27.450  1.00  0.00     0.175 C 
BRANCH   6   7
HETATM    7  C4  UNL     1     -10.178  17.606  28.127  1.00  0.00     0.093 C 
BRANCH   7   8
HETATM    8  C5  UNL     1      -8.861  18.240  27.839  1.00  0.00     0.028 A 
HETATM    9  C6  UNL     1      -7.649  17.806  28.322  1.00  0.00     0.114 A 
HETATM   10  N2  UNL     1      -6.697  18.643  27.838  1.00  0.00    -0.360 N 
HETATM   11  C7  UNL     1      -7.279  19.575  27.074  1.00  0.00     0.180 A 
ATOM     12  H2  UNL     1      -5.697  18.573  28.025  1.00  0.00     0.166 HD
HETATM   13  N3  UNL     1      -8.600  19.319  27.082  1.00  0.00    -0.354 N 
ATOM     14  H3  UNL     1      -9.302  19.866  26.585  1.00  0.00     0.166 HD
ENDBRANCH   7   8
ENDBRANCH   6   7
BRANCH   6  15
HETATM   15  C8  UNL     1     -10.204  16.350  25.960  1.00  0.00     0.242 C 
HETATM   16  O1  UNL     1     -11.231  16.844  25.351  1.00  0.00    -0.271 OA
HETATM   17  N4  UNL     1      -9.153  15.970  25.132  1.00  0.00    -0.350 N 
HETATM   18  C9  UNL     1      -7.946  15.369  25.630  1.00  0.00     0.153 C 
BRANCH  17  19
HETATM   19  C10 UNL     1      -9.217  16.158  23.680  1.00  0.00     0.086 C 
HETATM   20  C11 UNL     1      -8.432  17.406  23.353  1.00  0.00     0.025 C 
HETATM   21  C12 UNL     1      -8.404  17.738  21.897  1.00  0.00     0.002 C 
HETATM   22  C13 UNL     1      -8.071  16.497  21.111  1.00  0.00     0.000 C 
HETATM   23  C14 UNL     1      -7.560  15.434  22.034  1.00  0.00     0.002 C 
HETATM   24  C15 UNL     1      -8.710  14.979  22.918  1.00  0.00     0.025 C 
ENDBRANCH  17  19
ENDBRANCH   6  15
ENDBRANCH   4   6
ENDBRANCH   2   4
ENDBRANCH   1   2
BRANCH   1  25
HETATM   25  N5  UNL     1     -12.089  13.055  30.440  1.00  0.00    -0.352 N 
HETATM   26  C17 UNL     1     -13.387  12.626  30.826  1.00  0.00     0.255 C 
HETATM   27  O2  UNL     1     -14.315  13.472  30.710  1.00  0.00    -0.271 OA
ATOM     28  H5  UNL     1     -11.323  12.387  30.528  1.00  0.00     0.163 HD
BRANCH  26  29
HETATM   29  C18 UNL     1     -13.648  11.277  31.334  1.00  0.00     0.210 C 
HETATM   30  C19 UNL     1     -13.446  11.172  32.832  1.00  0.00     0.032 C 
HETATM   31  C20 UNL     1     -13.370   9.713  33.171  1.00  0.00     0.012 C 
HETATM   32  C24 UNL     1     -14.533  11.818  33.624  1.00  0.00     0.012 C 
HETATM   33  C21 UNL     1     -14.690   9.068  32.818  1.00  0.00    -0.013 C 
HETATM   34  C22 UNL     1     -15.790   9.699  33.657  1.00  0.00     0.009 C 
HETATM   35  C27 UNL     1     -14.976   9.227  31.346  1.00  0.00     0.012 C 
HETATM   36  C23 UNL     1     -15.862  11.154  33.308  1.00  0.00    -0.013 C 
HETATM   37  C25 UNL     1     -16.109  11.318  31.833  1.00  0.00     0.012 C 
HETATM   38  C26 UNL     1     -14.992  10.720  31.005  1.00  0.00     0.032 C 
BRANCH  29  39
HETATM   39  N6  UNL     1     -12.639  10.374  30.753  1.00  0.00    -0.061 N 
ATOM     40  H63 UNL     1     -12.761  10.239  29.750  1.00  0.00     0.275 HD
ATOM     41  H62 UNL     1     -11.708  10.790  30.722  1.00  0.00     0.275 HD
ATOM     42  H61 UNL     1     -12.666   9.499  31.277  1.00  0.00     0.275 HD
ENDBRANCH  29  39
ENDBRANCH  26  29
ENDBRANCH   1  25
BRANCH   1  43
HETATM   43  C28 UNL     1     -11.000  15.201  30.861  1.00  0.00     0.010 C 
HETATM   44  C29 UNL     1      -9.498  15.027  30.739  1.00  0.00     0.007 C 
HETATM   45  C30 UNL     1      -8.872  16.194  31.522  1.00  0.00     0.000 C 
HETATM   46  C31 UNL     1      -9.217  15.958  32.974  1.00  0.00     0.000 C 
HETATM   47  C32 UNL     1     -10.721  16.221  33.113  1.00  0.00     0.000 C 
HETATM   48  C33 UNL     1     -11.467  15.182  32.271  1.00  0.00     0.007 C 
ENDBRANCH   1  43
TORSDOF 11
ENDMDL
MODEL 2
REMARK VINA RESULT: -8.884755879      2.941     10.234
REMARK  11 active torsions:
REMARK  status: ('A' for Active; 'I' for Inactive)
REMARK    1  A    between atoms: C2_2  and  N1_3 
REMARK    2  A    between atoms: C2_2  and  C16_24 
REMARK    3  A    between atoms: N1_3  and  C3_5 
REMARK    4  A    between atoms: C3_5  and  C4_6 
REMARK    5  A    between atoms: C3_5  and  C8_14 
REMARK    6  A    between atoms: C4_6  and  C5_7 
REMARK       I    between atoms: C8_14  and  N4_16 
REMARK    7  A    between atoms: N4_16  and  C10_18 
REMARK    8  A    between atoms: C16_24  and  N5_25 
REMARK    9  A    between atoms: C16_24  and  C28_43 
REMARK       I    between atoms: N5_25  and  C17_27 
REMARK   10  A    between atoms: C17_27  and  C18_29 
REMARK   11  A    between atoms: C18_29  and  N6_30 
ROOT
HETATM    1  C16 UNL     1      -8.496  16.776  25.958  1.00  0.00     0.110 C 
ENDROOT
BRANCH   1   2
HETATM    2  C2  UNL     1      -9.595  17.501  26.732  1.00  0.00     0.096 C 
HETATM    3  C1  UNL     1      -9.994  18.805  26.128  1.00  0.00     0.034 C 
BRANCH   2   4
HETATM    4  N1  UNL     1     -10.736  16.654  26.892  1.00  0.00    -0.403 N 
ATOM      5  H1  UNL     1     -11.586  16.779  26.344  1.00  0.00     0.154 HD
BRANCH   4   6
HETATM    6  C3  UNL     1     -10.605  15.619  27.873  1.00  0.00     0.175 C 
BRANCH   6   7
HETATM    7  C4  UNL     1     -11.551  14.466  27.599  1.00  0.00     0.093 C 
BRANCH   7   8
HETATM    8  C5  UNL     1     -12.626  14.403  28.630  1.00  0.00     0.028 A 
HETATM    9  C6  UNL     1     -12.720  13.454  29.621  1.00  0.00     0.114 A 
HETATM   10  N2  UNL     1     -13.829  13.739  30.349  1.00  0.00    -0.360 N 
HETATM   11  C7  UNL     1     -14.418  14.828  29.843  1.00  0.00     0.180 A 
ATOM     12  H2  UNL     1     -14.160  13.207  31.154  1.00  0.00     0.166 HD
HETATM   13  N3  UNL     1     -13.675  15.224  28.795  1.00  0.00    -0.354 N 
ATOM     14  H3  UNL     1     -13.880  16.033  28.208  1.00  0.00     0.166 HD
ENDBRANCH   7   8
ENDBRANCH   6   7
BRANCH   6  15
HETATM   15  C8  UNL     1     -10.766  16.177  29.251  1.00  0.00     0.242 C 
HETATM   16  O1  UNL     1     -11.623  17.133  29.395  1.00  0.00    -0.271 OA
HETATM   17  N4  UNL     1     -10.103  15.799  30.414  1.00  0.00    -0.350 N 
HETATM   18  C9  UNL     1      -9.091  14.778  30.437  1.00  0.00     0.153 C 
BRANCH  17  19
HETATM   19  C10 UNL     1     -10.397  16.432  31.702  1.00  0.00     0.086 C 
HETATM   20  C11 UNL     1     -11.013  15.377  32.590  1.00  0.00     0.025 C 
HETATM   21  C12 UNL     1     -11.376  15.871  33.952  1.00  0.00     0.002 C 
HETATM   22  C13 UNL     1     -10.220  16.652  34.521  1.00  0.00     0.000 C 
HETATM   23  C14 UNL     1      -8.991  16.407  33.702  1.00  0.00     0.002 C 
HETATM   24  C15 UNL     1      -9.194  17.045  32.338  1.00  0.00     0.025 C 
ENDBRANCH  17  19
ENDBRANCH   6  15
ENDBRANCH   4   6
ENDBRANCH   2   4
ENDBRANCH   1   2
BRANCH   1  25
HETATM   25  N5  UNL     1      -8.426  17.223  24.596  1.00  0.00    -0.352 N 
HETATM   26  C17 UNL     1      -8.473  16.367  23.463  1.00  0.00     0.255 C 
HETATM   27  O2  UNL     1      -8.582  15.132  23.697  1.00  0.00    -0.271 OA
ATOM     28  H5  UNL     1      -8.336  18.225  24.430  1.00  0.00     0.163 HD
BRANCH  26  29
HETATM   29  C18 UNL     1      -8.399  16.877  22.092  1.00  0.00     0.210 C 
HETATM   30  C19 UNL     1      -7.575  18.144  21.988  1.00  0.00     0.032 C 
HETATM   31  C20 UNL     1      -7.875  18.764  20.657  1.00  0.00     0.012 C 
HETATM   32  C24 UNL     1      -6.106  17.909  22.116  1.00  0.00     0.012 C 
HETATM   33  C21 UNL     1      -7.429  17.812  19.571  1.00  0.00    -0.013 C 
HETATM   34  C22 UNL     1      -5.926  17.607  19.677  1.00  0.00     0.009 C 
HETATM   35  C27 UNL     1      -8.162  16.499  19.690  1.00  0.00     0.012 C 
HETATM   36  C23 UNL     1      -5.637  16.983  21.008  1.00  0.00    -0.013 C 
HETATM   37  C25 UNL     1      -6.396  15.691  21.147  1.00  0.00     0.012 C 
HETATM   38  C26 UNL     1      -7.893  15.908  21.077  1.00  0.00     0.032 C 
BRANCH  29  39
HETATM   39  N6  UNL     1      -9.757  17.276  21.686  1.00  0.00    -0.061 N 
ATOM     40  H63 UNL     1     -10.196  16.603  21.057  1.00  0.00     0.275 HD
ATOM     41  H62 UNL     1     -10.432  17.211  22.448  1.00  0.00     0.275 HD
ATOM     42  H61 UNL     1      -9.700  18.213  21.286  1.00  0.00     0.275 HD
ENDBRANCH  29  39
ENDBRANCH  26  29
ENDBRANCH   1  25
BRANCH   1  43
HETATM   43  C28 UNL     1      -7.191  16.677  26.633  1.00  0.00     0.010 C 
HETATM   44  C29 UNL     1      -7.215  17.094  28.090  1.00  0.00     0.007 C 
HETATM   45  C30 UNL     1      -5.881  16.614  28.689  1.00  0.00     0.000 C 
HETATM   46  C31 UNL     1      -4.803  17.438  28.022  1.00  0.00     0.000 C 
HETATM   47  C32 UNL     1      -4.720  16.953  26.571  1.00  0.00     0.000 C 
HETATM   48  C33 UNL     1      -6.051  17.268  25.885  1.00  0.00     0.007 C 
ENDBRANCH   1  43
TORSDOF 11
ENDMDL
MODEL 3
REMARK VINA RESULT: -8.783862980      3.360     10.095
REMARK  11 active torsions:
REMARK  status: ('A' for Active; 'I' for Inactive)
REMARK    1  A    between atoms: C2_2  and  N1_3 
REMARK    2  A    between atoms: C2_2  and  C16_24 
REMARK    3  A    between atoms: N1_3  and  C3_5 
REMARK    4  A    between atoms: C3_5  and  C4_6 
REMARK    5  A    between atoms: C3_5  and  C8_14 
REMARK    6  A    between atoms: C4_6  and  C5_7 
REMARK       I    between atoms: C8_14  and  N4_16 
REMARK    7  A    between atoms: N4_16  and  C10_18 
REMARK    8  A    between atoms: C16_24  and  N5_25 
REMARK    9  A    between atoms: C16_24  and  C28_43 
REMARK       I    between atoms: N5_25  and  C17_27 
REMARK   10  A    between atoms: C17_27  and  C18_29 
REMARK   11  A    between atoms: C18_29  and  N6_30 
ROOT
HETATM    1  C16 UNL     1      -6.801  17.728  26.039  1.00  0.00     0.110 C 
ENDROOT
BRANCH   1   2
HETATM    2  C2  UNL     1      -7.600  18.371  27.170  1.00  0.00     0.096 C 
HETATM    3  C1  UNL     1      -7.301  19.819  27.369  1.00  0.00     0.034 C 
BRANCH   2   4
HETATM    4  N1  UNL     1      -9.002  18.174  26.967  1.00  0.00    -0.403 N 
ATOM      5  H1  UNL     1      -9.577  18.847  26.460  1.00  0.00     0.154 HD
BRANCH   4   6
HETATM    6  C3  UNL     1      -9.544  16.971  27.522  1.00  0.00     0.175 C 
BRANCH   6   7
HETATM    7  C4  UNL     1     -10.661  16.411  26.660  1.00  0.00     0.093 C 
BRANCH   7   8
HETATM    8  C5  UNL     1     -11.403  15.339  27.383  1.00  0.00     0.028 A 
HETATM    9  C6  UNL     1     -11.060  14.007  27.396  1.00  0.00     0.114 A 
HETATM   10  N2  UNL     1     -11.978  13.361  28.159  1.00  0.00    -0.360 N 
HETATM   11  C7  UNL     1     -12.871  14.247  28.615  1.00  0.00     0.180 A 
ATOM     12  H2  UNL     1     -11.986  12.361  28.353  1.00  0.00     0.166 HD
HETATM   13  N3  UNL     1     -12.510  15.450  28.134  1.00  0.00    -0.354 N 
ATOM     14  H3  UNL     1     -13.006  16.323  28.315  1.00  0.00     0.166 HD
ENDBRANCH   7   8
ENDBRANCH   6   7
BRANCH   6  15
HETATM   15  C8  UNL     1      -9.970  17.190  28.938  1.00  0.00     0.242 C 
HETATM   16  O1  UNL     1     -10.800  18.157  29.154  1.00  0.00    -0.271 OA
HETATM   17  N4  UNL     1      -9.581  16.482  30.071  1.00  0.00    -0.350 N 
HETATM   18  C9  UNL     1      -8.638  15.398  30.027  1.00  0.00     0.153 C 
BRANCH  17  19
HETATM   19  C10 UNL     1     -10.114  16.807  31.396  1.00  0.00     0.086 C 
HETATM   20  C11 UNL     1     -11.073  15.705  31.778  1.00  0.00     0.025 C 
HETATM   21  C12 UNL     1     -11.709  15.893  33.116  1.00  0.00     0.002 C 
HETATM   22  C13 UNL     1     -10.649  16.255  34.124  1.00  0.00     0.000 C 
HETATM   23  C14 UNL     1      -9.292  15.989  33.548  1.00  0.00     0.002 C 
HETATM   24  C15 UNL     1      -9.048  16.984  32.425  1.00  0.00     0.025 C 
ENDBRANCH  17  19
ENDBRANCH   6  15
ENDBRANCH   4   6
ENDBRANCH   2   4
ENDBRANCH   1   2
BRANCH   1  25
HETATM   25  N5  UNL     1      -7.560  17.669  24.822  1.00  0.00    -0.352 N 
HETATM   26  C17 UNL     1      -7.811  16.481  24.085  1.00  0.00     0.255 C 
HETATM   27  O2  UNL     1      -7.320  15.417  24.551  1.00  0.00    -0.271 OA
ATOM     28  H5  UNL     1      -7.947  18.542  24.462  1.00  0.00     0.163 HD
BRANCH  26  29
HETATM   29  C18 UNL     1      -8.595  16.477  22.848  1.00  0.00     0.210 C 
HETATM   30  C19 UNL     1      -8.557  17.813  22.133  1.00  0.00     0.032 C 
HETATM   31  C20 UNL     1      -9.663  17.809  21.121  1.00  0.00     0.012 C 
HETATM   32  C24 UNL     1      -7.256  18.088  21.457  1.00  0.00     0.012 C 
HETATM   33  C21 UNL     1      -9.388  16.717  20.112  1.00  0.00    -0.013 C 
HETATM   34  C22 UNL     1      -8.082  17.022  19.395  1.00  0.00     0.009 C 
HETATM   35  C27 UNL     1      -9.328  15.374  20.795  1.00  0.00     0.012 C 
HETATM   36  C23 UNL     1      -6.983  17.018  20.414  1.00  0.00    -0.013 C 
HETATM   37  C25 UNL     1      -6.944  15.693  21.125  1.00  0.00     0.012 C 
HETATM   38  C26 UNL     1      -8.234  15.414  21.866  1.00  0.00     0.032 C 
BRANCH  29  39
HETATM   39  N6  UNL     1     -10.009  16.284  23.211  1.00  0.00    -0.061 N 
ATOM     40  H63 UNL     1     -10.550  17.148  23.168  1.00  0.00     0.275 HD
ATOM     41  H62 UNL     1     -10.530  15.762  22.507  1.00  0.00     0.275 HD
ATOM     42  H61 UNL     1     -10.038  15.846  24.132  1.00  0.00     0.275 HD
ENDBRANCH  29  39
ENDBRANCH  26  29
ENDBRANCH   1  25
BRANCH   1  43
HETATM   43  C28 UNL     1      -5.421  18.210  25.871  1.00  0.00     0.010 C 
HETATM   44  C29 UNL     1      -5.209  19.064  24.636  1.00  0.00     0.007 C 
HETATM   45  C30 UNL     1      -3.832  19.728  24.813  1.00  0.00     0.000 C 
HETATM   46  C31 UNL     1      -2.816  18.611  24.744  1.00  0.00     0.000 C 
HETATM   47  C32 UNL     1      -2.972  17.800  26.035  1.00  0.00     0.000 C 
HETATM   48  C33 UNL     1      -4.369  17.174  26.040  1.00  0.00     0.007 C 
ENDBRANCH   1  43
TORSDOF 11
ENDMDL
MODEL 4
REMARK VINA RESULT: -8.682867968      3.262      9.112
REMARK  11 active torsions:
REMARK  status: ('A' for Active; 'I' for Inactive)
REMARK    1  A    between atoms: C2_2  and  N1_3 
REMARK    2  A    between atoms: C2_2  and  C16_24 
REMARK    3  A    between atoms: N1_3  and  C3_5 
REMARK    4  A    between atoms: C3_5  and  C4_6 
REMARK    5  A    between atoms: C3_5  and  C8_14 
REMARK    6  A    between atoms: C4_6  and  C5_7 
REMARK       I    between atoms: C8_14  and  N4_16 
REMARK    7  A    between atoms: N4_16  and  C10_18 
REMARK    8  A    between atoms: C16_24  and  N5_25 
REMARK    9  A    between atoms: C16_24  and  C28_43 
REMARK       I    between atoms: N5_25  and  C17_27 
REMARK   10  A    between atoms: C17_27  and  C18_29 
REMARK   11  A    between atoms: C18_29  and  N6_30 
ROOT
HETATM    1  C16 UNL     1     -10.074  15.300  26.931  1.00  0.00     0.110 C 
ENDROOT
BRANCH   1   2
HETATM    2  C2  UNL     1      -8.897  14.490  27.473  1.00  0.00     0.096 C 
HETATM    3  C1  UNL     1      -7.678  14.553  26.615  1.00  0.00     0.034 C 
BRANCH   2   4
HETATM    4  N1  UNL     1      -8.588  14.891  28.810  1.00  0.00    -0.403 N 
ATOM      5  H1  UNL     1      -8.470  14.216  29.566  1.00  0.00     0.154 HD
BRANCH   4   6
HETATM    6  C3  UNL     1      -8.455  16.301  29.018  1.00  0.00     0.175 C 
BRANCH   6   7
HETATM    7  C4  UNL     1      -7.003  16.738  28.977  1.00  0.00     0.093 C 
BRANCH   7   8
HETATM    8  C5  UNL     1      -6.818  17.879  28.036  1.00  0.00     0.028 A 
HETATM    9  C6  UNL     1      -5.834  17.965  27.079  1.00  0.00     0.114 A 
HETATM   10  N2  UNL     1      -6.001  19.147  26.433  1.00  0.00    -0.360 N 
HETATM   11  C7  UNL     1      -7.051  19.789  26.958  1.00  0.00     0.180 A 
ATOM     12  H2  UNL     1      -5.419  19.491  25.670  1.00  0.00     0.166 HD
HETATM   13  N3  UNL     1      -7.541  19.005  27.935  1.00  0.00    -0.354 N 
ATOM     14  H3  UNL     1      -8.347  19.235  28.517  1.00  0.00     0.166 HD
ENDBRANCH   7   8
ENDBRANCH   6   7
BRANCH   6  15
HETATM   15  C8  UNL     1      -9.142  16.714  30.281  1.00  0.00     0.242 C 
HETATM   16  O1  UNL     1      -9.573  17.931  30.338  1.00  0.00    -0.271 OA
HETATM   17  N4  UNL     1      -9.378  15.949  31.419  1.00  0.00    -0.350 N 
HETATM   18  C9  UNL     1      -8.939  14.587  31.549  1.00  0.00     0.153 C 
BRANCH  17  19
HETATM   19  C10 UNL     1     -10.095  16.498  32.573  1.00  0.00     0.086 C 
HETATM   20  C11 UNL     1     -10.904  15.375  33.175  1.00  0.00     0.025 C 
HETATM   21  C12 UNL     1     -11.702  15.779  34.372  1.00  0.00     0.002 C 
HETATM   22  C13 UNL     1     -10.826  16.568  35.310  1.00  0.00     0.000 C 
HETATM   23  C14 UNL     1      -9.390  16.413  34.913  1.00  0.00     0.002 C 
HETATM   24  C15 UNL     1      -9.187  17.118  33.582  1.00  0.00     0.025 C 
ENDBRANCH  17  19
ENDBRANCH   6  15
ENDBRANCH   4   6
ENDBRANCH   2   4
ENDBRANCH   1   2
BRANCH   1  25
HETATM   25  N5  UNL     1     -10.030  15.401  25.500  1.00  0.00    -0.352 N 
HETATM   26  C17 UNL     1      -9.572  16.542  24.786  1.00  0.00     0.255 C 
HETATM   27  O2  UNL     1      -9.184  17.520  25.481  1.00  0.00    -0.271 OA
ATOM     28  H5  UNL     1     -10.351  14.599  24.958  1.00  0.00     0.163 HD
BRANCH  26  29
HETATM   29  C18 UNL     1      -9.548  16.592  23.323  1.00  0.00     0.210 C 
HETATM   30  C19 UNL     1      -8.627  17.673  22.794  1.00  0.00     0.032 C 
HETATM   31  C20 UNL     1      -8.963  17.877  21.348  1.00  0.00     0.012 C 
HETATM   32  C24 UNL     1      -7.179  17.339  22.934  1.00  0.00     0.012 C 
HETATM   33  C21 UNL     1      -8.676  16.595  20.601  1.00  0.00    -0.013 C 
HETATM   34  C22 UNL     1      -7.192  16.279  20.709  1.00  0.00     0.009 C 
HETATM   35  C27 UNL     1      -9.509  15.466  21.155  1.00  0.00     0.012 C 
HETATM   36  C23 UNL     1      -6.868  16.071  22.157  1.00  0.00    -0.013 C 
HETATM   37  C25 UNL     1      -7.724  14.972  22.724  1.00  0.00     0.012 C 
HETATM   38  C26 UNL     1      -9.198  15.309  22.646  1.00  0.00     0.032 C 
BRANCH  29  39
HETATM   39  N6  UNL     1     -10.891  16.983  22.863  1.00  0.00    -0.061 N 
ATOM     40  H63 UNL     1     -10.961  17.041  21.847  1.00  0.00     0.275 HD
ATOM     41  H62 UNL     1     -11.587  16.250  23.005  1.00  0.00     0.275 HD
ATOM     42  H61 UNL     1     -11.137  17.858  23.327  1.00  0.00     0.275 HD
ENDBRANCH  29  39
ENDBRANCH  26  29
ENDBRANCH   1  25
BRANCH   1  43
HETATM   43  C28 UNL     1     -11.397  14.956  27.476  1.00  0.00     0.010 C 
HETATM   44  C29 UNL     1     -12.073  16.090  28.222  1.00  0.00     0.007 C 
HETATM   45  C30 UNL     1     -13.536  15.656  28.416  1.00  0.00     0.000 C 
HETATM   46  C31 UNL     1     -13.501  14.477  29.362  1.00  0.00     0.000 C 
HETATM   47  C32 UNL     1     -12.898  13.307  28.578  1.00  0.00     0.000 C 
HETATM   48  C33 UNL     1     -11.456  13.668  28.214  1.00  0.00     0.007 C 
ENDBRANCH   1  43
TORSDOF 11
ENDMDL
MODEL 5
REMARK VINA RESULT: -8.668494771      3.933     11.586
REMARK  11 active torsions:
REMARK  status: ('A' for Active; 'I' for Inactive)
REMARK    1  A    between atoms: C2_2  and  N1_3 
REMARK    2  A    between atoms: C2_2  and  C16_24 
REMARK    3  A    between atoms: N1_3  and  C3_5 
REMARK    4  A    between atoms: C3_5  and  C4_6 
REMARK    5  A    between atoms: C3_5  and  C8_14 
REMARK    6  A    between atoms: C4_6  and  C5_7 
REMARK       I    between atoms: C8_14  and  N4_16 
REMARK    7  A    between atoms: N4_16  and  C10_18 
REMARK    8  A    between atoms: C16_24  and  N5_25 
REMARK    9  A    between atoms: C16_24  and  C28_43 
REMARK       I    between atoms: N5_25  and  C17_27 
REMARK   10  A    between atoms: C17_27  and  C18_29 
REMARK   11  A    between atoms: C18_29  and  N6_30 
ROOT
HETATM    1  C16 UNL     1      -6.497  17.243  25.307  1.00  0.00     0.110 C 
ENDROOT
BRANCH   1   2
HETATM    2  C2  UNL     1      -6.795  16.728  26.714  1.00  0.00     0.096 C 
HETATM    3  C1  UNL     1      -5.668  16.916  27.673  1.00  0.00     0.034 C 
BRANCH   2   4
HETATM    4  N1  UNL     1      -7.989  17.326  27.223  1.00  0.00    -0.403 N 
ATOM      5  H1  UNL     1      -8.125  18.337  27.242  1.00  0.00     0.154 HD
BRANCH   4   6
HETATM    6  C3  UNL     1      -8.981  16.413  27.706  1.00  0.00     0.175 C 
BRANCH   6   7
HETATM    7  C4  UNL     1     -10.124  16.256  26.721  1.00  0.00     0.093 C 
BRANCH   7   8
HETATM    8  C5  UNL     1     -11.320  15.663  27.384  1.00  0.00     0.028 A 
HETATM    9  C6  UNL     1     -11.507  14.324  27.632  1.00  0.00     0.114 A 
HETATM   10  N2  UNL     1     -12.710  14.190  28.245  1.00  0.00    -0.360 N 
HETATM   11  C7  UNL     1     -13.269  15.398  28.383  1.00  0.00     0.180 A 
ATOM     12  H2  UNL     1     -13.123  13.309  28.551  1.00  0.00     0.166 HD
HETATM   13  N3  UNL     1     -12.411  16.289  27.855  1.00  0.00    -0.354 N 
ATOM     14  H3  UNL     1     -12.567  17.296  27.816  1.00  0.00     0.166 HD
ENDBRANCH   7   8
ENDBRANCH   6   7
BRANCH   6  15
HETATM   15  C8  UNL     1      -9.449  16.817  29.067  1.00  0.00     0.242 C 
HETATM   16  O1  UNL     1      -9.950  18.003  29.182  1.00  0.00    -0.271 OA
HETATM   17  N4  UNL     1      -9.413  16.075  30.243  1.00  0.00    -0.350 N 
HETATM   18  C9  UNL     1      -8.859  14.751  30.313  1.00  0.00     0.153 C 
BRANCH  17  19
HETATM   19  C10 UNL     1      -9.942  16.609  31.501  1.00  0.00     0.086 C 
HETATM   20  C11 UNL     1     -10.804  15.535  32.118  1.00  0.00     0.025 C 
HETATM   21  C12 UNL     1     -11.425  15.930  33.418  1.00  0.00     0.002 C 
HETATM   22  C13 UNL     1     -10.374  16.553  34.301  1.00  0.00     0.000 C 
HETATM   23  C14 UNL     1      -9.013  16.279  33.739  1.00  0.00     0.002 C 
HETATM   24  C15 UNL     1      -8.871  17.055  32.440  1.00  0.00     0.025 C 
ENDBRANCH  17  19
ENDBRANCH   6  15
ENDBRANCH   4   6
ENDBRANCH   2   4
ENDBRANCH   1   2
BRANCH   1  25
HETATM   25  N5  UNL     1      -5.164  16.911  24.893  1.00  0.00    -0.352 N 
HETATM   26  C17 UNL     1      -4.150  17.863  24.602  1.00  0.00     0.255 C 
HETATM   27  O2  UNL     1      -4.470  19.078  24.720  1.00  0.00    -0.271 OA
ATOM     28  H5  UNL     1      -4.927  15.923  24.803  1.00  0.00     0.163 HD
BRANCH  26  29
HETATM   29  C18 UNL     1      -2.802  17.470  24.185  1.00  0.00     0.210 C 
HETATM   30  C19 UNL     1      -2.712  17.198  22.697  1.00  0.00     0.032 C 
HETATM   31  C20 UNL     1      -1.430  16.460  22.455  1.00  0.00     0.012 C 
HETATM   32  C24 UNL     1      -2.745  18.436  21.865  1.00  0.00     0.012 C 
HETATM   33  C21 UNL     1      -0.277  17.354  22.851  1.00  0.00    -0.013 C 
HETATM   34  C22 UNL     1      -0.288  18.596  21.973  1.00  0.00     0.009 C 
HETATM   35  C27 UNL     1      -0.376  17.724  24.310  1.00  0.00     0.012 C 
HETATM   36  C23 UNL     1      -1.570  19.329  22.226  1.00  0.00    -0.013 C 
HETATM   37  C25 UNL     1      -1.692  19.666  23.687  1.00  0.00     0.012 C 
HETATM   38  C26 UNL     1      -1.716  18.424  24.551  1.00  0.00     0.032 C 
BRANCH  29  39
HETATM   39  N6  UNL     1      -2.493  16.179  24.823  1.00  0.00    -0.061 N 
ATOM     40  H63 UNL     1      -1.716  16.239  25.481  1.00  0.00     0.275 HD
ATOM     41  H62 UNL     1      -3.209  15.883  25.485  1.00  0.00     0.275 HD
ATOM     42  H61 UNL     1      -2.331  15.496  24.083  1.00  0.00     0.275 HD
ENDBRANCH  29  39
ENDBRANCH  26  29
ENDBRANCH   1  25
BRANCH   1  43
HETATM   43  C28 UNL     1      -7.531  16.978  24.293  1.00  0.00     0.010 C 
HETATM   44  C29 UNL     1      -7.765  15.506  24.016  1.00  0.00     0.007 C 
HETATM   45  C30 UNL     1      -9.072  15.430  23.207  1.00  0.00     0.000 C 
HETATM   46  C31 UNL     1      -8.776  16.078  21.873  1.00  0.00     0.000 C 
HETATM   47  C32 UNL     1      -8.627  17.580  22.142  1.00  0.00     0.000 C 
HETATM   48  C33 UNL     1      -7.412  17.784  23.050  1.00  0.00     0.007 C 
ENDBRANCH   1  43
TORSDOF 11
ENDMDL
