MODEL 1
REMARK VINA RESULT: -9.636790102      0.000      0.000
REMARK  11 active torsions:
REMARK  status: ('A' for Active; 'I' for Inactive)
REMARK    1  A    between atoms: C2_2  and  C3_3 
REMARK    2  A    between atoms: C3_3  and  C4_4 
REMARK    3  A    between atoms: C4_4  and  N1_5 
REMARK    4  A    between atoms: N1_5  and  C5_6 
REMARK    5  A    between atoms: N1_5  and  C7_8 
REMARK    6  A    between atoms: C16_17  and  O1_18 
REMARK    7  A    between atoms: O1_18  and  C17_19 
REMARK       I    between atoms: C17_19  and  N2_21 
REMARK    8  A    between atoms: N2_21  and  C18_23 
REMARK    9  A    between atoms: C18_23  and  C19_24 
REMARK   10  A    between atoms: C20_27  and  O4_28 
REMARK   11  A    between atoms: C31_39  and  O5_40 
ROOT
HETATM    1  C7  UNL     1     -10.770  14.610  31.688  1.00  0.00     0.092 C 
HETATM    2  C8  UNL     1     -10.698  15.349  30.404  1.00  0.00     0.014 C 
HETATM    3  C9  UNL     1      -9.659  16.373  30.212  1.00  0.00     0.007 C 
HETATM    4  C10 UNL     1      -9.685  16.913  28.827  1.00  0.00     0.006 C 
HETATM    5  C11 UNL     1     -10.232  16.062  27.733  1.00  0.00     0.003 C 
HETATM    6  C12 UNL     1      -9.600  16.565  26.429  1.00  0.00    -0.034 C 
HETATM    7  C13 UNL     1      -9.472  18.104  26.527  1.00  0.00     0.016 C 
HETATM    8  C14 UNL     1     -10.445  16.339  25.236  1.00  0.00     0.012 C 
HETATM    9  C15 UNL     1      -9.835  15.728  24.047  1.00  0.00     0.036 C 
HETATM   10  C16 UNL     1      -8.371  15.814  23.857  1.00  0.00     0.163 C 
HETATM   11  C20 UNL     1      -7.626  16.457  24.991  1.00  0.00     0.155 C 
HETATM   12  C22 UNL     1      -8.184  16.100  26.332  1.00  0.00     0.026 C 
HETATM   13  C23 UNL     1      -7.944  14.674  26.733  1.00  0.00     0.009 C 
HETATM   14  C24 UNL     1      -8.602  14.291  28.005  1.00  0.00     0.010 C 
HETATM   15  C25 UNL     1     -10.101  14.640  28.021  1.00  0.00    -0.035 C 
HETATM   16  C26 UNL     1     -10.618  13.626  27.046  1.00  0.00     0.016 C 
HETATM   17  C27 UNL     1     -10.775  14.321  29.299  1.00  0.00     0.005 C 
HETATM   18  C28 UNL     1     -12.166  13.831  29.277  1.00  0.00     0.002 C 
HETATM   19  C29 UNL     1     -13.285  14.686  28.907  1.00  0.00     0.008 C 
HETATM   20  C30 UNL     1     -14.504  13.944  29.469  1.00  0.00     0.033 C 
HETATM   21  C31 UNL     1     -13.967  12.907  30.399  1.00  0.00     0.127 C 
HETATM   22  C32 UNL     1     -12.512  13.247  30.647  1.00  0.00    -0.009 C 
HETATM   23  C33 UNL     1     -11.855  11.889  30.850  1.00  0.00     0.018 C 
HETATM   24  C34 UNL     1     -12.216  14.102  31.803  1.00  0.00     0.016 C 
HETATM   25  C35 UNL     1     -13.184  15.145  32.194  1.00  0.00     0.013 C 
ENDROOT
BRANCH  10  26
HETATM   26  O1  UNL     1      -8.046  16.549  22.694  1.00  0.00    -0.296 OA
BRANCH  26  27
HETATM   27  C17 UNL     1      -7.390  15.963  21.624  1.00  0.00     0.361 C 
HETATM   28  O2  UNL     1      -8.063  15.137  20.936  1.00  0.00    -0.238 OA
HETATM   29  N2  UNL     1      -6.050  16.263  21.312  1.00  0.00    -0.329 N 
ATOM     30  H2  UNL     1      -5.553  16.933  21.899  1.00  0.00     0.165 HD
BRANCH  29  31
HETATM   31  C18 UNL     1      -5.348  15.670  20.203  1.00  0.00     0.224 C 
BRANCH  31  32
HETATM   32  C19 UNL     1      -3.897  15.905  20.193  1.00  0.00     0.248 C 
HETATM   33  N3  UNL     1      -2.926  14.927  20.525  1.00  0.00    -0.061 NA
HETATM   34  O3  UNL     1      -3.435  17.046  19.870  1.00  0.00    -0.275 OA
ENDBRANCH  31  32
ENDBRANCH  29  31
ENDBRANCH  26  27
ENDBRANCH  10  26
BRANCH  11  35
HETATM   35  O4  UNL     1      -6.271  16.197  24.948  1.00  0.00    -0.388 OA
HETATM   36  C21 UNL     1      -5.509  17.376  25.063  1.00  0.00     0.202 C 
ENDBRANCH  11  35
BRANCH   1  37
HETATM   37  N1  UNL     1     -10.196  15.112  32.845  1.00  0.00    -0.388 N 
BRANCH  37  38
HETATM   38  C4  UNL     1     -10.909  15.333  34.031  1.00  0.00     0.058 C 
BRANCH  38  39
HETATM   39  C3  UNL     1      -9.972  15.446  35.227  1.00  0.00     0.044 C 
BRANCH  39  40
HETATM   40  C2  UNL     1     -10.596  14.682  36.409  1.00  0.00     0.001 C 
HETATM   41  C1  UNL     1     -11.471  13.557  35.976  1.00  0.00     0.005 C 
ENDBRANCH  39  40
ENDBRANCH  38  39
ENDBRANCH  37  38
BRANCH  37  42
HETATM   42  C5  UNL     1      -8.823  14.897  33.113  1.00  0.00     0.118 C 
HETATM   43  C6  UNL     1      -8.090  13.883  32.316  1.00  0.00     0.026 C 
ENDBRANCH  37  42
ENDBRANCH   1  37
BRANCH  21  44
HETATM   44  O5  UNL     1     -14.703  12.609  31.503  1.00  0.00    -0.395 OA
ATOM     45  H5  UNL     1     -15.110  11.752  31.543  1.00  0.00     0.210 HD
ENDBRANCH  21  44
TORSDOF 11
ENDMDL
MODEL 2
REMARK VINA RESULT: -9.303371358      1.551      2.072
REMARK  11 active torsions:
REMARK  status: ('A' for Active; 'I' for Inactive)
REMARK    1  A    between atoms: C2_2  and  C3_3 
REMARK    2  A    between atoms: C3_3  and  C4_4 
REMARK    3  A    between atoms: C4_4  and  N1_5 
REMARK    4  A    between atoms: N1_5  and  C5_6 
REMARK    5  A    between atoms: N1_5  and  C7_8 
REMARK    6  A    between atoms: C16_17  and  O1_18 
REMARK    7  A    between atoms: O1_18  and  C17_19 
REMARK       I    between atoms: C17_19  and  N2_21 
REMARK    8  A    between atoms: N2_21  and  C18_23 
REMARK    9  A    between atoms: C18_23  and  C19_24 
REMARK   10  A    between atoms: C20_27  and  O4_28 
REMARK   11  A    between atoms: C31_39  and  O5_40 
ROOT
HETATM    1  C7  UNL     1     -10.807  14.437  32.029  1.00  0.00     0.092 C 
HETATM    2  C8  UNL     1     -10.527  15.272  30.836  1.00  0.00     0.014 C 
HETATM    3  C9  UNL     1      -9.406  16.223  30.861  1.00  0.00     0.007 C 
HETATM    4  C10 UNL     1      -9.224  16.877  29.538  1.00  0.00     0.006 C 
HETATM    5  C11 UNL     1      -9.689  16.165  28.314  1.00  0.00     0.003 C 
HETATM    6  C12 UNL     1      -8.868  16.725  27.144  1.00  0.00    -0.034 C 
HETATM    7  C13 UNL     1      -8.650  18.235  27.397  1.00  0.00     0.016 C 
HETATM    8  C14 UNL     1      -9.574  16.666  25.845  1.00  0.00     0.012 C 
HETATM    9  C15 UNL     1      -8.864  16.110  24.684  1.00  0.00     0.036 C 
HETATM   10  C16 UNL     1      -7.386  16.096  24.675  1.00  0.00     0.163 C 
HETATM   11  C20 UNL     1      -6.744  16.582  25.942  1.00  0.00     0.155 C 
HETATM   12  C22 UNL     1      -7.486  16.159  27.171  1.00  0.00     0.026 C 
HETATM   13  C23 UNL     1      -7.395  14.691  27.465  1.00  0.00     0.009 C 
HETATM   14  C24 UNL     1      -8.230  14.256  28.610  1.00  0.00     0.010 C 
HETATM   15  C25 UNL     1      -9.692  14.719  28.483  1.00  0.00    -0.035 C 
HETATM   16  C26 UNL     1     -10.152  13.833  27.365  1.00  0.00     0.016 C 
HETATM   17  C27 UNL     1     -10.538  14.349  29.638  1.00  0.00     0.005 C 
HETATM   18  C28 UNL     1     -11.945  13.973  29.409  1.00  0.00     0.002 C 
HETATM   19  C29 UNL     1     -12.950  14.941  28.992  1.00  0.00     0.008 C 
HETATM   20  C30 UNL     1     -14.276  14.253  29.337  1.00  0.00     0.033 C 
HETATM   21  C31 UNL     1     -13.930  13.103  30.224  1.00  0.00     0.127 C 
HETATM   22  C32 UNL     1     -12.496  13.306  30.670  1.00  0.00    -0.009 C 
HETATM   23  C33 UNL     1     -11.964  11.889  30.822  1.00  0.00     0.018 C 
HETATM   24  C34 UNL     1     -12.287  14.037  31.926  1.00  0.00     0.016 C 
HETATM   25  C35 UNL     1     -13.224  15.116  32.297  1.00  0.00     0.013 C 
ENDROOT
BRANCH  10  26
HETATM   26  O1  UNL     1      -6.871  16.897  23.630  1.00  0.00    -0.296 OA
BRANCH  26  27
HETATM   27  C17 UNL     1      -7.350  16.798  22.335  1.00  0.00     0.361 C 
HETATM   28  O2  UNL     1      -7.569  17.891  21.731  1.00  0.00    -0.238 OA
HETATM   29  N2  UNL     1      -7.585  15.554  21.717  1.00  0.00    -0.329 N 
ATOM     30  H2  UNL     1      -7.396  14.704  22.249  1.00  0.00     0.165 HD
BRANCH  29  31
HETATM   31  C18 UNL     1      -8.080  15.426  20.371  1.00  0.00     0.224 C 
BRANCH  31  32
HETATM   32  C19 UNL     1      -9.543  15.339  20.255  1.00  0.00     0.248 C 
HETATM   33  N3  UNL     1     -10.448  15.664  21.297  1.00  0.00    -0.061 NA
HETATM   34  O3  UNL     1     -10.079  14.952  19.168  1.00  0.00    -0.275 OA
ENDBRANCH  31  32
ENDBRANCH  29  31
ENDBRANCH  26  27
ENDBRANCH  10  26
BRANCH  11  35
HETATM   35  O4  UNL     1      -5.415  16.220  26.034  1.00  0.00    -0.388 OA
HETATM   36  C21 UNL     1      -4.581  17.340  26.219  1.00  0.00     0.202 C 
ENDBRANCH  11  35
BRANCH   1  37
HETATM   37  N1  UNL     1     -10.347  14.794  33.285  1.00  0.00    -0.388 N 
BRANCH  37  38
HETATM   38  C4  UNL     1     -11.189  15.177  34.338  1.00  0.00     0.058 C 
BRANCH  38  39
HETATM   39  C3  UNL     1     -10.497  15.017  35.686  1.00  0.00     0.044 C 
BRANCH  39  40
HETATM   40  C2  UNL     1     -11.432  14.234  36.626  1.00  0.00     0.001 C 
HETATM   41  C1  UNL     1     -11.633  12.821  36.198  1.00  0.00     0.005 C 
ENDBRANCH  39  40
ENDBRANCH  38  39
ENDBRANCH  37  38
BRANCH  37  42
HETATM   42  C5  UNL     1      -9.130  14.267  33.778  1.00  0.00     0.118 C 
HETATM   43  C6  UNL     1      -8.038  13.974  32.818  1.00  0.00     0.026 C 
ENDBRANCH  37  42
ENDBRANCH   1  37
BRANCH  21  44
HETATM   44  O5  UNL     1     -14.815  12.773  31.203  1.00  0.00    -0.395 OA
ATOM     45  H5  UNL     1     -14.923  11.852  31.405  1.00  0.00     0.210 HD
ENDBRANCH  21  44
TORSDOF 11
ENDMDL
MODEL 3
REMARK VINA RESULT: -9.226953908      2.424     10.780
REMARK  11 active torsions:
REMARK  status: ('A' for Active; 'I' for Inactive)
REMARK    1  A    between atoms: C2_2  and  C3_3 
REMARK    2  A    between atoms: C3_3  and  C4_4 
REMARK    3  A    between atoms: C4_4  and  N1_5 
REMARK    4  A    between atoms: N1_5  and  C5_6 
REMARK    5  A    between atoms: N1_5  and  C7_8 
REMARK    6  A    between atoms: C16_17  and  O1_18 
REMARK    7  A    between atoms: O1_18  and  C17_19 
REMARK       I    between atoms: C17_19  and  N2_21 
REMARK    8  A    between atoms: N2_21  and  C18_23 
REMARK    9  A    between atoms: C18_23  and  C19_24 
REMARK   10  A    between atoms: C20_27  and  O4_28 
REMARK   11  A    between atoms: C31_39  and  O5_40 
ROOT
HETATM    1  C7  UNL     1      -7.038  16.627  23.565  1.00  0.00     0.092 C 
HETATM    2  C8  UNL     1      -7.728  16.953  24.836  1.00  0.00     0.014 C 
HETATM    3  C9  UNL     1      -9.116  16.513  25.043  1.00  0.00     0.007 C 
HETATM    4  C10 UNL     1      -9.586  16.838  26.416  1.00  0.00     0.006 C 
HETATM    5  C11 UNL     1      -8.579  16.971  27.508  1.00  0.00     0.003 C 
HETATM    6  C12 UNL     1      -9.320  16.693  28.822  1.00  0.00    -0.034 C 
HETATM    7  C13 UNL     1     -10.744  17.287  28.699  1.00  0.00     0.016 C 
HETATM    8  C14 UNL     1      -8.731  17.383  29.991  1.00  0.00     0.012 C 
HETATM    9  C15 UNL     1      -8.473  16.605  31.211  1.00  0.00     0.036 C 
HETATM   10  C16 UNL     1      -9.226  15.354  31.447  1.00  0.00     0.163 C 
HETATM   11  C20 UNL     1     -10.139  14.949  30.326  1.00  0.00     0.155 C 
HETATM   12  C22 UNL     1      -9.562  15.227  28.974  1.00  0.00     0.026 C 
HETATM   13  C23 UNL     1      -8.408  14.341  28.608  1.00  0.00     0.009 C 
HETATM   14  C24 UNL     1      -7.762  14.699  27.323  1.00  0.00     0.010 C 
HETATM   15  C25 UNL     1      -7.379  16.188  27.251  1.00  0.00    -0.035 C 
HETATM   16  C26 UNL     1      -6.242  16.214  28.228  1.00  0.00     0.016 C 
HETATM   17  C27 UNL     1      -6.782  16.589  25.958  1.00  0.00     0.005 C 
HETATM   18  C28 UNL     1      -5.705  17.596  25.944  1.00  0.00     0.002 C 
HETATM   19  C29 UNL     1      -5.946  18.996  26.260  1.00  0.00     0.008 C 
HETATM   20  C30 UNL     1      -4.724  19.712  25.672  1.00  0.00     0.033 C 
HETATM   21  C31 UNL     1      -4.051  18.722  24.781  1.00  0.00     0.127 C 
HETATM   22  C32 UNL     1      -5.025  17.580  24.574  1.00  0.00    -0.009 C 
HETATM   23  C33 UNL     1      -4.124  16.364  24.419  1.00  0.00     0.018 C 
HETATM   24  C34 UNL     1      -5.918  17.669  23.413  1.00  0.00     0.016 C 
HETATM   25  C35 UNL     1      -6.394  18.994  22.970  1.00  0.00     0.013 C 
ENDROOT
BRANCH  10  26
HETATM   26  O1  UNL     1     -10.030  15.450  32.606  1.00  0.00    -0.296 OA
BRANCH  26  27
HETATM   27  C17 UNL     1      -9.880  14.574  33.668  1.00  0.00     0.361 C 
HETATM   28  O2  UNL     1      -8.760  13.986  33.758  1.00  0.00    -0.238 OA
HETATM   29  N2  UNL     1     -10.911  14.344  34.600  1.00  0.00    -0.329 N 
ATOM     30  H2  UNL     1     -11.794  14.841  34.480  1.00  0.00     0.165 HD
BRANCH  29  31
HETATM   31  C18 UNL     1     -10.777  13.441  35.714  1.00  0.00     0.224 C 
BRANCH  31  32
HETATM   32  C19 UNL     1     -11.525  12.182  35.582  1.00  0.00     0.248 C 
HETATM   33  N3  UNL     1     -12.667  12.012  34.760  1.00  0.00    -0.061 NA
HETATM   34  O3  UNL     1     -11.159  11.149  36.228  1.00  0.00    -0.275 OA
ENDBRANCH  31  32
ENDBRANCH  29  31
ENDBRANCH  26  27
ENDBRANCH  10  26
BRANCH  11  35
HETATM   35  O4  UNL     1     -10.535  13.629  30.418  1.00  0.00    -0.388 OA
HETATM   36  C21 UNL     1     -11.919  13.482  30.198  1.00  0.00     0.202 C 
ENDBRANCH  11  35
BRANCH   1  37
HETATM   37  N1  UNL     1      -7.745  16.306  22.419  1.00  0.00    -0.388 N 
BRANCH  37  38
HETATM   38  C4  UNL     1      -7.724  17.082  21.252  1.00  0.00     0.058 C 
BRANCH  38  39
HETATM   39  C3  UNL     1      -7.235  16.272  20.058  1.00  0.00     0.044 C 
BRANCH  39  40
HETATM   40  C2  UNL     1      -5.833  16.774  19.668  1.00  0.00     0.001 C 
HETATM   41  C1  UNL     1      -4.738  15.974  20.285  1.00  0.00     0.005 C 
ENDBRANCH  39  40
ENDBRANCH  38  39
ENDBRANCH  37  38
BRANCH  37  42
HETATM   42  C5  UNL     1      -8.053  14.957  22.122  1.00  0.00     0.118 C 
HETATM   43  C6  UNL     1      -9.420  14.456  22.411  1.00  0.00     0.026 C 
ENDBRANCH  37  42
ENDBRANCH   1  37
BRANCH  21  44
HETATM   44  O5  UNL     1      -3.445  19.195  23.658  1.00  0.00    -0.395 OA
ATOM     45  H5  UNL     1      -3.072  18.560  23.059  1.00  0.00     0.210 HD
ENDBRANCH  21  44
TORSDOF 11
ENDMDL
MODEL 4
REMARK VINA RESULT: -8.955116784      2.382     10.357
REMARK  11 active torsions:
REMARK  status: ('A' for Active; 'I' for Inactive)
REMARK    1  A    between atoms: C2_2  and  C3_3 
REMARK    2  A    between atoms: C3_3  and  C4_4 
REMARK    3  A    between atoms: C4_4  and  N1_5 
REMARK    4  A    between atoms: N1_5  and  C5_6 
REMARK    5  A    between atoms: N1_5  and  C7_8 
REMARK    6  A    between atoms: C16_17  and  O1_18 
REMARK    7  A    between atoms: O1_18  and  C17_19 
REMARK       I    between atoms: C17_19  and  N2_21 
REMARK    8  A    between atoms: N2_21  and  C18_23 
REMARK    9  A    between atoms: C18_23  and  C19_24 
REMARK   10  A    between atoms: C20_27  and  O4_28 
REMARK   11  A    between atoms: C31_39  and  O5_40 
ROOT
HETATM    1  C7  UNL     1      -7.090  16.597  23.475  1.00  0.00     0.092 C 
HETATM    2  C8  UNL     1      -8.003  16.697  24.640  1.00  0.00     0.014 C 
HETATM    3  C9  UNL     1      -9.370  16.164  24.539  1.00  0.00     0.007 C 
HETATM    4  C10 UNL     1     -10.082  16.259  25.841  1.00  0.00     0.006 C 
HETATM    5  C11 UNL     1      -9.283  16.278  27.099  1.00  0.00     0.003 C 
HETATM    6  C12 UNL     1     -10.208  15.772  28.214  1.00  0.00    -0.034 C 
HETATM    7  C13 UNL     1     -11.631  16.308  27.928  1.00  0.00     0.016 C 
HETATM    8  C14 UNL     1      -9.872  16.310  29.551  1.00  0.00     0.012 C 
HETATM    9  C15 UNL     1      -9.763  15.374  30.678  1.00  0.00     0.036 C 
HETATM   10  C16 UNL     1     -10.451  14.066  30.605  1.00  0.00     0.163 C 
HETATM   11  C20 UNL     1     -11.134  13.787  29.298  1.00  0.00     0.155 C 
HETATM   12  C22 UNL     1     -10.363  14.290  28.118  1.00  0.00     0.026 C 
HETATM   13  C23 UNL     1      -9.103  13.526  27.840  1.00  0.00     0.009 C 
HETATM   14  C24 UNL     1      -8.281  14.101  26.748  1.00  0.00     0.010 C 
HETATM   15  C25 UNL     1      -8.002  15.601  26.950  1.00  0.00    -0.035 C 
HETATM   16  C26 UNL     1      -7.047  15.538  28.104  1.00  0.00     0.016 C 
HETATM   17  C27 UNL     1      -7.231  16.218  25.848  1.00  0.00     0.005 C 
HETATM   18  C28 UNL     1      -6.244  17.268  26.160  1.00  0.00     0.002 C 
HETATM   19  C29 UNL     1      -6.636  18.592  26.619  1.00  0.00     0.008 C 
HETATM   20  C30 UNL     1      -5.389  19.446  26.357  1.00  0.00     0.033 C 
HETATM   21  C31 UNL     1      -4.508  18.634  25.469  1.00  0.00     0.127 C 
HETATM   22  C32 UNL     1      -5.347  17.489  24.941  1.00  0.00    -0.009 C 
HETATM   23  C33 UNL     1      -4.346  16.354  24.779  1.00  0.00     0.018 C 
HETATM   24  C34 UNL     1      -6.041  17.704  23.666  1.00  0.00     0.016 C 
HETATM   25  C35 UNL     1      -6.533  19.056  23.333  1.00  0.00     0.013 C 
ENDROOT
BRANCH  10  26
HETATM   26  O1  UNL     1     -11.440  13.950  31.609  1.00  0.00    -0.296 OA
BRANCH  26  27
HETATM   27  C17 UNL     1     -11.248  14.462  32.881  1.00  0.00     0.361 C 
HETATM   28  O2  UNL     1     -12.117  15.290  33.291  1.00  0.00    -0.238 OA
HETATM   29  N2  UNL     1     -10.150  14.089  33.680  1.00  0.00    -0.329 N 
ATOM     30  H2  UNL     1      -9.478  13.421  33.301  1.00  0.00     0.165 HD
BRANCH  29  31
HETATM   31  C18 UNL     1      -9.931  14.605  35.006  1.00  0.00     0.224 C 
BRANCH  31  32
HETATM   32  C19 UNL     1      -8.995  15.737  35.083  1.00  0.00     0.248 C 
HETATM   33  N3  UNL     1      -8.562  16.493  33.965  1.00  0.00    -0.061 NA
HETATM   34  O3  UNL     1      -8.517  16.099  36.205  1.00  0.00    -0.275 OA
ENDBRANCH  31  32
ENDBRANCH  29  31
ENDBRANCH  26  27
ENDBRANCH  10  26
BRANCH  11  35
HETATM   35  O4  UNL     1     -11.441  12.450  29.137  1.00  0.00    -0.388 OA
HETATM   36  C21 UNL     1     -12.646  12.273  28.430  1.00  0.00     0.202 C 
ENDBRANCH  11  35
BRANCH   1  37
HETATM   37  N1  UNL     1      -7.573  16.415  22.191  1.00  0.00    -0.388 N 
BRANCH  37  38
HETATM   38  C4  UNL     1      -6.955  16.944  21.049  1.00  0.00     0.058 C 
BRANCH  38  39
HETATM   39  C3  UNL     1      -5.986  15.943  20.431  1.00  0.00     0.044 C 
BRANCH  39  40
HETATM   40  C2  UNL     1      -4.698  16.690  20.039  1.00  0.00     0.001 C 
HETATM   41  C1  UNL     1      -3.649  16.631  21.095  1.00  0.00     0.005 C 
ENDBRANCH  39  40
ENDBRANCH  38  39
ENDBRANCH  37  38
BRANCH  37  42
HETATM   42  C5  UNL     1      -8.332  15.266  21.868  1.00  0.00     0.118 C 
HETATM   43  C6  UNL     1      -9.532  15.420  21.010  1.00  0.00     0.026 C 
ENDBRANCH  37  42
ENDBRANCH   1  37
BRANCH  21  44
HETATM   44  O5  UNL     1      -3.761  19.297  24.545  1.00  0.00    -0.395 OA
ATOM     45  H5  UNL     1      -4.126  19.398  23.675  1.00  0.00     0.210 HD
ENDBRANCH  21  44
TORSDOF 11
ENDMDL
MODEL 5
REMARK VINA RESULT: -8.817507015      1.207      1.392
REMARK  11 active torsions:
REMARK  status: ('A' for Active; 'I' for Inactive)
REMARK    1  A    between atoms: C2_2  and  C3_3 
REMARK    2  A    between atoms: C3_3  and  C4_4 
REMARK    3  A    between atoms: C4_4  and  N1_5 
REMARK    4  A    between atoms: N1_5  and  C5_6 
REMARK    5  A    between atoms: N1_5  and  C7_8 
REMARK    6  A    between atoms: C16_17  and  O1_18 
REMARK    7  A    between atoms: O1_18  and  C17_19 
REMARK       I    between atoms: C17_19  and  N2_21 
REMARK    8  A    between atoms: N2_21  and  C18_23 
REMARK    9  A    between atoms: C18_23  and  C19_24 
REMARK   10  A    between atoms: C20_27  and  O4_28 
REMARK   11  A    between atoms: C31_39  and  O5_40 
ROOT
HETATM    1  C7  UNL     1     -10.783  14.668  31.767  1.00  0.00     0.092 C 
HETATM    2  C8  UNL     1     -10.704  15.393  30.476  1.00  0.00     0.014 C 
HETATM    3  C9  UNL     1      -9.685  16.438  30.291  1.00  0.00     0.007 C 
HETATM    4  C10 UNL     1      -9.697  16.962  28.900  1.00  0.00     0.006 C 
HETATM    5  C11 UNL     1     -10.205  16.087  27.805  1.00  0.00     0.003 C 
HETATM    6  C12 UNL     1      -9.560  16.590  26.507  1.00  0.00    -0.034 C 
HETATM    7  C13 UNL     1      -9.469  18.133  26.590  1.00  0.00     0.016 C 
HETATM    8  C14 UNL     1     -10.378  16.332  25.301  1.00  0.00     0.012 C 
HETATM    9  C15 UNL     1      -9.732  15.722  24.131  1.00  0.00     0.036 C 
HETATM   10  C16 UNL     1      -8.267  15.838  23.967  1.00  0.00     0.163 C 
HETATM   11  C20 UNL     1      -7.558  16.511  25.107  1.00  0.00     0.155 C 
HETATM   12  C22 UNL     1      -8.132  16.156  26.442  1.00  0.00     0.026 C 
HETATM   13  C23 UNL     1      -7.868  14.741  26.864  1.00  0.00     0.009 C 
HETATM   14  C24 UNL     1      -8.541  14.356  28.128  1.00  0.00     0.010 C 
HETATM   15  C25 UNL     1     -10.048  14.672  28.112  1.00  0.00    -0.035 C 
HETATM   16  C26 UNL     1     -10.523  13.636  27.139  1.00  0.00     0.016 C 
HETATM   17  C27 UNL     1     -10.738  14.352  29.381  1.00  0.00     0.005 C 
HETATM   18  C28 UNL     1     -12.116  13.830  29.339  1.00  0.00     0.002 C 
HETATM   19  C29 UNL     1     -13.247  14.655  28.939  1.00  0.00     0.008 C 
HETATM   20  C30 UNL     1     -14.459  13.892  29.487  1.00  0.00     0.033 C 
HETATM   21  C31 UNL     1     -13.917  12.878  30.439  1.00  0.00     0.127 C 
HETATM   22  C32 UNL     1     -12.474  13.254  30.709  1.00  0.00    -0.009 C 
HETATM   23  C33 UNL     1     -11.791  11.913  30.939  1.00  0.00     0.018 C 
HETATM   24  C34 UNL     1     -12.219  14.128  31.860  1.00  0.00     0.016 C 
HETATM   25  C35 UNL     1     -13.218  15.153  32.222  1.00  0.00     0.013 C 
ENDROOT
BRANCH  10  26
HETATM   26  O1  UNL     1      -7.937  16.568  22.802  1.00  0.00    -0.296 OA
BRANCH  26  27
HETATM   27  C17 UNL     1      -6.764  17.299  22.710  1.00  0.00     0.361 C 
HETATM   28  O2  UNL     1      -6.852  18.537  22.976  1.00  0.00    -0.238 OA
HETATM   29  N2  UNL     1      -5.540  16.709  22.343  1.00  0.00    -0.329 N 
ATOM     30  H2  UNL     1      -5.526  15.709  22.138  1.00  0.00     0.165 HD
BRANCH  29  31
HETATM   31  C18 UNL     1      -4.308  17.447  22.245  1.00  0.00     0.224 C 
BRANCH  31  32
HETATM   32  C19 UNL     1      -3.433  17.349  23.422  1.00  0.00     0.248 C 
HETATM   33  N3  UNL     1      -2.803  16.154  23.852  1.00  0.00    -0.061 NA
HETATM   34  O3  UNL     1      -3.195  18.377  24.133  1.00  0.00    -0.275 OA
ENDBRANCH  31  32
ENDBRANCH  29  31
ENDBRANCH  26  27
ENDBRANCH  10  26
BRANCH  11  35
HETATM   35  O4  UNL     1      -6.197  16.281  25.092  1.00  0.00    -0.388 OA
HETATM   36  C21 UNL     1      -5.542  16.957  26.140  1.00  0.00     0.202 C 
ENDBRANCH  11  35
BRANCH   1  37
HETATM   37  N1  UNL     1     -10.242  15.194  32.927  1.00  0.00    -0.388 N 
BRANCH  37  38
HETATM   38  C4  UNL     1     -10.981  15.407  34.099  1.00  0.00     0.058 C 
BRANCH  38  39
HETATM   39  C3  UNL     1     -10.494  14.510  35.231  1.00  0.00     0.044 C 
BRANCH  39  40
HETATM   40  C2  UNL     1     -11.678  13.656  35.720  1.00  0.00     0.001 C 
HETATM   41  C1  UNL     1     -11.397  12.194  35.672  1.00  0.00     0.005 C 
ENDBRANCH  39  40
ENDBRANCH  38  39
ENDBRANCH  37  38
BRANCH  37  42
HETATM   42  C5  UNL     1      -8.869  15.018  33.221  1.00  0.00     0.118 C 
HETATM   43  C6  UNL     1      -8.094  14.021  32.442  1.00  0.00     0.026 C 
ENDBRANCH  37  42
ENDBRANCH   1  37
BRANCH  21  44
HETATM   44  O5  UNL     1     -14.667  12.576  31.533  1.00  0.00    -0.395 OA
ATOM     45  H5  UNL     1     -14.778  13.252  32.190  1.00  0.00     0.210 HD
ENDBRANCH  21  44
TORSDOF 11
ENDMDL
