MODEL 1
REMARK VINA RESULT: -9.359848713      0.000      0.000
REMARK  13 active torsions:
REMARK  status: ('A' for Active; 'I' for Inactive)
REMARK    1  A    between atoms: C2_2  and  C4_4 
REMARK    2  A    between atoms: C7_7  and  C9_9 
REMARK    3  A    between atoms: C14_14  and  C16_16 
REMARK    4  A    between atoms: N2_19  and  C18_20 
REMARK    5  A    between atoms: C18_20  and  C19_21 
REMARK    6  A    between atoms: C19_21  and  O1_22 
REMARK    7  A    between atoms: C19_21  and  C20_24 
REMARK    8  A    between atoms: C20_24  and  C21_26 
REMARK    9  A    between atoms: C21_26  and  C22_27 
REMARK   10  A    between atoms: C22_27  and  O3_28 
REMARK   11  A    between atoms: C22_27  and  C23_30 
REMARK   12  A    between atoms: C23_30  and  N3_31 
REMARK   13  A    between atoms: C25_36  and  C26_37 
ROOT
HETATM    1  C9  UNL     1      -7.547  16.984  28.023  1.00  0.00     0.031 C 
HETATM    2  C10 UNL     1      -7.367  15.623  28.696  1.00  0.00     0.009 C 
HETATM    3  C11 UNL     1      -8.400  14.607  28.283  1.00  0.00     0.005 C 
HETATM    4  C12 UNL     1      -9.816  15.049  28.401  1.00  0.00    -0.007 C 
HETATM    5  C13 UNL     1     -10.653  14.277  29.355  1.00  0.00     0.014 C 
HETATM    6  C14 UNL     1     -12.058  14.842  29.294  1.00  0.00    -0.039 C 
HETATM    7  C15 UNL     1     -12.910  13.839  28.547  1.00  0.00     0.015 C 
HETATM    8  C29 UNL     1     -12.142  16.148  28.541  1.00  0.00     0.010 C 
HETATM    9  C30 UNL     1     -11.066  17.124  29.050  1.00  0.00     0.009 C 
HETATM   10  C31 UNL     1      -9.760  16.524  28.778  1.00  0.00     0.027 C 
HETATM   11  C32 UNL     1      -8.946  17.143  27.624  1.00  0.00     0.090 A 
HETATM   12  C33 UNL     1      -9.647  17.981  26.790  1.00  0.00     0.207 A 
HETATM   13  O4  UNL     1      -9.212  16.769  26.329  1.00  0.00    -0.374 OA
ENDROOT
BRANCH   6  14
HETATM   14  C16 UNL     1     -12.568  14.948  30.697  1.00  0.00     0.010 C 
HETATM   15  C17 UNL     1     -13.861  14.242  30.963  1.00  0.00     0.114 C 
HETATM   16  N1  UNL     1     -13.844  13.841  32.333  1.00  0.00    -0.238 NA
HETATM   17  N2  UNL     1     -13.946  12.503  32.641  1.00  0.00    -0.244 NA
HETATM   18  C25 UNL     1     -12.493  13.817  32.797  1.00  0.00     0.041 C 
HETATM   19  C24 UNL     1     -12.556  12.300  32.935  1.00  0.00     0.135 C 
HETATM   20  C28 UNL     1     -11.609  14.276  31.654  1.00  0.00     0.034 C 
BRANCH  17  21
HETATM   21  C18 UNL     1     -14.570  11.625  31.706  1.00  0.00     0.147 C 
BRANCH  21  22
HETATM   22  C19 UNL     1     -15.142  10.438  32.441  1.00  0.00     0.202 C 
BRANCH  22  23
HETATM   23  O1  UNL     1     -16.531  10.471  32.282  1.00  0.00    -0.387 OA
ATOM     24  H1  UNL     1     -16.782   9.703  31.781  1.00  0.00     0.210 HD
ENDBRANCH  22  23
BRANCH  22  25
HETATM   25  C20 UNL     1     -14.584   9.140  32.034  1.00  0.00     0.159 C 
HETATM   26  O2  UNL     1     -15.270   8.357  31.415  1.00  0.00    -0.295 OA
BRANCH  25  27
HETATM   27  C21 UNL     1     -13.185   8.795  32.386  1.00  0.00     0.114 C 
BRANCH  27  28
HETATM   28  C22 UNL     1     -12.470   8.268  31.138  1.00  0.00     0.150 C 
BRANCH  28  29
HETATM   29  O3  UNL     1     -11.834   9.321  30.531  1.00  0.00    -0.394 OA
ATOM     30  H3  UNL     1     -11.111   8.977  30.019  1.00  0.00     0.210 HD
ENDBRANCH  28  29
BRANCH  28  31
HETATM   31  C23 UNL     1     -11.565   7.132  31.504  1.00  0.00     0.261 C 
BRANCH  31  32
HETATM   32  N3  UNL     1     -10.704   6.816  30.380  1.00  0.00    -0.077 N 
ATOM     33  H33 UNL     1     -11.014   5.982  29.880  1.00  0.00     0.274 HD
ATOM     34  H32 UNL     1     -10.802   7.487  29.618  1.00  0.00     0.274 HD
ATOM     35  H31 UNL     1      -9.739   6.736  30.701  1.00  0.00     0.274 HD
ENDBRANCH  31  32
ENDBRANCH  28  31
ENDBRANCH  27  28
ENDBRANCH  25  27
ENDBRANCH  22  25
ENDBRANCH  21  22
ENDBRANCH  17  21
BRANCH  18  36
HETATM   36  C26 UNL     1     -12.204  14.449  34.120  1.00  0.00     0.023 C 
HETATM   37  C27 UNL     1     -10.815  15.043  34.208  1.00  0.00     0.007 C 
ENDBRANCH  18  36
ENDBRANCH   6  14
BRANCH   1  38
HETATM   38  C7  UNL     1      -6.404  17.228  27.142  1.00  0.00    -0.037 C 
HETATM   39  C6  UNL     1      -5.089  16.662  27.620  1.00  0.00     0.010 C 
HETATM   40  C5  UNL     1      -3.944  17.038  26.745  1.00  0.00     0.010 C 
HETATM   41  C4  UNL     1      -4.150  16.627  25.289  1.00  0.00     0.017 C 
HETATM   42  C35 UNL     1      -5.495  16.975  24.773  1.00  0.00    -0.010 C 
HETATM   43  C34 UNL     1      -6.571  16.591  25.756  1.00  0.00     0.014 C 
HETATM   44  C36 UNL     1      -5.674  18.256  24.066  1.00  0.00     0.010 C 
HETATM   45  C8  UNL     1      -6.313  18.744  27.002  1.00  0.00     0.015 C 
BRANCH  41  46
HETATM   46  C2  UNL     1      -2.998  17.127  24.499  1.00  0.00    -0.089 C 
HETATM   47  C1  UNL     1      -2.578  16.475  23.417  1.00  0.00     0.014 C 
HETATM   48  C3  UNL     1      -2.199  18.342  24.843  1.00  0.00     0.043 C 
ENDBRANCH  41  46
ENDBRANCH   1  38
TORSDOF 13
ENDMDL
MODEL 2
REMARK VINA RESULT: -9.161609042      3.196      4.529
REMARK  13 active torsions:
REMARK  status: ('A' for Active; 'I' for Inactive)
REMARK    1  A    between atoms: C2_2  and  C4_4 
REMARK    2  A    between atoms: C7_7  and  C9_9 
REMARK    3  A    between atoms: C14_14  and  C16_16 
REMARK    4  A    between atoms: N2_19  and  C18_20 
REMARK    5  A    between atoms: C18_20  and  C19_21 
REMARK    6  A    between atoms: C19_21  and  O1_22 
REMARK    7  A    between atoms: C19_21  and  C20_24 
REMARK    8  A    between atoms: C20_24  and  C21_26 
REMARK    9  A    between atoms: C21_26  and  C22_27 
REMARK   10  A    between atoms: C22_27  and  O3_28 
REMARK   11  A    between atoms: C22_27  and  C23_30 
REMARK   12  A    between atoms: C23_30  and  N3_31 
REMARK   13  A    between atoms: C25_36  and  C26_37 
ROOT
HETATM    1  C9  UNL     1      -9.413  15.918  27.454  1.00  0.00     0.031 C 
HETATM    2  C10 UNL     1      -9.279  17.283  28.128  1.00  0.00     0.009 C 
HETATM    3  C11 UNL     1      -8.167  17.346  29.144  1.00  0.00     0.005 C 
HETATM    4  C12 UNL     1      -8.179  16.270  30.172  1.00  0.00    -0.007 C 
HETATM    5  C13 UNL     1      -8.357  16.724  31.575  1.00  0.00     0.014 C 
HETATM    6  C14 UNL     1      -8.290  15.499  32.465  1.00  0.00    -0.039 C 
HETATM    7  C15 UNL     1      -6.954  15.537  33.175  1.00  0.00     0.015 C 
HETATM    8  C29 UNL     1      -8.352  14.201  31.697  1.00  0.00     0.010 C 
HETATM    9  C30 UNL     1      -9.529  14.226  30.706  1.00  0.00     0.009 C 
HETATM   10  C31 UNL     1      -9.284  15.308  29.754  1.00  0.00     0.027 C 
HETATM   11  C32 UNL     1      -8.856  14.889  28.333  1.00  0.00     0.090 A 
HETATM   12  C33 UNL     1      -8.463  13.579  28.197  1.00  0.00     0.207 A 
HETATM   13  O4  UNL     1      -7.539  14.583  28.084  1.00  0.00    -0.374 OA
ENDROOT
BRANCH   6  14
HETATM   14  C16 UNL     1      -9.376  15.620  33.489  1.00  0.00     0.010 C 
HETATM   15  C17 UNL     1     -10.771  15.494  32.960  1.00  0.00     0.114 C 
HETATM   16  N1  UNL     1     -11.567  14.943  34.009  1.00  0.00    -0.238 NA
HETATM   17  N2  UNL     1     -12.210  13.744  33.803  1.00  0.00    -0.244 NA
HETATM   18  C25 UNL     1     -10.713  14.291  34.952  1.00  0.00     0.041 C 
HETATM   19  C24 UNL     1     -11.294  12.938  34.559  1.00  0.00     0.135 C 
HETATM   20  C28 UNL     1      -9.284  14.485  34.484  1.00  0.00     0.034 C 
BRANCH  17  21
HETATM   21  C18 UNL     1     -12.513  13.343  32.467  1.00  0.00     0.147 C 
BRANCH  21  22
HETATM   22  C19 UNL     1     -13.895  13.824  32.102  1.00  0.00     0.202 C 
BRANCH  22  23
HETATM   23  O1  UNL     1     -14.210  14.889  32.953  1.00  0.00    -0.387 OA
ATOM     24  H1  UNL     1     -15.042  15.249  32.667  1.00  0.00     0.210 HD
ENDBRANCH  22  23
BRANCH  22  25
HETATM   25  C20 UNL     1     -14.061  14.196  30.690  1.00  0.00     0.159 C 
HETATM   26  O2  UNL     1     -15.043  13.831  30.082  1.00  0.00    -0.295 OA
BRANCH  25  27
HETATM   27  C21 UNL     1     -13.024  15.015  30.015  1.00  0.00     0.114 C 
BRANCH  27  28
HETATM   28  C22 UNL     1     -13.028  14.693  28.518  1.00  0.00     0.150 C 
BRANCH  28  29
HETATM   29  O3  UNL     1     -12.634  15.816  27.836  1.00  0.00    -0.394 OA
ATOM     30  H3  UNL     1     -11.755  15.670  27.505  1.00  0.00     0.210 HD
ENDBRANCH  28  29
BRANCH  28  31
HETATM   31  C23 UNL     1     -12.186  13.483  28.250  1.00  0.00     0.261 C 
BRANCH  31  32
HETATM   32  N3  UNL     1     -13.044  12.347  27.970  1.00  0.00    -0.077 N 
ATOM     33  H33 UNL     1     -13.858  12.319  28.584  1.00  0.00     0.274 HD
ATOM     34  H32 UNL     1     -13.536  12.445  27.081  1.00  0.00     0.274 HD
ATOM     35  H31 UNL     1     -12.497  11.487  28.015  1.00  0.00     0.274 HD
ENDBRANCH  31  32
ENDBRANCH  28  31
ENDBRANCH  27  28
ENDBRANCH  25  27
ENDBRANCH  22  25
ENDBRANCH  21  22
ENDBRANCH  17  21
BRANCH  18  36
HETATM   36  C26 UNL     1     -10.953  14.560  36.402  1.00  0.00     0.023 C 
HETATM   37  C27 UNL     1      -9.691  14.916  37.159  1.00  0.00     0.007 C 
ENDBRANCH  18  36
ENDBRANCH   6  14
BRANCH   1  38
HETATM   38  C7  UNL     1      -9.082  16.058  26.035  1.00  0.00    -0.037 C 
HETATM   39  C6  UNL     1      -7.624  16.312  25.736  1.00  0.00     0.010 C 
HETATM   40  C5  UNL     1      -7.364  16.561  24.291  1.00  0.00     0.010 C 
HETATM   41  C4  UNL     1      -7.854  15.425  23.395  1.00  0.00     0.017 C 
HETATM   42  C35 UNL     1      -9.223  14.970  23.734  1.00  0.00    -0.010 C 
HETATM   43  C34 UNL     1      -9.385  14.793  25.221  1.00  0.00     0.014 C 
HETATM   44  C36 UNL     1     -10.365  15.556  23.009  1.00  0.00     0.010 C 
HETATM   45  C8  UNL     1      -9.939  17.213  25.529  1.00  0.00     0.015 C 
BRANCH  41  46
HETATM   46  C2  UNL     1      -7.626  15.818  21.982  1.00  0.00    -0.089 C 
HETATM   47  C1  UNL     1      -7.430  14.896  21.042  1.00  0.00     0.014 C 
HETATM   48  C3  UNL     1      -7.556  17.229  21.497  1.00  0.00     0.043 C 
ENDBRANCH  41  46
ENDBRANCH   1  38
TORSDOF 13
ENDMDL
MODEL 3
REMARK VINA RESULT: -9.085343372      4.857     11.623
REMARK  13 active torsions:
REMARK  status: ('A' for Active; 'I' for Inactive)
REMARK    1  A    between atoms: C2_2  and  C4_4 
REMARK    2  A    between atoms: C7_7  and  C9_9 
REMARK    3  A    between atoms: C14_14  and  C16_16 
REMARK    4  A    between atoms: N2_19  and  C18_20 
REMARK    5  A    between atoms: C18_20  and  C19_21 
REMARK    6  A    between atoms: C19_21  and  O1_22 
REMARK    7  A    between atoms: C19_21  and  C20_24 
REMARK    8  A    between atoms: C20_24  and  C21_26 
REMARK    9  A    between atoms: C21_26  and  C22_27 
REMARK   10  A    between atoms: C22_27  and  O3_28 
REMARK   11  A    between atoms: C22_27  and  C23_30 
REMARK   12  A    between atoms: C23_30  and  N3_31 
REMARK   13  A    between atoms: C25_36  and  C26_37 
ROOT
HETATM    1  C9  UNL     1     -11.176  14.601  27.738  1.00  0.00     0.031 C 
HETATM    2  C10 UNL     1     -10.448  13.610  26.829  1.00  0.00     0.009 C 
HETATM    3  C11 UNL     1      -8.962  13.852  26.745  1.00  0.00     0.005 C 
HETATM    4  C12 UNL     1      -8.559  15.244  26.407  1.00  0.00    -0.007 C 
HETATM    5  C13 UNL     1      -7.812  15.405  25.133  1.00  0.00     0.014 C 
HETATM    6  C14 UNL     1      -7.451  16.871  24.996  1.00  0.00    -0.039 C 
HETATM    7  C15 UNL     1      -5.967  16.992  25.272  1.00  0.00     0.015 C 
HETATM    8  C29 UNL     1      -8.164  17.755  25.990  1.00  0.00     0.010 C 
HETATM    9  C30 UNL     1      -9.673  17.450  25.984  1.00  0.00     0.009 C 
HETATM   10  C31 UNL     1      -9.846  16.060  26.405  1.00  0.00     0.027 C 
HETATM   11  C32 UNL     1     -10.397  15.836  27.827  1.00  0.00     0.090 A 
HETATM   12  C33 UNL     1     -10.384  16.940  28.646  1.00  0.00     0.207 A 
HETATM   13  O4  UNL     1      -9.543  15.891  28.903  1.00  0.00    -0.374 OA
ENDROOT
BRANCH   6  14
HETATM   14  C16 UNL     1      -7.705  17.271  23.576  1.00  0.00     0.010 C 
HETATM   15  C17 UNL     1      -6.596  18.032  22.918  1.00  0.00     0.114 C 
HETATM   16  N1  UNL     1      -6.652  17.729  21.524  1.00  0.00    -0.238 NA
HETATM   17  N2  UNL     1      -5.562  17.141  20.922  1.00  0.00    -0.244 NA
HETATM   18  C25 UNL     1      -7.375  16.510  21.338  1.00  0.00     0.041 C 
HETATM   19  C24 UNL     1      -6.104  15.813  20.869  1.00  0.00     0.135 C 
HETATM   20  C28 UNL     1      -7.842  16.044  22.703  1.00  0.00     0.034 C 
BRANCH  17  21
HETATM   21  C18 UNL     1      -4.272  17.317  21.507  1.00  0.00     0.147 C 
BRANCH  21  22
HETATM   22  C19 UNL     1      -3.280  16.423  20.805  1.00  0.00     0.202 C 
BRANCH  22  23
HETATM   23  O1  UNL     1      -2.606  17.200  19.857  1.00  0.00    -0.387 OA
ATOM     24  H1  UNL     1      -1.729  17.358  20.186  1.00  0.00     0.210 HD
ENDBRANCH  22  23
BRANCH  22  25
HETATM   25  C20 UNL     1      -2.341  15.731  21.699  1.00  0.00     0.159 C 
HETATM   26  O2  UNL     1      -2.057  14.571  21.494  1.00  0.00    -0.295 OA
BRANCH  25  27
HETATM   27  C21 UNL     1      -1.747  16.454  22.850  1.00  0.00     0.114 C 
BRANCH  27  28
HETATM   28  C22 UNL     1      -2.307  15.872  24.151  1.00  0.00     0.150 C 
BRANCH  28  29
HETATM   29  O3  UNL     1      -1.664  14.687  24.405  1.00  0.00    -0.394 OA
ATOM     30  H3  UNL     1      -1.886  14.410  25.286  1.00  0.00     0.210 HD
ENDBRANCH  28  29
BRANCH  28  31
HETATM   31  C23 UNL     1      -2.198  16.879  25.255  1.00  0.00     0.261 C 
BRANCH  31  32
HETATM   32  N3  UNL     1      -2.567  18.190  24.753  1.00  0.00    -0.077 N 
ATOM     33  H33 UNL     1      -1.877  18.562  24.100  1.00  0.00     0.274 HD
ATOM     34  H32 UNL     1      -3.363  18.149  24.115  1.00  0.00     0.274 HD
ATOM     35  H31 UNL     1      -2.735  18.821  25.537  1.00  0.00     0.274 HD
ENDBRANCH  31  32
ENDBRANCH  28  31
ENDBRANCH  27  28
ENDBRANCH  25  27
ENDBRANCH  22  25
ENDBRANCH  21  22
ENDBRANCH  17  21
BRANCH  18  36
HETATM   36  C26 UNL     1      -8.414  16.481  20.264  1.00  0.00     0.023 C 
HETATM   37  C27 UNL     1      -9.597  15.599  20.602  1.00  0.00     0.007 C 
ENDBRANCH  18  36
ENDBRANCH   6  14
BRANCH   1  38
HETATM   38  C7  UNL     1     -11.710  13.876  28.892  1.00  0.00    -0.037 C 
HETATM   39  C6  UNL     1     -12.547  14.701  29.839  1.00  0.00     0.010 C 
HETATM   40  C5  UNL     1     -12.966  13.943  31.052  1.00  0.00     0.010 C 
HETATM   41  C4  UNL     1     -13.728  12.663  30.717  1.00  0.00     0.017 C 
HETATM   42  C35 UNL     1     -13.078  11.863  29.652  1.00  0.00    -0.010 C 
HETATM   43  C34 UNL     1     -12.657  12.736  28.498  1.00  0.00     0.014 C 
HETATM   44  C36 UNL     1     -12.148  10.787  30.040  1.00  0.00     0.010 C 
HETATM   45  C8  UNL     1     -10.493  13.307  29.614  1.00  0.00     0.015 C 
BRANCH  41  46
HETATM   46  C2  UNL     1     -14.015  11.949  31.987  1.00  0.00    -0.089 C 
HETATM   47  C1  UNL     1     -13.462  12.346  33.132  1.00  0.00     0.014 C 
HETATM   48  C3  UNL     1     -14.885  10.740  32.101  1.00  0.00     0.043 C 
ENDBRANCH  41  46
ENDBRANCH   1  38
TORSDOF 13
ENDMDL
MODEL 4
REMARK VINA RESULT: -8.984742026      4.941     11.507
REMARK  13 active torsions:
REMARK  status: ('A' for Active; 'I' for Inactive)
REMARK    1  A    between atoms: C2_2  and  C4_4 
REMARK    2  A    between atoms: C7_7  and  C9_9 
REMARK    3  A    between atoms: C14_14  and  C16_16 
REMARK    4  A    between atoms: N2_19  and  C18_20 
REMARK    5  A    between atoms: C18_20  and  C19_21 
REMARK    6  A    between atoms: C19_21  and  O1_22 
REMARK    7  A    between atoms: C19_21  and  C20_24 
REMARK    8  A    between atoms: C20_24  and  C21_26 
REMARK    9  A    between atoms: C21_26  and  C22_27 
REMARK   10  A    between atoms: C22_27  and  O3_28 
REMARK   11  A    between atoms: C22_27  and  C23_30 
REMARK   12  A    between atoms: C23_30  and  N3_31 
REMARK   13  A    between atoms: C25_36  and  C26_37 
ROOT
HETATM    1  C9  UNL     1      -8.685  15.115  27.778  1.00  0.00     0.031 C 
HETATM    2  C10 UNL     1      -7.531  15.425  28.732  1.00  0.00     0.009 C 
HETATM    3  C11 UNL     1      -7.028  16.842  28.627  1.00  0.00     0.005 C 
HETATM    4  C12 UNL     1      -6.688  17.300  27.252  1.00  0.00    -0.007 C 
HETATM    5  C13 UNL     1      -5.266  17.664  27.029  1.00  0.00     0.014 C 
HETATM    6  C14 UNL     1      -5.136  18.148  25.598  1.00  0.00    -0.039 C 
HETATM    7  C15 UNL     1      -4.967  19.652  25.651  1.00  0.00     0.015 C 
HETATM    8  C29 UNL     1      -6.358  17.864  24.760  1.00  0.00     0.010 C 
HETATM    9  C30 UNL     1      -6.779  16.391  24.916  1.00  0.00     0.009 C 
HETATM   10  C31 UNL     1      -7.128  16.177  26.320  1.00  0.00     0.027 C 
HETATM   11  C32 UNL     1      -8.630  16.034  26.640  1.00  0.00     0.090 A 
HETATM   12  C33 UNL     1      -9.487  16.417  25.636  1.00  0.00     0.207 A 
HETATM   13  O4  UNL     1      -9.405  17.160  26.782  1.00  0.00    -0.374 OA
ENDROOT
BRANCH   6  14
HETATM   14  C16 UNL     1      -3.888  17.549  25.027  1.00  0.00     0.010 C 
HETATM   15  C17 UNL     1      -4.064  16.818  23.733  1.00  0.00     0.114 C 
HETATM   16  N1  UNL     1      -2.836  16.936  23.016  1.00  0.00    -0.238 NA
HETATM   17  N2  UNL     1      -2.837  17.541  21.779  1.00  0.00    -0.244 NA
HETATM   18  C25 UNL     1      -2.100  18.049  23.528  1.00  0.00     0.041 C 
HETATM   19  C24 UNL     1      -2.291  18.795  22.213  1.00  0.00     0.135 C 
HETATM   20  C28 UNL     1      -2.901  18.639  24.672  1.00  0.00     0.034 C 
BRANCH  17  21
HETATM   21  C18 UNL     1      -4.047  17.561  21.021  1.00  0.00     0.147 C 
BRANCH  21  22
HETATM   22  C19 UNL     1      -4.109  16.331  20.150  1.00  0.00     0.202 C 
BRANCH  22  23
HETATM   23  O1  UNL     1      -3.586  15.263  20.886  1.00  0.00    -0.387 OA
ATOM     24  H1  UNL     1      -4.287  14.915  21.425  1.00  0.00     0.210 HD
ENDBRANCH  22  23
BRANCH  22  25
HETATM   25  C20 UNL     1      -5.447  16.020  19.627  1.00  0.00     0.159 C 
HETATM   26  O2  UNL     1      -5.667  16.114  18.439  1.00  0.00    -0.295 OA
BRANCH  25  27
HETATM   27  C21 UNL     1      -6.523  15.593  20.555  1.00  0.00     0.114 C 
BRANCH  27  28
HETATM   28  C22 UNL     1      -7.368  16.811  20.936  1.00  0.00     0.150 C 
BRANCH  28  29
HETATM   29  O3  UNL     1      -7.564  17.569  19.810  1.00  0.00    -0.394 OA
ATOM     30  H3  UNL     1      -7.955  17.017  19.143  1.00  0.00     0.210 HD
ENDBRANCH  28  29
BRANCH  28  31
HETATM   31  C23 UNL     1      -8.633  16.370  21.608  1.00  0.00     0.261 C 
BRANCH  31  32
HETATM   32  N3  UNL     1      -9.618  16.016  20.602  1.00  0.00    -0.077 N 
ATOM     33  H33 UNL     1     -10.474  15.646  21.014  1.00  0.00     0.274 HD
ATOM     34  H32 UNL     1     -10.017  16.838  20.147  1.00  0.00     0.274 HD
ATOM     35  H31 UNL     1      -9.202  15.369  19.931  1.00  0.00     0.274 HD
ENDBRANCH  31  32
ENDBRANCH  28  31
ENDBRANCH  27  28
ENDBRANCH  25  27
ENDBRANCH  22  25
ENDBRANCH  21  22
ENDBRANCH  17  21
BRANCH  18  36
HETATM   36  C26 UNL     1      -0.645  17.846  23.806  1.00  0.00     0.023 C 
HETATM   37  C27 UNL     1      -0.159  18.601  25.024  1.00  0.00     0.007 C 
ENDBRANCH  18  36
ENDBRANCH   6  14
BRANCH   1  38
HETATM   38  C7  UNL     1      -9.890  14.850  28.567  1.00  0.00    -0.037 C 
HETATM   39  C6  UNL     1      -9.673  14.033  29.818  1.00  0.00     0.010 C 
HETATM   40  C5  UNL     1     -10.945  13.697  30.517  1.00  0.00     0.010 C 
HETATM   41  C4  UNL     1     -11.767  14.932  30.879  1.00  0.00     0.017 C 
HETATM   42  C35 UNL     1     -11.883  15.899  29.761  1.00  0.00    -0.010 C 
HETATM   43  C34 UNL     1     -10.549  16.129  29.100  1.00  0.00     0.014 C 
HETATM   44  C36 UNL     1     -13.056  15.817  28.872  1.00  0.00     0.010 C 
HETATM   45  C8  UNL     1     -10.847  14.135  27.621  1.00  0.00     0.015 C 
BRANCH  41  46
HETATM   46  C2  UNL     1     -13.043  14.478  31.486  1.00  0.00    -0.089 C 
HETATM   47  C1  UNL     1     -13.479  15.003  32.629  1.00  0.00     0.014 C 
HETATM   48  C3  UNL     1     -13.914  13.403  30.920  1.00  0.00     0.043 C 
ENDBRANCH  41  46
ENDBRANCH   1  38
TORSDOF 13
ENDMDL
MODEL 5
REMARK VINA RESULT: -8.983068761      2.851      4.386
REMARK  13 active torsions:
REMARK  status: ('A' for Active; 'I' for Inactive)
REMARK    1  A    between atoms: C2_2  and  C4_4 
REMARK    2  A    between atoms: C7_7  and  C9_9 
REMARK    3  A    between atoms: C14_14  and  C16_16 
REMARK    4  A    between atoms: N2_19  and  C18_20 
REMARK    5  A    between atoms: C18_20  and  C19_21 
REMARK    6  A    between atoms: C19_21  and  O1_22 
REMARK    7  A    between atoms: C19_21  and  C20_24 
REMARK    8  A    between atoms: C20_24  and  C21_26 
REMARK    9  A    between atoms: C21_26  and  C22_27 
REMARK   10  A    between atoms: C22_27  and  O3_28 
REMARK   11  A    between atoms: C22_27  and  C23_30 
REMARK   12  A    between atoms: C23_30  and  N3_31 
REMARK   13  A    between atoms: C25_36  and  C26_37 
ROOT
HETATM    1  C9  UNL     1      -9.453  15.920  27.596  1.00  0.00     0.031 C 
HETATM    2  C10 UNL     1      -9.368  17.268  28.311  1.00  0.00     0.009 C 
HETATM    3  C11 UNL     1      -8.293  17.323  29.367  1.00  0.00     0.005 C 
HETATM    4  C12 UNL     1      -8.321  16.219  30.365  1.00  0.00    -0.007 C 
HETATM    5  C13 UNL     1      -8.556  16.631  31.772  1.00  0.00     0.014 C 
HETATM    6  C14 UNL     1      -8.496  15.383  32.631  1.00  0.00    -0.039 C 
HETATM    7  C15 UNL     1      -7.186  15.425  33.388  1.00  0.00     0.015 C 
HETATM    8  C29 UNL     1      -8.507  14.106  31.826  1.00  0.00     0.010 C 
HETATM    9  C30 UNL     1      -9.650  14.137  30.796  1.00  0.00     0.009 C 
HETATM   10  C31 UNL     1      -9.392  15.250  29.882  1.00  0.00     0.027 C 
HETATM   11  C32 UNL     1      -8.907  14.878  28.467  1.00  0.00     0.090 A 
HETATM   12  C33 UNL     1      -8.485  13.579  28.309  1.00  0.00     0.207 A 
HETATM   13  O4  UNL     1      -7.577  14.602  28.255  1.00  0.00    -0.374 OA
ENDROOT
BRANCH   6  14
HETATM   14  C16 UNL     1      -9.619  15.456  33.619  1.00  0.00     0.010 C 
HETATM   15  C17 UNL     1     -10.983  15.625  33.026  1.00  0.00     0.114 C 
HETATM   16  N1  UNL     1     -11.906  15.001  33.917  1.00  0.00    -0.238 NA
HETATM   17  N2  UNL     1     -12.684  13.962  33.457  1.00  0.00    -0.244 NA
HETATM   18  C25 UNL     1     -11.203  14.071  34.744  1.00  0.00     0.041 C 
HETATM   19  C24 UNL     1     -11.927  12.910  34.073  1.00  0.00     0.135 C 
HETATM   20  C28 UNL     1      -9.735  14.152  34.375  1.00  0.00     0.034 C 
BRANCH  17  21
HETATM   21  C18 UNL     1     -12.952  13.867  32.059  1.00  0.00     0.147 C 
BRANCH  21  22
HETATM   22  C19 UNL     1     -13.191  12.423  31.693  1.00  0.00     0.202 C 
BRANCH  22  23
HETATM   23  O1  UNL     1     -14.532  12.134  31.963  1.00  0.00    -0.387 OA
ATOM     24  H1  UNL     1     -14.964  11.974  31.132  1.00  0.00     0.210 HD
ENDBRANCH  22  23
BRANCH  22  25
HETATM   25  C20 UNL     1     -12.832  12.074  30.312  1.00  0.00     0.159 C 
HETATM   26  O2  UNL     1     -12.046  11.176  30.102  1.00  0.00    -0.295 OA
BRANCH  25  27
HETATM   27  C21 UNL     1     -13.431  12.824  29.181  1.00  0.00     0.114 C 
BRANCH  27  28
HETATM   28  C22 UNL     1     -12.359  13.713  28.545  1.00  0.00     0.150 C 
BRANCH  28  29
HETATM   29  O3  UNL     1     -11.776  13.017  27.517  1.00  0.00    -0.394 OA
ATOM     30  H3  UNL     1     -10.861  13.269  27.468  1.00  0.00     0.210 HD
ENDBRANCH  28  29
BRANCH  28  31
HETATM   31  C23 UNL     1     -12.955  15.026  28.138  1.00  0.00     0.261 C 
BRANCH  31  32
HETATM   32  N3  UNL     1     -12.814  15.980  29.223  1.00  0.00    -0.077 N 
ATOM     33  H33 UNL     1     -13.485  16.745  29.152  1.00  0.00     0.274 HD
ATOM     34  H32 UNL     1     -13.124  15.596  30.116  1.00  0.00     0.274 HD
ATOM     35  H31 UNL     1     -11.851  16.314  29.260  1.00  0.00     0.274 HD
ENDBRANCH  31  32
ENDBRANCH  28  31
ENDBRANCH  27  28
ENDBRANCH  25  27
ENDBRANCH  22  25
ENDBRANCH  21  22
ENDBRANCH  17  21
BRANCH  18  36
HETATM   36  C26 UNL     1     -11.495  14.091  36.209  1.00  0.00     0.023 C 
HETATM   37  C27 UNL     1     -10.287  14.434  37.055  1.00  0.00     0.007 C 
ENDBRANCH  18  36
ENDBRANCH   6  14
BRANCH   1  38
HETATM   38  C7  UNL     1      -9.076  16.106  26.194  1.00  0.00    -0.037 C 
HETATM   39  C6  UNL     1      -7.610  16.373  25.952  1.00  0.00     0.010 C 
HETATM   40  C5  UNL     1      -7.303  16.668  24.525  1.00  0.00     0.010 C 
HETATM   41  C4  UNL     1      -7.758  15.559  23.579  1.00  0.00     0.017 C 
HETATM   42  C35 UNL     1      -9.136  15.089  23.857  1.00  0.00    -0.010 C 
HETATM   43  C34 UNL     1      -9.347  14.866  25.332  1.00  0.00     0.014 C 
HETATM   44  C36 UNL     1     -10.256  15.695  23.114  1.00  0.00     0.010 C 
HETATM   45  C8  UNL     1      -9.920  17.273  25.696  1.00  0.00     0.015 C 
BRANCH  41  46
HETATM   46  C2  UNL     1      -7.485  15.996  22.187  1.00  0.00    -0.089 C 
HETATM   47  C1  UNL     1      -7.217  17.271  21.913  1.00  0.00     0.014 C 
HETATM   48  C3  UNL     1      -7.520  15.096  20.994  1.00  0.00     0.043 C 
ENDBRANCH  41  46
ENDBRANCH   1  38
TORSDOF 13
ENDMDL
