MODEL 1
REMARK VINA RESULT: -9.111983202      0.000      0.000
REMARK  13 active torsions:
REMARK  status: ('A' for Active; 'I' for Inactive)
REMARK    1  A    between atoms: C2_2  and  C4_4 
REMARK    2  A    between atoms: C4_4  and  C5_6 
REMARK    3  A    between atoms: C6_7  and  C7_8 
REMARK    4  A    between atoms: C7_8  and  C9_10 
REMARK    5  A    between atoms: C9_10  and  C11_12 
REMARK    6  A    between atoms: C11_12  and  O2_13 
REMARK    7  A    between atoms: C11_12  and  C12_15 
REMARK    8  A    between atoms: C12_15  and  C14_17 
REMARK    9  A    between atoms: C23_27  and  O4_28 
REMARK   10  A    between atoms: C26_32  and  C27_33 
REMARK   11  A    between atoms: C27_33  and  C29_35 
REMARK   12  A    between atoms: C30_36  and  C31_37 
REMARK       I    between atoms: C31_37  and  N1_39 
REMARK   13  A    between atoms: C34_42  and  C35_43 
ROOT
HETATM    1  C14 UNL     1      -9.059  15.557  29.083  1.00  0.00     0.071 C 
HETATM    2  C15 UNL     1      -9.426  14.672  30.253  1.00  0.00     0.141 C 
HETATM    3  O3  UNL     1      -8.908  13.759  30.874  1.00  0.00    -0.297 OA
HETATM    4  C16 UNL     1     -10.710  15.404  30.320  1.00  0.00     0.095 C 
HETATM    5  C17 UNL     1     -11.942  14.602  30.450  1.00  0.00    -0.040 A 
HETATM    6  C18 UNL     1     -12.785  14.487  29.489  1.00  0.00    -0.040 A 
HETATM    7  C19 UNL     1     -12.616  15.155  28.147  1.00  0.00     0.038 C 
HETATM    8  C20 UNL     1     -11.144  15.107  27.879  1.00  0.00     0.015 C 
HETATM    9  C21 UNL     1     -10.444  15.940  28.947  1.00  0.00    -0.019 C 
HETATM   10  C22 UNL     1     -10.907  17.340  28.827  1.00  0.00     0.017 C 
HETATM   11  C23 UNL     1     -13.675  13.579  30.232  1.00  0.00     0.103 A 
HETATM   12  C24 UNL     1     -13.457  12.189  29.648  1.00  0.00     0.045 C 
HETATM   13  C25 UNL     1     -12.155  11.772  30.272  1.00  0.00     0.010 C 
HETATM   14  C26 UNL     1     -12.291  12.409  31.696  1.00  0.00     0.020 C 
HETATM   15  C34 UNL     1     -12.771  13.776  31.381  1.00  0.00     0.112 A 
ENDROOT
BRANCH   1  16
HETATM   16  C12 UNL     1      -7.927  16.469  29.396  1.00  0.00     0.022 C 
HETATM   17  C13 UNL     1      -8.078  17.363  30.550  1.00  0.00     0.013 C 
BRANCH  16  18
HETATM   18  C11 UNL     1      -7.399  17.052  28.116  1.00  0.00     0.127 C 
BRANCH  18  19
HETATM   19  C9  UNL     1      -7.922  16.476  26.854  1.00  0.00     0.018 C 
HETATM   20  C10 UNL     1      -7.560  15.070  26.543  1.00  0.00     0.013 C 
BRANCH  19  21
HETATM   21  C7  UNL     1      -7.364  17.328  25.710  1.00  0.00     0.010 C 
HETATM   22  C8  UNL     1      -5.896  17.130  25.491  1.00  0.00     0.015 C 
BRANCH  21  23
HETATM   23  C6  UNL     1      -8.095  17.107  24.457  1.00  0.00    -0.018 C 
HETATM   24  C5  UNL     1      -7.538  16.926  23.282  1.00  0.00     0.047 C 
BRANCH  24  25
HETATM   25  C4  UNL     1      -8.329  16.714  22.087  1.00  0.00     0.152 C 
HETATM   26  O1  UNL     1      -8.225  17.524  21.137  1.00  0.00    -0.293 OA
BRANCH  25  27
HETATM   27  C2  UNL     1      -9.258  15.549  21.979  1.00  0.00     0.051 C 
HETATM   28  C1  UNL     1      -8.664  14.312  22.577  1.00  0.00     0.018 C 
HETATM   29  C3  UNL     1      -9.754  15.364  20.573  1.00  0.00     0.018 C 
ENDBRANCH  25  27
ENDBRANCH  24  25
ENDBRANCH  21  23
ENDBRANCH  19  21
ENDBRANCH  18  19
BRANCH  18  30
HETATM   30  O2  UNL     1      -7.823  18.418  28.081  1.00  0.00    -0.395 OA
ATOM     31  H2  UNL     1      -8.719  18.391  28.393  1.00  0.00     0.210 HD
ENDBRANCH  18  30
ENDBRANCH  16  18
ENDBRANCH   1  16
BRANCH  15  32
HETATM   32  C35 UNL     1     -13.238  14.592  32.526  1.00  0.00     0.190 C 
HETATM   33  O6  UNL     1     -14.458  14.770  32.695  1.00  0.00    -0.647 OA
HETATM   34  O7  UNL     1     -12.326  15.139  33.395  1.00  0.00    -0.647 OA
ENDBRANCH  15  32
BRANCH  11  35
HETATM   35  O4  UNL     1     -14.989  13.969  30.353  1.00  0.00    -0.384 OA
ATOM     36  H4  UNL     1     -15.586  13.337  30.735  1.00  0.00     0.211 HD
ENDBRANCH  11  35
BRANCH  14  37
HETATM   37  C27 UNL     1     -13.375  11.555  32.318  1.00  0.00     0.010 C 
HETATM   38  C28 UNL     1     -12.998  10.073  32.088  1.00  0.00     0.014 C 
BRANCH  37  39
HETATM   39  C29 UNL     1     -13.555  11.683  33.761  1.00  0.00    -0.017 C 
HETATM   40  C30 UNL     1     -12.506  11.464  34.567  1.00  0.00     0.070 C 
BRANCH  40  41
HETATM   41  C31 UNL     1     -12.636  11.579  36.013  1.00  0.00     0.242 C 
HETATM   42  O5  UNL     1     -13.401  10.784  36.605  1.00  0.00    -0.268 OA
HETATM   43  N1  UNL     1     -11.923  12.558  36.732  1.00  0.00    -0.357 N 
HETATM   44  C32 UNL     1     -12.086  12.633  38.169  1.00  0.00     0.152 C 
HETATM   45  C33 UNL     1     -11.025  13.503  36.090  1.00  0.00     0.152 C 
ENDBRANCH  40  41
ENDBRANCH  37  39
ENDBRANCH  14  37
TORSDOF 13
ENDMDL
MODEL 2
REMARK VINA RESULT: -9.068363474      3.394      9.833
REMARK  13 active torsions:
REMARK  status: ('A' for Active; 'I' for Inactive)
REMARK    1  A    between atoms: C2_2  and  C4_4 
REMARK    2  A    between atoms: C4_4  and  C5_6 
REMARK    3  A    between atoms: C6_7  and  C7_8 
REMARK    4  A    between atoms: C7_8  and  C9_10 
REMARK    5  A    between atoms: C9_10  and  C11_12 
REMARK    6  A    between atoms: C11_12  and  O2_13 
REMARK    7  A    between atoms: C11_12  and  C12_15 
REMARK    8  A    between atoms: C12_15  and  C14_17 
REMARK    9  A    between atoms: C23_27  and  O4_28 
REMARK   10  A    between atoms: C26_32  and  C27_33 
REMARK   11  A    between atoms: C27_33  and  C29_35 
REMARK   12  A    between atoms: C30_36  and  C31_37 
REMARK       I    between atoms: C31_37  and  N1_39 
REMARK   13  A    between atoms: C34_42  and  C35_43 
ROOT
HETATM    1  C14 UNL     1     -11.475  13.673  29.224  1.00  0.00     0.071 C 
HETATM    2  C15 UNL     1     -10.135  13.669  28.524  1.00  0.00     0.141 C 
HETATM    3  O3  UNL     1      -9.099  13.029  28.592  1.00  0.00    -0.297 OA
HETATM    4  C16 UNL     1     -10.630  14.798  27.707  1.00  0.00     0.095 C 
HETATM    5  C17 UNL     1      -9.735  15.959  27.540  1.00  0.00    -0.040 A 
HETATM    6  C18 UNL     1      -9.971  17.088  28.101  1.00  0.00    -0.040 A 
HETATM    7  C19 UNL     1     -11.173  17.351  28.973  1.00  0.00     0.038 C 
HETATM    8  C20 UNL     1     -11.395  16.071  29.715  1.00  0.00     0.015 C 
HETATM    9  C21 UNL     1     -11.739  14.989  28.697  1.00  0.00    -0.019 C 
HETATM   10  C22 UNL     1     -12.996  15.372  28.015  1.00  0.00     0.017 C 
HETATM   11  C23 UNL     1      -8.745  17.724  27.588  1.00  0.00     0.103 A 
HETATM   12  C24 UNL     1      -7.782  17.815  28.765  1.00  0.00     0.045 C 
HETATM   13  C25 UNL     1      -7.265  16.407  28.875  1.00  0.00     0.010 C 
HETATM   14  C26 UNL     1      -7.196  15.999  27.365  1.00  0.00     0.020 C 
HETATM   15  C34 UNL     1      -8.506  16.467  26.855  1.00  0.00     0.112 A 
ENDROOT
BRANCH   1  16
HETATM   16  C12 UNL     1     -12.264  12.445  28.943  1.00  0.00     0.022 C 
HETATM   17  C13 UNL     1     -12.766  12.261  27.575  1.00  0.00     0.013 C 
BRANCH  16  18
HETATM   18  C11 UNL     1     -13.214  12.200  30.081  1.00  0.00     0.127 C 
BRANCH  18  19
HETATM   19  C9  UNL     1     -12.612  11.999  31.420  1.00  0.00     0.018 C 
HETATM   20  C10 UNL     1     -12.889  10.712  32.108  1.00  0.00     0.013 C 
BRANCH  19  21
HETATM   21  C7  UNL     1     -13.167  13.101  32.329  1.00  0.00     0.010 C 
HETATM   22  C8  UNL     1     -13.609  12.592  33.666  1.00  0.00     0.015 C 
BRANCH  21  23
HETATM   23  C6  UNL     1     -12.213  14.202  32.497  1.00  0.00    -0.018 C 
HETATM   24  C5  UNL     1     -11.118  14.146  33.220  1.00  0.00     0.047 C 
BRANCH  24  25
HETATM   25  C4  UNL     1     -10.223  15.279  33.339  1.00  0.00     0.152 C 
HETATM   26  O1  UNL     1     -10.346  16.051  34.317  1.00  0.00    -0.293 OA
BRANCH  25  27
HETATM   27  C2  UNL     1      -9.165  15.531  32.314  1.00  0.00     0.051 C 
HETATM   28  C1  UNL     1      -8.504  14.262  31.879  1.00  0.00     0.018 C 
HETATM   29  C3  UNL     1      -8.202  16.593  32.762  1.00  0.00     0.018 C 
ENDBRANCH  25  27
ENDBRANCH  24  25
ENDBRANCH  21  23
ENDBRANCH  19  21
ENDBRANCH  18  19
BRANCH  18  30
HETATM   30  O2  UNL     1     -13.999  13.387  30.223  1.00  0.00    -0.395 OA
ATOM     31  H2  UNL     1     -13.379  14.094  30.091  1.00  0.00     0.210 HD
ENDBRANCH  18  30
ENDBRANCH  16  18
ENDBRANCH   1  16
BRANCH  15  32
HETATM   32  C35 UNL     1      -8.686  16.451  25.384  1.00  0.00     0.190 C 
HETATM   33  O6  UNL     1      -8.642  17.522  24.751  1.00  0.00    -0.647 OA
HETATM   34  O7  UNL     1      -8.891  15.261  24.731  1.00  0.00    -0.647 OA
ENDBRANCH  15  32
BRANCH  11  35
HETATM   35  O4  UNL     1      -8.910  18.885  26.869  1.00  0.00    -0.384 OA
ATOM     36  H4  UNL     1      -8.396  19.633  27.147  1.00  0.00     0.211 HD
ENDBRANCH  11  35
BRANCH  14  37
HETATM   37  C27 UNL     1      -6.052  16.854  26.862  1.00  0.00     0.010 C 
HETATM   38  C28 UNL     1      -4.861  16.665  27.831  1.00  0.00     0.014 C 
BRANCH  37  39
HETATM   39  C29 UNL     1      -5.526  16.523  25.542  1.00  0.00    -0.017 C 
HETATM   40  C30 UNL     1      -4.506  17.243  25.051  1.00  0.00     0.070 C 
BRANCH  40  41
HETATM   41  C31 UNL     1      -3.947  16.951  23.739  1.00  0.00     0.242 C 
HETATM   42  O5  UNL     1      -4.573  17.341  22.727  1.00  0.00    -0.268 OA
HETATM   43  N1  UNL     1      -2.733  16.249  23.604  1.00  0.00    -0.357 N 
HETATM   44  C32 UNL     1      -2.218  15.983  22.277  1.00  0.00     0.152 C 
HETATM   45  C33 UNL     1      -1.972  15.776  24.747  1.00  0.00     0.152 C 
ENDBRANCH  40  41
ENDBRANCH  37  39
ENDBRANCH  14  37
TORSDOF 13
ENDMDL
MODEL 3
REMARK VINA RESULT: -9.039857984      3.350      9.888
REMARK  13 active torsions:
REMARK  status: ('A' for Active; 'I' for Inactive)
REMARK    1  A    between atoms: C2_2  and  C4_4 
REMARK    2  A    between atoms: C4_4  and  C5_6 
REMARK    3  A    between atoms: C6_7  and  C7_8 
REMARK    4  A    between atoms: C7_8  and  C9_10 
REMARK    5  A    between atoms: C9_10  and  C11_12 
REMARK    6  A    between atoms: C11_12  and  O2_13 
REMARK    7  A    between atoms: C11_12  and  C12_15 
REMARK    8  A    between atoms: C12_15  and  C14_17 
REMARK    9  A    between atoms: C23_27  and  O4_28 
REMARK   10  A    between atoms: C26_32  and  C27_33 
REMARK   11  A    between atoms: C27_33  and  C29_35 
REMARK   12  A    between atoms: C30_36  and  C31_37 
REMARK       I    between atoms: C31_37  and  N1_39 
REMARK   13  A    between atoms: C34_42  and  C35_43 
ROOT
HETATM    1  C14 UNL     1     -11.487  13.680  29.341  1.00  0.00     0.071 C 
HETATM    2  C15 UNL     1     -10.154  13.668  28.627  1.00  0.00     0.141 C 
HETATM    3  O3  UNL     1      -9.114  13.035  28.697  1.00  0.00    -0.297 OA
HETATM    4  C16 UNL     1     -10.663  14.779  27.794  1.00  0.00     0.095 C 
HETATM    5  C17 UNL     1      -9.775  15.940  27.595  1.00  0.00    -0.040 A 
HETATM    6  C18 UNL     1     -10.011  17.079  28.136  1.00  0.00    -0.040 A 
HETATM    7  C19 UNL     1     -11.205  17.354  29.015  1.00  0.00     0.038 C 
HETATM    8  C20 UNL     1     -11.413  16.087  29.784  1.00  0.00     0.015 C 
HETATM    9  C21 UNL     1     -11.762  14.985  28.790  1.00  0.00    -0.019 C 
HETATM   10  C22 UNL     1     -13.028  15.348  28.115  1.00  0.00     0.017 C 
HETATM   11  C23 UNL     1      -8.793  17.711  27.599  1.00  0.00     0.103 A 
HETATM   12  C24 UNL     1      -7.819  17.829  28.764  1.00  0.00     0.045 C 
HETATM   13  C25 UNL     1      -7.294  16.426  28.896  1.00  0.00     0.010 C 
HETATM   14  C26 UNL     1      -7.237  15.988  27.393  1.00  0.00     0.020 C 
HETATM   15  C34 UNL     1      -8.555  16.440  26.888  1.00  0.00     0.112 A 
ENDROOT
BRANCH   1  16
HETATM   16  C12 UNL     1     -12.273  12.443  29.091  1.00  0.00     0.022 C 
HETATM   17  C13 UNL     1     -12.762  12.216  27.725  1.00  0.00     0.013 C 
BRANCH  16  18
HETATM   18  C11 UNL     1     -13.234  12.234  30.227  1.00  0.00     0.127 C 
BRANCH  18  19
HETATM   19  C9  UNL     1     -12.645  12.085  31.579  1.00  0.00     0.018 C 
HETATM   20  C10 UNL     1     -12.905  10.815  32.303  1.00  0.00     0.013 C 
BRANCH  19  21
HETATM   21  C7  UNL     1     -13.231  13.203  32.447  1.00  0.00     0.010 C 
HETATM   22  C8  UNL     1     -13.738  12.716  33.769  1.00  0.00     0.015 C 
BRANCH  21  23
HETATM   23  C6  UNL     1     -12.276  14.299  32.645  1.00  0.00    -0.018 C 
HETATM   24  C5  UNL     1     -11.218  14.245  33.421  1.00  0.00     0.047 C 
BRANCH  24  25
HETATM   25  C4  UNL     1     -10.320  15.372  33.566  1.00  0.00     0.152 C 
HETATM   26  O1  UNL     1     -10.435  16.118  34.566  1.00  0.00    -0.293 OA
BRANCH  25  27
HETATM   27  C2  UNL     1      -9.267  15.650  32.544  1.00  0.00     0.051 C 
HETATM   28  C1  UNL     1      -8.685  14.387  31.992  1.00  0.00     0.018 C 
HETATM   29  C3  UNL     1      -8.238  16.618  33.056  1.00  0.00     0.018 C 
ENDBRANCH  25  27
ENDBRANCH  24  25
ENDBRANCH  21  23
ENDBRANCH  19  21
ENDBRANCH  18  19
BRANCH  18  30
HETATM   30  O2  UNL     1     -14.027  13.421  30.319  1.00  0.00    -0.395 OA
ATOM     31  H2  UNL     1     -14.224  13.639  29.415  1.00  0.00     0.210 HD
ENDBRANCH  18  30
ENDBRANCH  16  18
ENDBRANCH   1  16
BRANCH  15  32
HETATM   32  C35 UNL     1      -8.749  16.396  25.419  1.00  0.00     0.190 C 
HETATM   33  O6  UNL     1      -8.861  17.460  24.784  1.00  0.00    -0.647 OA
HETATM   34  O7  UNL     1      -8.797  15.187  24.771  1.00  0.00    -0.647 OA
ENDBRANCH  15  32
BRANCH  11  35
HETATM   35  O4  UNL     1      -8.970  18.856  26.859  1.00  0.00    -0.384 OA
ATOM     36  H4  UNL     1      -8.406  18.965  26.103  1.00  0.00     0.211 HD
ENDBRANCH  11  35
BRANCH  14  37
HETATM   37  C27 UNL     1      -6.103  16.839  26.863  1.00  0.00     0.010 C 
HETATM   38  C28 UNL     1      -4.908  16.689  27.834  1.00  0.00     0.014 C 
BRANCH  37  39
HETATM   39  C29 UNL     1      -5.576  16.474  25.551  1.00  0.00    -0.017 C 
HETATM   40  C30 UNL     1      -5.001  17.422  24.797  1.00  0.00     0.070 C 
BRANCH  40  41
HETATM   41  C31 UNL     1      -4.461  17.107  23.482  1.00  0.00     0.242 C 
HETATM   42  O5  UNL     1      -3.302  16.636  23.413  1.00  0.00    -0.268 OA
HETATM   43  N1  UNL     1      -5.217  17.323  22.314  1.00  0.00    -0.357 N 
HETATM   44  C32 UNL     1      -4.637  16.994  21.029  1.00  0.00     0.152 C 
HETATM   45  C33 UNL     1      -6.564  17.867  22.343  1.00  0.00     0.152 C 
ENDBRANCH  40  41
ENDBRANCH  37  39
ENDBRANCH  14  37
TORSDOF 13
ENDMDL
MODEL 4
REMARK VINA RESULT: -8.973660383      1.671      2.047
REMARK  13 active torsions:
REMARK  status: ('A' for Active; 'I' for Inactive)
REMARK    1  A    between atoms: C2_2  and  C4_4 
REMARK    2  A    between atoms: C4_4  and  C5_6 
REMARK    3  A    between atoms: C6_7  and  C7_8 
REMARK    4  A    between atoms: C7_8  and  C9_10 
REMARK    5  A    between atoms: C9_10  and  C11_12 
REMARK    6  A    between atoms: C11_12  and  O2_13 
REMARK    7  A    between atoms: C11_12  and  C12_15 
REMARK    8  A    between atoms: C12_15  and  C14_17 
REMARK    9  A    between atoms: C23_27  and  O4_28 
REMARK   10  A    between atoms: C26_32  and  C27_33 
REMARK   11  A    between atoms: C27_33  and  C29_35 
REMARK   12  A    between atoms: C30_36  and  C31_37 
REMARK       I    between atoms: C31_37  and  N1_39 
REMARK   13  A    between atoms: C34_42  and  C35_43 
ROOT
HETATM    1  C14 UNL     1      -9.141  15.849  28.896  1.00  0.00     0.071 C 
HETATM    2  C15 UNL     1      -9.369  14.650  29.789  1.00  0.00     0.141 C 
HETATM    3  O3  UNL     1      -8.765  13.630  30.078  1.00  0.00    -0.297 OA
HETATM    4  C16 UNL     1     -10.664  15.257  30.165  1.00  0.00     0.095 C 
HETATM    5  C17 UNL     1     -11.851  14.382  30.157  1.00  0.00    -0.040 A 
HETATM    6  C18 UNL     1     -12.776  14.495  29.275  1.00  0.00    -0.040 A 
HETATM    7  C19 UNL     1     -12.754  15.523  28.171  1.00  0.00     0.038 C 
HETATM    8  C20 UNL     1     -11.313  15.638  27.784  1.00  0.00     0.015 C 
HETATM    9  C21 UNL     1     -10.544  16.174  28.987  1.00  0.00    -0.019 C 
HETATM   10  C22 UNL     1     -11.061  17.522  29.310  1.00  0.00     0.017 C 
HETATM   11  C23 UNL     1     -13.564  13.365  29.795  1.00  0.00     0.103 A 
HETATM   12  C24 UNL     1     -13.356  12.211  28.822  1.00  0.00     0.045 C 
HETATM   13  C25 UNL     1     -11.988  11.710  29.195  1.00  0.00     0.010 C 
HETATM   14  C26 UNL     1     -12.012  11.911  30.748  1.00  0.00     0.020 C 
HETATM   15  C34 UNL     1     -12.564  13.280  30.876  1.00  0.00     0.112 A 
ENDROOT
BRANCH   1  16
HETATM   16  C12 UNL     1      -8.015  16.698  29.365  1.00  0.00     0.022 C 
HETATM   17  C13 UNL     1      -8.115  17.270  30.714  1.00  0.00     0.013 C 
BRANCH  16  18
HETATM   18  C11 UNL     1      -7.583  17.603  28.246  1.00  0.00     0.127 C 
BRANCH  18  19
HETATM   19  C9  UNL     1      -6.800  16.982  27.151  1.00  0.00     0.018 C 
HETATM   20  C10 UNL     1      -5.394  16.604  27.445  1.00  0.00     0.013 C 
BRANCH  19  21
HETATM   21  C7  UNL     1      -6.742  18.002  26.009  1.00  0.00     0.010 C 
HETATM   22  C8  UNL     1      -5.494  18.829  26.023  1.00  0.00     0.015 C 
BRANCH  21  23
HETATM   23  C6  UNL     1      -6.912  17.365  24.699  1.00  0.00    -0.018 C 
HETATM   24  C5  UNL     1      -7.976  16.695  24.320  1.00  0.00     0.047 C 
BRANCH  24  25
HETATM   25  C4  UNL     1      -8.070  16.092  23.006  1.00  0.00     0.152 C 
HETATM   26  O1  UNL     1      -7.173  16.326  22.163  1.00  0.00    -0.293 OA
BRANCH  25  27
HETATM   27  C2  UNL     1      -9.216  15.202  22.650  1.00  0.00     0.051 C 
HETATM   28  C1  UNL     1      -9.794  15.552  21.316  1.00  0.00     0.018 C 
HETATM   29  C3  UNL     1     -10.233  15.140  23.754  1.00  0.00     0.018 C 
ENDBRANCH  25  27
ENDBRANCH  24  25
ENDBRANCH  21  23
ENDBRANCH  19  21
ENDBRANCH  18  19
BRANCH  18  30
HETATM   30  O2  UNL     1      -8.776  18.064  27.606  1.00  0.00    -0.395 OA
ATOM     31  H2  UNL     1      -8.467  18.677  26.950  1.00  0.00     0.210 HD
ENDBRANCH  18  30
ENDBRANCH  16  18
ENDBRANCH   1  16
BRANCH  15  32
HETATM   32  C35 UNL     1     -12.948  13.712  32.241  1.00  0.00     0.190 C 
HETATM   33  O6  UNL     1     -14.140  13.969  32.489  1.00  0.00    -0.647 OA
HETATM   34  O7  UNL     1     -11.992  13.817  33.221  1.00  0.00    -0.647 OA
ENDBRANCH  15  32
BRANCH  11  35
HETATM   35  O4  UNL     1     -14.872  13.629  30.127  1.00  0.00    -0.384 OA
ATOM     36  H4  UNL     1     -15.015  14.269  30.814  1.00  0.00     0.211 HD
ENDBRANCH  11  35
BRANCH  14  37
HETATM   37  C27 UNL     1     -13.006  10.855  31.183  1.00  0.00     0.010 C 
HETATM   38  C28 UNL     1     -12.537   9.499  30.605  1.00  0.00     0.014 C 
BRANCH  37  39
HETATM   39  C29 UNL     1     -13.130  10.634  32.621  1.00  0.00    -0.017 C 
HETATM   40  C30 UNL     1     -12.941   9.398  33.106  1.00  0.00     0.070 C 
BRANCH  40  41
HETATM   41  C31 UNL     1     -13.054   9.128  34.532  1.00  0.00     0.242 C 
HETATM   42  O5  UNL     1     -12.153   9.555  35.290  1.00  0.00    -0.268 OA
HETATM   43  N1  UNL     1     -14.147   8.407  35.052  1.00  0.00    -0.357 N 
HETATM   44  C32 UNL     1     -14.214   8.164  36.478  1.00  0.00     0.152 C 
HETATM   45  C33 UNL     1     -15.215   7.891  34.214  1.00  0.00     0.152 C 
ENDBRANCH  40  41
ENDBRANCH  37  39
ENDBRANCH  14  37
TORSDOF 13
ENDMDL
MODEL 5
REMARK VINA RESULT: -8.879419619      3.516      9.991
REMARK  13 active torsions:
REMARK  status: ('A' for Active; 'I' for Inactive)
REMARK    1  A    between atoms: C2_2  and  C4_4 
REMARK    2  A    between atoms: C4_4  and  C5_6 
REMARK    3  A    between atoms: C6_7  and  C7_8 
REMARK    4  A    between atoms: C7_8  and  C9_10 
REMARK    5  A    between atoms: C9_10  and  C11_12 
REMARK    6  A    between atoms: C11_12  and  O2_13 
REMARK    7  A    between atoms: C11_12  and  C12_15 
REMARK    8  A    between atoms: C12_15  and  C14_17 
REMARK    9  A    between atoms: C23_27  and  O4_28 
REMARK   10  A    between atoms: C26_32  and  C27_33 
REMARK   11  A    between atoms: C27_33  and  C29_35 
REMARK   12  A    between atoms: C30_36  and  C31_37 
REMARK       I    between atoms: C31_37  and  N1_39 
REMARK   13  A    between atoms: C34_42  and  C35_43 
ROOT
HETATM    1  C14 UNL     1     -11.000  13.900  29.399  1.00  0.00     0.071 C 
HETATM    2  C15 UNL     1      -9.626  13.860  28.769  1.00  0.00     0.141 C 
HETATM    3  O3  UNL     1      -8.558  13.320  29.002  1.00  0.00    -0.297 OA
HETATM    4  C16 UNL     1     -10.146  14.776  27.731  1.00  0.00     0.095 C 
HETATM    5  C17 UNL     1      -9.317  15.945  27.381  1.00  0.00    -0.040 A 
HETATM    6  C18 UNL     1      -9.652  17.141  27.704  1.00  0.00    -0.040 A 
HETATM    7  C19 UNL     1     -10.914  17.477  28.459  1.00  0.00     0.038 C 
HETATM    8  C20 UNL     1     -11.096  16.347  29.423  1.00  0.00     0.015 C 
HETATM    9  C21 UNL     1     -11.316  15.071  28.618  1.00  0.00    -0.019 C 
HETATM   10  C22 UNL     1     -12.555  15.227  27.824  1.00  0.00     0.017 C 
HETATM   11  C23 UNL     1      -8.442  17.754  27.130  1.00  0.00     0.103 A 
HETATM   12  C24 UNL     1      -7.552  18.134  28.307  1.00  0.00     0.045 C 
HETATM   13  C25 UNL     1      -6.956  16.813  28.706  1.00  0.00     0.010 C 
HETATM   14  C26 UNL     1      -6.779  16.133  27.307  1.00  0.00     0.020 C 
HETATM   15  C34 UNL     1      -8.086  16.401  26.663  1.00  0.00     0.112 A 
ENDROOT
BRANCH   1  16
HETATM   16  C12 UNL     1     -11.695  12.588  29.326  1.00  0.00     0.022 C 
HETATM   17  C13 UNL     1     -12.675  12.400  28.249  1.00  0.00     0.013 C 
BRANCH  16  18
HETATM   18  C11 UNL     1     -12.081  12.159  30.713  1.00  0.00     0.127 C 
BRANCH  18  19
HETATM   19  C9  UNL     1     -13.415  12.587  31.197  1.00  0.00     0.018 C 
HETATM   20  C10 UNL     1     -14.076  13.707  30.479  1.00  0.00     0.013 C 
BRANCH  19  21
HETATM   21  C7  UNL     1     -13.236  13.051  32.646  1.00  0.00     0.010 C 
HETATM   22  C8  UNL     1     -13.492  11.965  33.646  1.00  0.00     0.015 C 
BRANCH  21  23
HETATM   23  C6  UNL     1     -11.913  13.643  32.871  1.00  0.00    -0.018 C 
HETATM   24  C5  UNL     1     -11.690  14.912  33.127  1.00  0.00     0.047 C 
BRANCH  24  25
HETATM   25  C4  UNL     1     -10.352  15.424  33.338  1.00  0.00     0.152 C 
HETATM   26  O1  UNL     1     -10.120  16.120  34.353  1.00  0.00    -0.293 OA
BRANCH  25  27
HETATM   27  C2  UNL     1      -9.257  15.133  32.364  1.00  0.00     0.051 C 
HETATM   28  C1  UNL     1      -8.302  14.111  32.896  1.00  0.00     0.018 C 
HETATM   29  C3  UNL     1      -8.591  16.392  31.885  1.00  0.00     0.018 C 
ENDBRANCH  25  27
ENDBRANCH  24  25
ENDBRANCH  21  23
ENDBRANCH  19  21
ENDBRANCH  18  19
BRANCH  18  30
HETATM   30  O2  UNL     1     -12.156  10.730  30.695  1.00  0.00    -0.395 OA
ATOM     31  H2  UNL     1     -11.271  10.448  30.894  1.00  0.00     0.210 HD
ENDBRANCH  18  30
ENDBRANCH  16  18
ENDBRANCH   1  16
BRANCH  15  32
HETATM   32  C35 UNL     1      -8.184  16.096  25.216  1.00  0.00     0.190 C 
HETATM   33  O6  UNL     1      -8.184  14.910  24.839  1.00  0.00    -0.647 OA
HETATM   34  O7  UNL     1      -8.282  17.119  24.305  1.00  0.00    -0.647 OA
ENDBRANCH  15  32
BRANCH  11  35
HETATM   35  O4  UNL     1      -8.639  18.743  26.195  1.00  0.00    -0.384 OA
ATOM     36  H4  UNL     1      -9.515  19.107  26.140  1.00  0.00     0.211 HD
ENDBRANCH  11  35
BRANCH  14  37
HETATM   37  C27 UNL     1      -5.665  16.957  26.698  1.00  0.00     0.010 C 
HETATM   38  C28 UNL     1      -4.427  16.829  27.616  1.00  0.00     0.014 C 
BRANCH  37  39
HETATM   39  C29 UNL     1      -5.203  16.548  25.375  1.00  0.00    -0.017 C 
HETATM   40  C30 UNL     1      -4.186  17.214  24.808  1.00  0.00     0.070 C 
BRANCH  40  41
HETATM   41  C31 UNL     1      -3.690  16.842  23.491  1.00  0.00     0.242 C 
HETATM   42  O5  UNL     1      -4.312  17.253  22.485  1.00  0.00    -0.268 OA
HETATM   43  N1  UNL     1      -2.540  16.041  23.345  1.00  0.00    -0.357 N 
HETATM   44  C32 UNL     1      -2.086  15.699  22.013  1.00  0.00     0.152 C 
HETATM   45  C33 UNL     1      -1.786  15.540  24.480  1.00  0.00     0.152 C 
ENDBRANCH  40  41
ENDBRANCH  37  39
ENDBRANCH  14  37
TORSDOF 13
ENDMDL
