MODEL 1
REMARK VINA RESULT: -6.942698026      0.000      0.000
REMARK  8 active torsions:
REMARK  status: ('A' for Active; 'I' for Inactive)
REMARK    1  A    between atoms: C2_2  and  C3_3 
REMARK    2  A    between atoms: C3_3  and  N1_4 
REMARK    3  A    between atoms: N1_4  and  C4_5 
REMARK    4  A    between atoms: C4_5  and  C5_6 
REMARK    5  A    between atoms: C13_14  and  N2_15 
REMARK    6  A    between atoms: C14_17  and  C15_18 
REMARK    7  A    between atoms: C15_18  and  C16_19 
REMARK    8  A    between atoms: C18_26  and  C19_27 
ROOT
HETATM    1  C5  UNL     1      18.313 -15.238  22.614  1.00  0.00     0.039 C 
HETATM    2  C6  UNL     1      19.175 -14.722  23.729  1.00  0.00    -0.007 C 
HETATM    3  C7  UNL     1      20.542 -15.355  23.620  1.00  0.00     0.005 C 
HETATM    4  C8  UNL     1      20.728 -16.569  24.464  1.00  0.00     0.001 C 
HETATM    5  C9  UNL     1      19.764 -17.680  24.131  1.00  0.00     0.007 C 
HETATM    6  C10 UNL     1      18.322 -17.221  24.188  1.00  0.00     0.009 C 
HETATM    7  C11 UNL     1      18.094 -16.329  25.351  1.00  0.00     0.007 C 
HETATM    8  C12 UNL     1      18.583 -14.952  25.104  1.00  0.00     0.005 C 
HETATM    9  C13 UNL     1      17.850 -16.667  22.873  1.00  0.00     0.090 C 
ENDROOT
BRANCH   1  10
HETATM   10  C4  UNL     1      17.210 -14.314  22.329  1.00  0.00     0.247 C 
BRANCH  10  11
HETATM   11  N1  UNL     1      17.135 -13.514  21.205  1.00  0.00    -0.037 N 
HETATM   12  C17 UNL     1      16.044 -12.520  21.362  1.00  0.00     0.469 C 
HETATM   13  N4  UNL     1      15.784 -11.996  20.064  1.00  0.00    -0.035 N 
HETATM   14  C18 UNL     1      15.784 -13.225  19.272  1.00  0.00     0.313 C 
ATOM     15  H42 UNL     1      14.947 -11.418  19.981  1.00  0.00     0.280 HD
ATOM     16  H41 UNL     1      16.424 -11.267  19.747  1.00  0.00     0.280 HD
HETATM   17  C20 UNL     1      16.875 -14.044  19.932  1.00  0.00     0.284 C 
BRANCH  11  18
HETATM   18  C3  UNL     1      18.332 -12.675  21.087  1.00  0.00     0.266 C 
BRANCH  18  19
HETATM   19  C2  UNL     1      19.278 -13.135  20.063  1.00  0.00    -0.009 C 
HETATM   20  C1  UNL     1      20.571 -13.133  20.313  1.00  0.00     0.008 C 
ENDBRANCH  18  19
ENDBRANCH  11  18
BRANCH  14  21
HETATM   21  C19 UNL     1      15.995 -12.982  17.847  1.00  0.00     0.206 C 
HETATM   22  O2  UNL     1      15.444 -13.680  16.949  1.00  0.00    -0.646 OA
HETATM   23  O3  UNL     1      16.825 -11.957  17.442  1.00  0.00    -0.646 OA
ENDBRANCH  14  21
ENDBRANCH  10  11
ENDBRANCH   1  10
BRANCH   9  24
HETATM   24  N2  UNL     1      16.425 -16.804  22.798  1.00  0.00    -0.396 N 
HETATM   25  C14 UNL     1      15.848 -17.954  22.733  1.00  0.00     0.064 C 
ATOM     26  H2  UNL     1      15.848 -15.963  22.795  1.00  0.00     0.159 HD
BRANCH  25  27
HETATM   27  C15 UNL     1      14.403 -18.152  22.656  1.00  0.00     0.143 C 
BRANCH  27  28
HETATM   28  C16 UNL     1      13.845 -16.985  21.887  1.00  0.00     0.235 C 
HETATM   29  N3  UNL     1      14.399 -16.564  20.652  1.00  0.00    -0.062 NA
HETATM   30  O1  UNL     1      12.858 -16.395  22.396  1.00  0.00    -0.277 OA
ENDBRANCH  27  28
ENDBRANCH  25  27
ENDBRANCH   9  24
TORSDOF 8
ENDMDL
MODEL 2
REMARK VINA RESULT: -6.904349035      2.182      3.149
REMARK  8 active torsions:
REMARK  status: ('A' for Active; 'I' for Inactive)
REMARK    1  A    between atoms: C2_2  and  C3_3 
REMARK    2  A    between atoms: C3_3  and  N1_4 
REMARK    3  A    between atoms: N1_4  and  C4_5 
REMARK    4  A    between atoms: C4_5  and  C5_6 
REMARK    5  A    between atoms: C13_14  and  N2_15 
REMARK    6  A    between atoms: C14_17  and  C15_18 
REMARK    7  A    between atoms: C15_18  and  C16_19 
REMARK    8  A    between atoms: C18_26  and  C19_27 
ROOT
HETATM    1  C5  UNL     1      17.535 -14.854  21.738  1.00  0.00     0.039 C 
HETATM    2  C6  UNL     1      18.506 -14.346  22.764  1.00  0.00    -0.007 C 
HETATM    3  C7  UNL     1      19.892 -14.339  22.160  1.00  0.00     0.005 C 
HETATM    4  C8  UNL     1      20.699 -15.556  22.461  1.00  0.00     0.001 C 
HETATM    5  C9  UNL     1      20.068 -16.830  21.959  1.00  0.00     0.007 C 
HETATM    6  C10 UNL     1      18.653 -17.005  22.468  1.00  0.00     0.009 C 
HETATM    7  C11 UNL     1      18.548 -16.605  23.892  1.00  0.00     0.007 C 
HETATM    8  C12 UNL     1      18.486 -15.133  24.056  1.00  0.00     0.005 C 
HETATM    9  C13 UNL     1      17.640 -16.364  21.562  1.00  0.00     0.090 C 
ENDROOT
BRANCH   1  10
HETATM   10  C4  UNL     1      16.172 -14.398  22.032  1.00  0.00     0.247 C 
BRANCH  10  11
HETATM   11  N1  UNL     1      15.485 -13.464  21.280  1.00  0.00    -0.037 N 
HETATM   12  C17 UNL     1      16.335 -12.269  21.056  1.00  0.00     0.469 C 
HETATM   13  N4  UNL     1      15.467 -11.231  20.614  1.00  0.00    -0.035 N 
HETATM   14  C18 UNL     1      14.356 -11.391  21.552  1.00  0.00     0.313 C 
ATOM     15  H42 UNL     1      15.878 -10.298  20.574  1.00  0.00     0.280 HD
ATOM     16  H41 UNL     1      15.216 -11.257  19.626  1.00  0.00     0.280 HD
HETATM   17  C20 UNL     1      14.280 -12.896  21.720  1.00  0.00     0.284 C 
BRANCH  11  18
HETATM   18  C3  UNL     1      15.255 -13.964  19.920  1.00  0.00     0.266 C 
BRANCH  18  19
HETATM   19  C2  UNL     1      13.996 -14.702  19.768  1.00  0.00    -0.009 C 
HETATM   20  C1  UNL     1      13.888 -15.638  18.846  1.00  0.00     0.008 C 
ENDBRANCH  18  19
ENDBRANCH  11  18
BRANCH  14  21
HETATM   21  C19 UNL     1      13.119 -10.778  21.077  1.00  0.00     0.206 C 
HETATM   22  O2  UNL     1      13.072 -10.052  20.044  1.00  0.00    -0.646 OA
HETATM   23  O3  UNL     1      11.942 -10.985  21.768  1.00  0.00    -0.646 OA
ENDBRANCH  14  21
ENDBRANCH  10  11
ENDBRANCH   1  10
BRANCH   9  24
HETATM   24  N2  UNL     1      16.380 -17.026  21.735  1.00  0.00    -0.396 N 
HETATM   25  C14 UNL     1      15.947 -17.907  20.901  1.00  0.00     0.064 C 
ATOM     26  H2  UNL     1      15.807 -16.790  22.545  1.00  0.00     0.159 HD
BRANCH  25  27
HETATM   27  C15 UNL     1      14.674 -18.611  21.029  1.00  0.00     0.143 C 
BRANCH  27  28
HETATM   28  C16 UNL     1      14.061 -18.171  22.331  1.00  0.00     0.235 C 
HETATM   29  N3  UNL     1      14.357 -18.818  23.558  1.00  0.00    -0.062 NA
HETATM   30  O1  UNL     1      13.268 -17.196  22.280  1.00  0.00    -0.277 OA
ENDBRANCH  27  28
ENDBRANCH  25  27
ENDBRANCH   9  24
TORSDOF 8
ENDMDL
MODEL 3
REMARK VINA RESULT: -6.900169123      2.626      4.266
REMARK  8 active torsions:
REMARK  status: ('A' for Active; 'I' for Inactive)
REMARK    1  A    between atoms: C2_2  and  C3_3 
REMARK    2  A    between atoms: C3_3  and  N1_4 
REMARK    3  A    between atoms: N1_4  and  C4_5 
REMARK    4  A    between atoms: C4_5  and  C5_6 
REMARK    5  A    between atoms: C13_14  and  N2_15 
REMARK    6  A    between atoms: C14_17  and  C15_18 
REMARK    7  A    between atoms: C15_18  and  C16_19 
REMARK    8  A    between atoms: C18_26  and  C19_27 
ROOT
HETATM    1  C5  UNL     1      17.408 -15.679  22.369  1.00  0.00     0.039 C 
HETATM    2  C6  UNL     1      17.388 -17.088  21.853  1.00  0.00    -0.007 C 
HETATM    3  C7  UNL     1      16.208 -17.811  22.461  1.00  0.00     0.005 C 
HETATM    4  C8  UNL     1      16.534 -18.600  23.684  1.00  0.00     0.001 C 
HETATM    5  C9  UNL     1      17.088 -17.759  24.806  1.00  0.00     0.007 C 
HETATM    6  C10 UNL     1      18.292 -16.949  24.372  1.00  0.00     0.009 C 
HETATM    7  C11 UNL     1      19.184 -17.751  23.500  1.00  0.00     0.007 C 
HETATM    8  C12 UNL     1      18.674 -17.843  22.111  1.00  0.00     0.005 C 
HETATM    9  C13 UNL     1      17.903 -15.611  23.809  1.00  0.00     0.090 C 
ENDROOT
BRANCH   1  10
HETATM   10  C4  UNL     1      18.147 -14.796  21.460  1.00  0.00     0.247 C 
BRANCH  10  11
HETATM   11  N1  UNL     1      17.556 -13.860  20.632  1.00  0.00    -0.037 N 
HETATM   12  C17 UNL     1      17.147 -12.672  21.423  1.00  0.00     0.469 C 
HETATM   13  N4  UNL     1      16.240 -11.936  20.608  1.00  0.00    -0.035 N 
HETATM   14  C18 UNL     1      15.400 -13.018  20.095  1.00  0.00     0.313 C 
ATOM     15  H42 UNL     1      15.744 -11.176  21.074  1.00  0.00     0.280 HD
ATOM     16  H41 UNL     1      16.668 -11.338  19.901  1.00  0.00     0.280 HD
HETATM   17  C20 UNL     1      16.395 -14.145  19.898  1.00  0.00     0.284 C 
BRANCH  11  18
HETATM   18  C3  UNL     1      18.537 -13.308  19.692  1.00  0.00     0.266 C 
BRANCH  18  19
HETATM   19  C2  UNL     1      19.922 -13.693  19.990  1.00  0.00    -0.009 C 
HETATM   20  C1  UNL     1      20.878 -12.787  19.964  1.00  0.00     0.008 C 
ENDBRANCH  18  19
ENDBRANCH  11  18
BRANCH  14  21
HETATM   21  C19 UNL     1      14.669 -12.645  18.887  1.00  0.00     0.206 C 
HETATM   22  O2  UNL     1      14.787 -13.276  17.799  1.00  0.00    -0.646 OA
HETATM   23  O3  UNL     1      13.810 -11.564  18.911  1.00  0.00    -0.646 OA
ENDBRANCH  14  21
ENDBRANCH  10  11
ENDBRANCH   1  10
BRANCH   9  24
HETATM   24  N2  UNL     1      19.003 -14.705  23.969  1.00  0.00    -0.396 N 
HETATM   25  C14 UNL     1      19.656 -14.606  25.075  1.00  0.00     0.064 C 
ATOM     26  H2  UNL     1      19.277 -14.119  23.181  1.00  0.00     0.159 HD
BRANCH  25  27
HETATM   27  C15 UNL     1      20.782 -13.702  25.293  1.00  0.00     0.143 C 
BRANCH  27  28
HETATM   28  C16 UNL     1      21.944 -14.260  24.517  1.00  0.00     0.235 C 
HETATM   29  N3  UNL     1      21.799 -14.751  23.195  1.00  0.00    -0.062 NA
HETATM   30  O1  UNL     1      23.058 -14.272  25.101  1.00  0.00    -0.277 OA
ENDBRANCH  27  28
ENDBRANCH  25  27
ENDBRANCH   9  24
TORSDOF 8
ENDMDL
MODEL 4
REMARK VINA RESULT: -6.895087321      2.833      3.859
REMARK  8 active torsions:
REMARK  status: ('A' for Active; 'I' for Inactive)
REMARK    1  A    between atoms: C2_2  and  C3_3 
REMARK    2  A    between atoms: C3_3  and  N1_4 
REMARK    3  A    between atoms: N1_4  and  C4_5 
REMARK    4  A    between atoms: C4_5  and  C5_6 
REMARK    5  A    between atoms: C13_14  and  N2_15 
REMARK    6  A    between atoms: C14_17  and  C15_18 
REMARK    7  A    between atoms: C15_18  and  C16_19 
REMARK    8  A    between atoms: C18_26  and  C19_27 
ROOT
HETATM    1  C5  UNL     1      20.009 -14.706  23.440  1.00  0.00     0.039 C 
HETATM    2  C6  UNL     1      19.574 -14.293  24.816  1.00  0.00    -0.007 C 
HETATM    3  C7  UNL     1      20.731 -13.606  25.505  1.00  0.00     0.005 C 
HETATM    4  C8  UNL     1      21.547 -14.500  26.375  1.00  0.00     0.001 C 
HETATM    5  C9  UNL     1      22.175 -15.649  25.628  1.00  0.00     0.007 C 
HETATM    6  C10 UNL     1      21.150 -16.461  24.863  1.00  0.00     0.009 C 
HETATM    7  C11 UNL     1      19.916 -16.647  25.665  1.00  0.00     0.007 C 
HETATM    8  C12 UNL     1      19.054 -15.441  25.654  1.00  0.00     0.005 C 
HETATM    9  C13 UNL     1      20.921 -15.926  23.478  1.00  0.00     0.090 C 
ENDROOT
BRANCH   1  10
HETATM   10  C4  UNL     1      18.853 -14.873  22.551  1.00  0.00     0.247 C 
BRANCH  10  11
HETATM   11  N1  UNL     1      18.529 -14.006  21.525  1.00  0.00    -0.037 N 
HETATM   12  C17 UNL     1      17.618 -12.946  22.026  1.00  0.00     0.469 C 
HETATM   13  N4  UNL     1      17.044 -12.330  20.878  1.00  0.00    -0.035 N 
HETATM   14  C18 UNL     1      16.711 -13.508  20.077  1.00  0.00     0.313 C 
ATOM     15  H42 UNL     1      16.272 -11.689  21.061  1.00  0.00     0.280 HD
ATOM     16  H41 UNL     1      17.627 -11.632  20.414  1.00  0.00     0.280 HD
HETATM   17  C20 UNL     1      17.871 -14.441  20.364  1.00  0.00     0.284 C 
BRANCH  11  18
HETATM   18  C3  UNL     1      19.710 -13.250  21.094  1.00  0.00     0.266 C 
BRANCH  18  19
HETATM   19  C2  UNL     1      20.309 -13.749  19.851  1.00  0.00    -0.009 C 
HETATM   20  C1  UNL     1      20.617 -12.908  18.884  1.00  0.00     0.008 C 
ENDBRANCH  18  19
ENDBRANCH  11  18
BRANCH  14  21
HETATM   21  C19 UNL     1      16.526 -13.199  18.662  1.00  0.00     0.206 C 
HETATM   22  O2  UNL     1      16.734 -12.048  18.184  1.00  0.00    -0.646 OA
HETATM   23  O3  UNL     1      16.107 -14.187  17.794  1.00  0.00    -0.646 OA
ENDBRANCH  14  21
ENDBRANCH  10  11
ENDBRANCH   1  10
BRANCH   9  24
HETATM   24  N2  UNL     1      20.447 -16.991  22.644  1.00  0.00    -0.396 N 
HETATM   25  C14 UNL     1      20.955 -18.174  22.685  1.00  0.00     0.064 C 
ATOM     26  H2  UNL     1      19.682 -16.806  21.995  1.00  0.00     0.159 HD
BRANCH  25  27
HETATM   27  C15 UNL     1      20.512 -19.295  21.860  1.00  0.00     0.143 C 
BRANCH  27  28
HETATM   28  C16 UNL     1      21.523 -19.448  20.756  1.00  0.00     0.235 C 
HETATM   29  N3  UNL     1      21.645 -20.647  20.010  1.00  0.00    -0.062 NA
HETATM   30  O1  UNL     1      22.260 -18.456  20.525  1.00  0.00    -0.277 OA
ENDBRANCH  27  28
ENDBRANCH  25  27
ENDBRANCH   9  24
TORSDOF 8
ENDMDL
MODEL 5
REMARK VINA RESULT: -6.894417383      1.436      1.971
REMARK  8 active torsions:
REMARK  status: ('A' for Active; 'I' for Inactive)
REMARK    1  A    between atoms: C2_2  and  C3_3 
REMARK    2  A    between atoms: C3_3  and  N1_4 
REMARK    3  A    between atoms: N1_4  and  C4_5 
REMARK    4  A    between atoms: C4_5  and  C5_6 
REMARK    5  A    between atoms: C13_14  and  N2_15 
REMARK    6  A    between atoms: C14_17  and  C15_18 
REMARK    7  A    between atoms: C15_18  and  C16_19 
REMARK    8  A    between atoms: C18_26  and  C19_27 
ROOT
HETATM    1  C5  UNL     1      17.585 -15.812  21.618  1.00  0.00     0.039 C 
HETATM    2  C6  UNL     1      18.745 -16.207  22.484  1.00  0.00    -0.007 C 
HETATM    3  C7  UNL     1      19.499 -17.326  21.805  1.00  0.00     0.005 C 
HETATM    4  C8  UNL     1      19.107 -18.693  22.255  1.00  0.00     0.001 C 
HETATM    5  C9  UNL     1      17.653 -19.007  22.011  1.00  0.00     0.007 C 
HETATM    6  C10 UNL     1      16.734 -17.972  22.626  1.00  0.00     0.009 C 
HETATM    7  C11 UNL     1      17.218 -17.565  23.968  1.00  0.00     0.007 C 
HETATM    8  C12 UNL     1      18.343 -16.602  23.888  1.00  0.00     0.005 C 
HETATM    9  C13 UNL     1      16.455 -16.832  21.689  1.00  0.00     0.090 C 
ENDROOT
BRANCH   1  10
HETATM   10  C4  UNL     1      17.149 -14.442  21.914  1.00  0.00     0.247 C 
BRANCH  10  11
HETATM   11  N1  UNL     1      17.027 -13.443  20.967  1.00  0.00    -0.037 N 
HETATM   12  C17 UNL     1      16.027 -12.442  21.415  1.00  0.00     0.469 C 
HETATM   13  N4  UNL     1      15.685 -11.670  20.267  1.00  0.00    -0.035 N 
HETATM   14  C18 UNL     1      15.526 -12.727  19.269  1.00  0.00     0.313 C 
ATOM     15  H42 UNL     1      14.886 -11.045  20.378  1.00  0.00     0.280 HD
ATOM     16  H41 UNL     1      16.341 -10.929  20.024  1.00  0.00     0.280 HD
HETATM   17  C20 UNL     1      16.614 -13.711  19.653  1.00  0.00     0.284 C 
BRANCH  11  18
HETATM   18  C3  UNL     1      18.263 -12.658  20.880  1.00  0.00     0.266 C 
BRANCH  18  19
HETATM   19  C2  UNL     1      19.187 -13.125  19.840  1.00  0.00    -0.009 C 
HETATM   20  C1  UNL     1      20.467 -13.274  20.114  1.00  0.00     0.008 C 
ENDBRANCH  18  19
ENDBRANCH  11  18
BRANCH  14  21
HETATM   21  C19 UNL     1      15.621 -12.232  17.899  1.00  0.00     0.206 C 
HETATM   22  O2  UNL     1      16.727 -11.997  17.335  1.00  0.00    -0.646 OA
HETATM   23  O3  UNL     1      14.470 -12.005  17.170  1.00  0.00    -0.646 OA
ENDBRANCH  14  21
ENDBRANCH  10  11
ENDBRANCH   1  10
BRANCH   9  24
HETATM   24  N2  UNL     1      15.200 -16.237  22.046  1.00  0.00    -0.396 N 
HETATM   25  C14 UNL     1      14.076 -16.690  21.609  1.00  0.00     0.064 C 
ATOM     26  H2  UNL     1      15.197 -15.427  22.666  1.00  0.00     0.159 HD
BRANCH  25  27
HETATM   27  C15 UNL     1      12.771 -16.125  21.940  1.00  0.00     0.143 C 
BRANCH  27  28
HETATM   28  C16 UNL     1      12.807 -14.677  21.528  1.00  0.00     0.235 C 
HETATM   29  N3  UNL     1      12.328 -14.242  20.267  1.00  0.00    -0.062 NA
HETATM   30  O1  UNL     1      13.287 -13.866  22.361  1.00  0.00    -0.277 OA
ENDBRANCH  27  28
ENDBRANCH  25  27
ENDBRANCH   9  24
TORSDOF 8
ENDMDL
