MODEL 1
REMARK VINA RESULT: -6.670219121      0.000      0.000
REMARK  11 active torsions:
REMARK  status: ('A' for Active; 'I' for Inactive)
REMARK    1  A    between atoms: C2_2  and  C3_3 
REMARK    2  A    between atoms: C3_3  and  N1_4 
REMARK       I    between atoms: N1_4  and  C4_6 
REMARK    3  A    between atoms: C4_6  and  C5_8 
REMARK    4  A    between atoms: C5_8  and  C6_9 
REMARK    5  A    between atoms: C6_9  and  C7_10 
REMARK    6  A    between atoms: C7_10  and  C8_11 
REMARK    7  A    between atoms: C8_11  and  N2_12 
REMARK       I    between atoms: N2_12  and  C9_14 
REMARK       I    between atoms: C9_14  and  N3_16 
REMARK    8  A    between atoms: N3_16  and  N4_18 
REMARK    9  A    between atoms: N4_18  and  N5_19 
REMARK       I    between atoms: N6_22  and  C10_24 
REMARK   10  A    between atoms: C10_24  and  C11_26 
REMARK   11  A    between atoms: C11_26  and  C13_28 
REMARK       I    between atoms: C13_28  and  N7_30 
ROOT
HETATM    1  C5  UNL     1      19.270 -15.037  21.951  1.00  0.00     0.080 C 
HETATM    2  N6  UNL     1      18.504 -15.853  21.332  1.00  0.00    -0.325 N 
ATOM      3  H6  UNL     1      18.435 -15.728  20.322  1.00  0.00     0.168 HD
HETATM    4  C10 UNL     1      17.748 -16.902  21.882  1.00  0.00     0.234 C 
HETATM    5  O3  UNL     1      18.247 -18.062  22.091  1.00  0.00    -0.272 OA
ENDROOT
BRANCH   1   6
HETATM    6  C4  UNL     1      19.454 -15.109  23.381  1.00  0.00     0.264 C 
HETATM    7  N1  UNL     1      20.607 -15.658  24.008  1.00  0.00    -0.353 N 
ATOM      8  H1  UNL     1      21.370 -16.021  23.438  1.00  0.00     0.163 HD
HETATM    9  O1  UNL     1      18.525 -14.655  24.142  1.00  0.00    -0.266 OA
BRANCH   7  10
HETATM   10  C3  UNL     1      20.701 -15.703  25.436  1.00  0.00     0.149 C 
BRANCH  10  11
HETATM   11  C2  UNL     1      21.454 -14.611  26.063  1.00  0.00    -0.018 C 
HETATM   12  C1  UNL     1      20.981 -13.589  26.736  1.00  0.00     0.008 C 
ENDBRANCH  10  11
ENDBRANCH   7  10
ENDBRANCH   1   6
BRANCH   1  13
HETATM   13  C6  UNL     1      20.017 -14.045  21.157  1.00  0.00     0.064 C 
BRANCH  13  14
HETATM   14  C7  UNL     1      19.135 -12.912  20.761  1.00  0.00     0.026 C 
BRANCH  14  15
HETATM   15  C8  UNL     1      18.500 -13.118  19.406  1.00  0.00     0.125 C 
BRANCH  15  16
HETATM   16  N2  UNL     1      17.070 -13.198  19.467  1.00  0.00    -0.341 N 
HETATM   17  C9  UNL     1      16.301 -12.583  18.452  1.00  0.00     0.346 C 
HETATM   18  O2  UNL     1      16.904 -11.983  17.526  1.00  0.00    -0.245 OA
HETATM   19  N3  UNL     1      14.874 -12.617  18.440  1.00  0.00    -0.165 N 
ATOM     20  H3  UNL     1      14.360 -13.249  17.825  1.00  0.00     0.209 HD
ATOM     21  H2  UNL     1      16.613 -13.692  20.233  1.00  0.00     0.164 HD
BRANCH  19  22
HETATM   22  N4  UNL     1      14.290 -11.845  19.212  1.00  0.00    -0.239 NA
BRANCH  22  23
HETATM   23  N5  UNL     1      13.406 -11.189  19.772  1.00  0.00    -0.260 N 
ATOM     24  H52 UNL     1      12.787 -11.983  19.937  1.00  0.00     0.193 HD
ATOM     25  H51 UNL     1      12.881 -10.413  20.175  1.00  0.00     0.193 HD
ENDBRANCH  22  23
ENDBRANCH  19  22
ENDBRANCH  15  16
ENDBRANCH  14  15
ENDBRANCH  13  14
ENDBRANCH   1  13
BRANCH   4  26
HETATM   26  C11 UNL     1      16.324 -16.723  22.255  1.00  0.00     0.166 C 
HETATM   27  C12 UNL     1      15.709 -18.076  22.501  1.00  0.00     0.030 C 
BRANCH  26  28
HETATM   28  C13 UNL     1      15.587 -16.036  21.134  1.00  0.00     0.236 C 
HETATM   29  O4  UNL     1      15.955 -16.142  19.935  1.00  0.00    -0.272 OA
HETATM   30  N7  UNL     1      14.450 -15.252  21.471  1.00  0.00    -0.303 N 
HETATM   31  C14 UNL     1      14.626 -14.071  21.976  1.00  0.00     0.203 C 
ATOM     32  H7  UNL     1      13.509 -15.614  21.318  1.00  0.00     0.171 HD
HETATM   33  N8  UNL     1      15.947 -13.566  22.190  1.00  0.00    -0.066 NA
HETATM   34  N9  UNL     1      13.551 -13.232  22.338  1.00  0.00    -0.066 NA
ENDBRANCH  26  28
ENDBRANCH   4  26
TORSDOF 11
ENDMDL
MODEL 2
REMARK VINA RESULT: -6.625871948      2.784      5.171
REMARK  11 active torsions:
REMARK  status: ('A' for Active; 'I' for Inactive)
REMARK    1  A    between atoms: C2_2  and  C3_3 
REMARK    2  A    between atoms: C3_3  and  N1_4 
REMARK       I    between atoms: N1_4  and  C4_6 
REMARK    3  A    between atoms: C4_6  and  C5_8 
REMARK    4  A    between atoms: C5_8  and  C6_9 
REMARK    5  A    between atoms: C6_9  and  C7_10 
REMARK    6  A    between atoms: C7_10  and  C8_11 
REMARK    7  A    between atoms: C8_11  and  N2_12 
REMARK       I    between atoms: N2_12  and  C9_14 
REMARK       I    between atoms: C9_14  and  N3_16 
REMARK    8  A    between atoms: N3_16  and  N4_18 
REMARK    9  A    between atoms: N4_18  and  N5_19 
REMARK       I    between atoms: N6_22  and  C10_24 
REMARK   10  A    between atoms: C10_24  and  C11_26 
REMARK   11  A    between atoms: C11_26  and  C13_28 
REMARK       I    between atoms: C13_28  and  N7_30 
ROOT
HETATM    1  C5  UNL     1      15.556 -13.118  20.220  1.00  0.00     0.080 C 
HETATM    2  N6  UNL     1      14.955 -14.245  20.151  1.00  0.00    -0.325 N 
ATOM      3  H6  UNL     1      14.051 -14.303  20.619  1.00  0.00     0.168 HD
HETATM    4  C10 UNL     1      15.397 -15.412  19.504  1.00  0.00     0.234 C 
HETATM    5  O3  UNL     1      15.196 -15.614  18.256  1.00  0.00    -0.272 OA
ENDROOT
BRANCH   1   6
HETATM    6  C4  UNL     1      16.841 -12.906  19.599  1.00  0.00     0.264 C 
HETATM    7  N1  UNL     1      18.073 -13.364  20.143  1.00  0.00    -0.353 N 
ATOM      8  H1  UNL     1      18.078 -13.885  21.019  1.00  0.00     0.163 HD
HETATM    9  O1  UNL     1      16.887 -12.264  18.488  1.00  0.00    -0.266 OA
BRANCH   7  10
HETATM   10  C3  UNL     1      19.306 -13.098  19.466  1.00  0.00     0.149 C 
BRANCH  10  11
HETATM   11  C2  UNL     1      20.527 -13.321  20.248  1.00  0.00    -0.018 C 
HETATM   12  C1  UNL     1      20.644 -13.934  21.402  1.00  0.00     0.008 C 
ENDBRANCH  10  11
ENDBRANCH   7  10
ENDBRANCH   1   6
BRANCH   1  13
HETATM   13  C6  UNL     1      14.873 -12.007  20.906  1.00  0.00     0.064 C 
BRANCH  13  14
HETATM   14  C7  UNL     1      13.594 -11.670  20.222  1.00  0.00     0.026 C 
BRANCH  14  15
HETATM   15  C8  UNL     1      12.965 -10.406  20.760  1.00  0.00     0.125 C 
BRANCH  15  16
HETATM   16  N2  UNL     1      11.931 -10.663  21.719  1.00  0.00    -0.341 N 
HETATM   17  C9  UNL     1      12.146 -10.320  23.074  1.00  0.00     0.346 C 
HETATM   18  O2  UNL     1      13.245  -9.799  23.391  1.00  0.00    -0.245 OA
HETATM   19  N3  UNL     1      11.167 -10.542  24.088  1.00  0.00    -0.165 N 
ATOM     20  H3  UNL     1      10.593  -9.782  24.453  1.00  0.00     0.209 HD
ATOM     21  H2  UNL     1      11.051 -11.088  21.427  1.00  0.00     0.164 HD
BRANCH  19  22
HETATM   22  N4  UNL     1      11.048 -11.703  24.505  1.00  0.00    -0.239 NA
BRANCH  22  23
HETATM   23  N5  UNL     1      10.699 -12.883  24.611  1.00  0.00    -0.260 N 
ATOM     24  H52 UNL     1       9.867 -12.791  24.029  1.00  0.00     0.193 HD
ATOM     25  H51 UNL     1      10.675 -13.868  24.877  1.00  0.00     0.193 HD
ENDBRANCH  22  23
ENDBRANCH  19  22
ENDBRANCH  15  16
ENDBRANCH  14  15
ENDBRANCH  13  14
ENDBRANCH   1  13
BRANCH   4  26
HETATM   26  C11 UNL     1      16.125 -16.478  20.233  1.00  0.00     0.166 C 
HETATM   27  C12 UNL     1      15.947 -17.782  19.499  1.00  0.00     0.030 C 
BRANCH  26  28
HETATM   28  C13 UNL     1      15.571 -16.610  21.628  1.00  0.00     0.236 C 
HETATM   29  O4  UNL     1      14.358 -16.395  21.883  1.00  0.00    -0.272 OA
HETATM   30  N7  UNL     1      16.468 -16.989  22.664  1.00  0.00    -0.303 N 
HETATM   31  C14 UNL     1      17.278 -16.101  23.153  1.00  0.00     0.203 C 
ATOM     32  H7  UNL     1      16.475 -17.946  23.018  1.00  0.00     0.171 HD
HETATM   33  N8  UNL     1      17.265 -14.761  22.655  1.00  0.00    -0.066 NA
HETATM   34  N9  UNL     1      18.198 -16.397  24.181  1.00  0.00    -0.066 NA
ENDBRANCH  26  28
ENDBRANCH   4  26
TORSDOF 11
ENDMDL
MODEL 3
REMARK VINA RESULT: -6.533273951      2.255      5.338
REMARK  11 active torsions:
REMARK  status: ('A' for Active; 'I' for Inactive)
REMARK    1  A    between atoms: C2_2  and  C3_3 
REMARK    2  A    between atoms: C3_3  and  N1_4 
REMARK       I    between atoms: N1_4  and  C4_6 
REMARK    3  A    between atoms: C4_6  and  C5_8 
REMARK    4  A    between atoms: C5_8  and  C6_9 
REMARK    5  A    between atoms: C6_9  and  C7_10 
REMARK    6  A    between atoms: C7_10  and  C8_11 
REMARK    7  A    between atoms: C8_11  and  N2_12 
REMARK       I    between atoms: N2_12  and  C9_14 
REMARK       I    between atoms: C9_14  and  N3_16 
REMARK    8  A    between atoms: N3_16  and  N4_18 
REMARK    9  A    between atoms: N4_18  and  N5_19 
REMARK       I    between atoms: N6_22  and  C10_24 
REMARK   10  A    between atoms: C10_24  and  C11_26 
REMARK   11  A    between atoms: C11_26  and  C13_28 
REMARK       I    between atoms: C13_28  and  N7_30 
ROOT
HETATM    1  C5  UNL     1      20.191 -14.637  22.213  1.00  0.00     0.080 C 
HETATM    2  N6  UNL     1      21.082 -14.230  23.037  1.00  0.00    -0.325 N 
ATOM      3  H6  UNL     1      21.907 -13.793  22.627  1.00  0.00     0.168 HD
HETATM    4  C10 UNL     1      21.054 -14.316  24.439  1.00  0.00     0.234 C 
HETATM    5  O3  UNL     1      20.472 -13.435  25.162  1.00  0.00    -0.272 OA
ENDROOT
BRANCH   1   6
HETATM    6  C4  UNL     1      18.977 -15.273  22.666  1.00  0.00     0.264 C 
HETATM    7  N1  UNL     1      18.878 -16.651  23.001  1.00  0.00    -0.353 N 
ATOM      8  H1  UNL     1      19.702 -17.249  22.938  1.00  0.00     0.163 HD
HETATM    9  O1  UNL     1      17.915 -14.560  22.772  1.00  0.00    -0.266 OA
BRANCH   7  10
HETATM   10  C3  UNL     1      17.629 -17.204  23.429  1.00  0.00     0.149 C 
BRANCH  10  11
HETATM   11  C2  UNL     1      17.457 -17.356  24.877  1.00  0.00    -0.018 C 
HETATM   12  C1  UNL     1      17.866 -16.548  25.826  1.00  0.00     0.008 C 
ENDBRANCH  10  11
ENDBRANCH   7  10
ENDBRANCH   1   6
BRANCH   1  13
HETATM   13  C6  UNL     1      20.406 -14.387  20.777  1.00  0.00     0.064 C 
BRANCH  13  14
HETATM   14  C7  UNL     1      19.843 -13.068  20.379  1.00  0.00     0.026 C 
BRANCH  14  15
HETATM   15  C8  UNL     1      18.677 -13.198  19.427  1.00  0.00     0.125 C 
BRANCH  15  16
HETATM   16  N2  UNL     1      17.409 -13.028  20.073  1.00  0.00    -0.341 N 
HETATM   17  C9  UNL     1      16.336 -12.461  19.347  1.00  0.00     0.346 C 
HETATM   18  O2  UNL     1      16.535 -12.124  18.153  1.00  0.00    -0.245 OA
HETATM   19  N3  UNL     1      15.043 -12.260  19.916  1.00  0.00    -0.165 N 
ATOM     20  H3  UNL     1      14.264 -12.885  19.709  1.00  0.00     0.209 HD
ATOM     21  H2  UNL     1      17.282 -13.313  21.044  1.00  0.00     0.164 HD
BRANCH  19  22
HETATM   22  N4  UNL     1      14.912 -11.289  20.674  1.00  0.00    -0.239 NA
BRANCH  22  23
HETATM   23  N5  UNL     1      14.482 -10.255  21.196  1.00  0.00    -0.260 N 
ATOM     24  H52 UNL     1      13.567 -10.638  21.431  1.00  0.00     0.193 HD
ATOM     25  H51 UNL     1      14.418  -9.298  21.545  1.00  0.00     0.193 HD
ENDBRANCH  22  23
ENDBRANCH  19  22
ENDBRANCH  15  16
ENDBRANCH  14  15
ENDBRANCH  13  14
ENDBRANCH   1  13
BRANCH   4  26
HETATM   26  C11 UNL     1      21.699 -15.438  25.163  1.00  0.00     0.166 C 
HETATM   27  C12 UNL     1      21.953 -15.019  26.587  1.00  0.00     0.030 C 
BRANCH  26  28
HETATM   28  C13 UNL     1      23.009 -15.784  24.503  1.00  0.00     0.236 C 
HETATM   29  O4  UNL     1      23.702 -14.918  23.909  1.00  0.00    -0.272 OA
HETATM   30  N7  UNL     1      23.447 -17.135  24.567  1.00  0.00    -0.303 N 
HETATM   31  C14 UNL     1      22.907 -18.011  23.778  1.00  0.00     0.203 C 
ATOM     32  H7  UNL     1      24.177 -17.411  25.225  1.00  0.00     0.171 HD
HETATM   33  N8  UNL     1      21.885 -17.621  22.858  1.00  0.00    -0.066 NA
HETATM   34  N9  UNL     1      23.285 -19.371  23.781  1.00  0.00    -0.066 NA
ENDBRANCH  26  28
ENDBRANCH   4  26
TORSDOF 11
ENDMDL
MODEL 4
REMARK VINA RESULT: -6.379815311      2.208      4.795
REMARK  11 active torsions:
REMARK  status: ('A' for Active; 'I' for Inactive)
REMARK    1  A    between atoms: C2_2  and  C3_3 
REMARK    2  A    between atoms: C3_3  and  N1_4 
REMARK       I    between atoms: N1_4  and  C4_6 
REMARK    3  A    between atoms: C4_6  and  C5_8 
REMARK    4  A    between atoms: C5_8  and  C6_9 
REMARK    5  A    between atoms: C6_9  and  C7_10 
REMARK    6  A    between atoms: C7_10  and  C8_11 
REMARK    7  A    between atoms: C8_11  and  N2_12 
REMARK       I    between atoms: N2_12  and  C9_14 
REMARK       I    between atoms: C9_14  and  N3_16 
REMARK    8  A    between atoms: N3_16  and  N4_18 
REMARK    9  A    between atoms: N4_18  and  N5_19 
REMARK       I    between atoms: N6_22  and  C10_24 
REMARK   10  A    between atoms: C10_24  and  C11_26 
REMARK   11  A    between atoms: C11_26  and  C13_28 
REMARK       I    between atoms: C13_28  and  N7_30 
ROOT
HETATM    1  C5  UNL     1      16.865 -14.188  21.027  1.00  0.00     0.080 C 
HETATM    2  N6  UNL     1      15.700 -14.264  20.505  1.00  0.00    -0.325 N 
ATOM      3  H6  UNL     1      15.421 -13.485  19.909  1.00  0.00     0.168 HD
HETATM    4  C10 UNL     1      14.761 -15.298  20.657  1.00  0.00     0.234 C 
HETATM    5  O3  UNL     1      14.783 -16.349  19.927  1.00  0.00    -0.272 OA
ENDROOT
BRANCH   1   6
HETATM    6  C4  UNL     1      17.378 -15.226  21.889  1.00  0.00     0.264 C 
HETATM    7  N1  UNL     1      17.327 -15.179  23.309  1.00  0.00    -0.353 N 
ATOM      8  H1  UNL     1      16.899 -14.379  23.775  1.00  0.00     0.163 HD
HETATM    9  O1  UNL     1      17.918 -16.259  21.349  1.00  0.00    -0.266 OA
BRANCH   7  10
HETATM   10  C3  UNL     1      17.873 -16.248  24.089  1.00  0.00     0.149 C 
BRANCH  10  11
HETATM   11  C2  UNL     1      18.182 -15.928  25.486  1.00  0.00    -0.018 C 
HETATM   12  C1  UNL     1      19.265 -15.362  25.963  1.00  0.00     0.008 C 
ENDBRANCH  10  11
ENDBRANCH   7  10
ENDBRANCH   1   6
BRANCH   1  13
HETATM   13  C6  UNL     1      17.708 -13.030  20.679  1.00  0.00     0.064 C 
BRANCH  13  14
HETATM   14  C7  UNL     1      18.966 -13.472  20.016  1.00  0.00     0.026 C 
BRANCH  14  15
HETATM   15  C8  UNL     1      20.201 -12.923  20.692  1.00  0.00     0.125 C 
BRANCH  15  16
HETATM   16  N2  UNL     1      21.030 -13.949  21.255  1.00  0.00    -0.341 N 
HETATM   17  C9  UNL     1      20.893 -14.272  22.625  1.00  0.00     0.346 C 
HETATM   18  O2  UNL     1      20.043 -13.642  23.305  1.00  0.00    -0.245 OA
HETATM   19  N3  UNL     1      21.679 -15.279  23.260  1.00  0.00    -0.165 N 
ATOM     20  H3  UNL     1      21.299 -16.204  23.465  1.00  0.00     0.209 HD
ATOM     21  H2  UNL     1      21.710 -14.439  20.674  1.00  0.00     0.164 HD
BRANCH  19  22
HETATM   22  N4  UNL     1      22.844 -14.978  23.551  1.00  0.00    -0.239 NA
BRANCH  22  23
HETATM   23  N5  UNL     1      23.942 -14.411  23.569  1.00  0.00    -0.260 N 
ATOM     24  H52 UNL     1      24.144 -14.559  22.581  1.00  0.00     0.193 HD
ATOM     25  H51 UNL     1      24.768 -13.905  23.890  1.00  0.00     0.193 HD
ENDBRANCH  22  23
ENDBRANCH  19  22
ENDBRANCH  15  16
ENDBRANCH  14  15
ENDBRANCH  13  14
ENDBRANCH   1  13
BRANCH   4  26
HETATM   26  C11 UNL     1      13.686 -15.230  21.677  1.00  0.00     0.166 C 
HETATM   27  C12 UNL     1      13.125 -16.612  21.890  1.00  0.00     0.030 C 
BRANCH  26  28
HETATM   28  C13 UNL     1      12.589 -14.313  21.200  1.00  0.00     0.236 C 
HETATM   29  O4  UNL     1      12.222 -14.287  19.998  1.00  0.00    -0.272 OA
HETATM   30  N7  UNL     1      11.973 -13.463  22.159  1.00  0.00    -0.303 N 
HETATM   31  C14 UNL     1      12.594 -12.392  22.545  1.00  0.00     0.203 C 
ATOM     32  H7  UNL     1      11.054 -13.693  22.538  1.00  0.00     0.171 HD
HETATM   33  N8  UNL     1      13.882 -12.073  22.012  1.00  0.00    -0.066 NA
HETATM   34  N9  UNL     1      12.052 -11.499  23.493  1.00  0.00    -0.066 NA
ENDBRANCH  26  28
ENDBRANCH   4  26
TORSDOF 11
ENDMDL
MODEL 5
REMARK VINA RESULT: -6.370997409      1.864      2.375
REMARK  11 active torsions:
REMARK  status: ('A' for Active; 'I' for Inactive)
REMARK    1  A    between atoms: C2_2  and  C3_3 
REMARK    2  A    between atoms: C3_3  and  N1_4 
REMARK       I    between atoms: N1_4  and  C4_6 
REMARK    3  A    between atoms: C4_6  and  C5_8 
REMARK    4  A    between atoms: C5_8  and  C6_9 
REMARK    5  A    between atoms: C6_9  and  C7_10 
REMARK    6  A    between atoms: C7_10  and  C8_11 
REMARK    7  A    between atoms: C8_11  and  N2_12 
REMARK       I    between atoms: N2_12  and  C9_14 
REMARK       I    between atoms: C9_14  and  N3_16 
REMARK    8  A    between atoms: N3_16  and  N4_18 
REMARK    9  A    between atoms: N4_18  and  N5_19 
REMARK       I    between atoms: N6_22  and  C10_24 
REMARK   10  A    between atoms: C10_24  and  C11_26 
REMARK   11  A    between atoms: C11_26  and  C13_28 
REMARK       I    between atoms: C13_28  and  N7_30 
ROOT
HETATM    1  C5  UNL     1      17.455 -15.651  21.212  1.00  0.00     0.080 C 
HETATM    2  N6  UNL     1      16.386 -15.765  20.518  1.00  0.00    -0.325 N 
ATOM      3  H6  UNL     1      16.293 -15.130  19.725  1.00  0.00     0.168 HD
HETATM    4  C10 UNL     1      15.326 -16.664  20.723  1.00  0.00     0.234 C 
HETATM    5  O3  UNL     1      15.347 -17.857  20.259  1.00  0.00    -0.272 OA
ENDROOT
BRANCH   1   6
HETATM    6  C4  UNL     1      17.706 -16.490  22.359  1.00  0.00     0.264 C 
HETATM    7  N1  UNL     1      17.192 -16.234  23.660  1.00  0.00    -0.353 N 
ATOM      8  H1  UNL     1      16.598 -15.421  23.820  1.00  0.00     0.163 HD
HETATM    9  O1  UNL     1      18.441 -17.532  22.206  1.00  0.00    -0.266 OA
BRANCH   7  10
HETATM   10  C3  UNL     1      17.503 -17.112  24.746  1.00  0.00     0.149 C 
BRANCH  10  11
HETATM   11  C2  UNL     1      18.528 -16.637  25.681  1.00  0.00    -0.018 C 
HETATM   12  C1  UNL     1      19.209 -15.517  25.628  1.00  0.00     0.008 C 
ENDBRANCH  10  11
ENDBRANCH   7  10
ENDBRANCH   1   6
BRANCH   1  13
HETATM   13  C6  UNL     1      18.465 -14.671  20.775  1.00  0.00     0.064 C 
BRANCH  13  14
HETATM   14  C7  UNL     1      18.484 -13.489  21.681  1.00  0.00     0.026 C 
BRANCH  14  15
HETATM   15  C8  UNL     1      17.887 -12.258  21.042  1.00  0.00     0.125 C 
BRANCH  15  16
HETATM   16  N2  UNL     1      16.467 -12.354  20.867  1.00  0.00    -0.341 N 
HETATM   17  C9  UNL     1      15.924 -12.258  19.564  1.00  0.00     0.346 C 
HETATM   18  O2  UNL     1      16.713 -12.090  18.600  1.00  0.00    -0.245 OA
HETATM   19  N3  UNL     1      14.524 -12.343  19.307  1.00  0.00    -0.165 N 
ATOM     20  H3  UNL     1      14.099 -13.194  18.936  1.00  0.00     0.209 HD
ATOM     21  H2  UNL     1      15.856 -12.489  21.672  1.00  0.00     0.164 HD
BRANCH  19  22
HETATM   22  N4  UNL     1      13.847 -11.336  19.554  1.00  0.00    -0.239 NA
BRANCH  22  23
HETATM   23  N5  UNL     1      13.201 -10.473  20.158  1.00  0.00    -0.260 N 
ATOM     24  H52 UNL     1      13.350  -9.739  19.466  1.00  0.00     0.193 HD
ATOM     25  H51 UNL     1      12.632 -10.003  20.862  1.00  0.00     0.193 HD
ENDBRANCH  22  23
ENDBRANCH  19  22
ENDBRANCH  15  16
ENDBRANCH  14  15
ENDBRANCH  13  14
ENDBRANCH   1  13
BRANCH   4  26
HETATM   26  C11 UNL     1      14.117 -16.281  21.493  1.00  0.00     0.166 C 
HETATM   27  C12 UNL     1      13.301 -17.517  21.768  1.00  0.00     0.030 C 
BRANCH  26  28
HETATM   28  C13 UNL     1      13.293 -15.305  20.693  1.00  0.00     0.236 C 
HETATM   29  O4  UNL     1      13.505 -15.104  19.469  1.00  0.00    -0.272 OA
HETATM   30  N7  UNL     1      12.254 -14.607  21.367  1.00  0.00    -0.303 N 
HETATM   31  C14 UNL     1      12.561 -13.603  22.130  1.00  0.00     0.203 C 
ATOM     32  H7  UNL     1      11.281 -14.891  21.253  1.00  0.00     0.171 HD
HETATM   33  N8  UNL     1      13.927 -13.208  22.287  1.00  0.00    -0.066 NA
HETATM   34  N9  UNL     1      11.591 -12.859  22.833  1.00  0.00    -0.066 NA
ENDBRANCH  26  28
ENDBRANCH   4  26
TORSDOF 11
ENDMDL
