MODEL 1
REMARK VINA RESULT: -6.719853487      0.000      0.000
REMARK  10 active torsions:
REMARK  status: ('A' for Active; 'I' for Inactive)
REMARK    1  A    between atoms: C2_2  and  C4_4 
REMARK    2  A    between atoms: C4_4  and  N1_5 
REMARK    3  A    between atoms: C4_4  and  C5_9 
REMARK       I    between atoms: C5_9  and  N2_11 
REMARK    4  A    between atoms: N2_11  and  C6_13 
REMARK    5  A    between atoms: C6_13  and  C9_16 
REMARK    6  A    between atoms: C9_16  and  C10_17 
REMARK    7  A    between atoms: C9_16  and  N4_28 
REMARK    8  A    between atoms: C16_24  and  C17_25 
REMARK    9  A    between atoms: C17_25  and  O2_26 
REMARK   10  A    between atoms: N4_28  and  C19_30 
ROOT
HETATM    1  C9  UNL     1      14.806 -15.230  20.401  1.00  0.00     0.020 C 
ENDROOT
BRANCH   1   2
HETATM    2  C6  UNL     1      13.529 -14.871  21.080  1.00  0.00     0.064 C 
HETATM    3  C7  UNL     1      13.174 -15.951  22.135  1.00  0.00     0.044 C 
HETATM    4  C8  UNL     1      12.336 -14.710  20.149  1.00  0.00     0.044 C 
BRANCH   2   5
HETATM    5  N2  UNL     1      13.580 -13.673  21.867  1.00  0.00    -0.345 N 
HETATM    6  C5  UNL     1      13.608 -12.363  21.275  1.00  0.00     0.249 C 
HETATM    7  O1  UNL     1      13.582 -12.154  20.033  1.00  0.00    -0.271 OA
ATOM      8  H2  UNL     1      13.598 -13.753  22.883  1.00  0.00     0.163 HD
BRANCH   6   9
HETATM    9  C4  UNL     1      13.678 -11.112  22.096  1.00  0.00     0.278 C 
BRANCH   9  10
HETATM   10  C2  UNL     1      12.296 -10.707  22.572  1.00  0.00     0.017 C 
HETATM   11  C1  UNL     1      11.386 -11.877  22.796  1.00  0.00     0.012 C 
HETATM   12  C3  UNL     1      12.333  -9.795  23.742  1.00  0.00     0.012 C 
ENDBRANCH   9  10
BRANCH   9  13
HETATM   13  N1  UNL     1      14.196 -10.009  21.281  1.00  0.00    -0.066 N 
ATOM     14  H13 UNL     1      13.884 -10.049  20.310  1.00  0.00     0.275 HD
ATOM     15  H12 UNL     1      13.779  -9.109  21.516  1.00  0.00     0.275 HD
ATOM     16  H11 UNL     1      15.211 -10.016  21.375  1.00  0.00     0.275 HD
ENDBRANCH   9  13
ENDBRANCH   6   9
ENDBRANCH   2   5
ENDBRANCH   1   2
BRANCH   1  17
HETATM   17  C10 UNL     1      15.962 -15.203  21.321  1.00  0.00     0.093 C 
HETATM   18  C11 UNL     1      17.274 -15.757  20.841  1.00  0.00     0.250 C 
HETATM   19  N3  UNL     1      17.879 -14.783  21.770  1.00  0.00    -0.059 N 
HETATM   20  C12 UNL     1      17.851 -15.171  23.164  1.00  0.00     0.238 C 
HETATM   21  C15 UNL     1      19.224 -14.609  21.440  1.00  0.00     0.238 C 
HETATM   22  C16 UNL     1      16.815 -13.929  21.375  1.00  0.00     0.225 C 
HETATM   23  C13 UNL     1      19.196 -14.791  23.758  1.00  0.00     0.029 C 
HETATM   24  C14 UNL     1      19.843 -13.936  22.651  1.00  0.00     0.029 C 
BRANCH  22  25
HETATM   25  C17 UNL     1      17.042 -13.179  20.121  1.00  0.00     0.198 C 
BRANCH  25  26
HETATM   26  O2  UNL     1      16.715 -11.830  20.347  1.00  0.00    -0.399 OA
ATOM     27  H2  UNL     1      17.210 -11.296  19.737  1.00  0.00     0.209 HD
ENDBRANCH  25  26
ENDBRANCH  22  25
ENDBRANCH   1  17
BRANCH   1  28
HETATM   28  N4  UNL     1      14.879 -15.950  19.226  1.00  0.00    -0.385 N 
HETATM   29  C18 UNL     1      15.153 -15.226  17.997  1.00  0.00     0.149 C 
BRANCH  28  30
HETATM   30  C19 UNL     1      14.604 -17.292  19.046  1.00  0.00     0.075 C 
HETATM   31  C20 UNL     1      13.385 -17.537  18.182  1.00  0.00     0.032 C 
HETATM   32  C21 UNL     1      15.724 -18.042  18.287  1.00  0.00     0.032 C 
ENDBRANCH  28  30
ENDBRANCH   1  28
TORSDOF 10
ENDMDL
MODEL 2
REMARK VINA RESULT: -6.510476987      1.968      5.504
REMARK  10 active torsions:
REMARK  status: ('A' for Active; 'I' for Inactive)
REMARK    1  A    between atoms: C2_2  and  C4_4 
REMARK    2  A    between atoms: C4_4  and  N1_5 
REMARK    3  A    between atoms: C4_4  and  C5_9 
REMARK       I    between atoms: C5_9  and  N2_11 
REMARK    4  A    between atoms: N2_11  and  C6_13 
REMARK    5  A    between atoms: C6_13  and  C9_16 
REMARK    6  A    between atoms: C9_16  and  C10_17 
REMARK    7  A    between atoms: C9_16  and  N4_28 
REMARK    8  A    between atoms: C16_24  and  C17_25 
REMARK    9  A    between atoms: C17_25  and  O2_26 
REMARK   10  A    between atoms: N4_28  and  C19_30 
ROOT
HETATM    1  C9  UNL     1      14.394 -14.385  19.319  1.00  0.00     0.020 C 
ENDROOT
BRANCH   1   2
HETATM    2  C6  UNL     1      15.271 -13.828  18.250  1.00  0.00     0.064 C 
HETATM    3  C7  UNL     1      14.485 -12.778  17.421  1.00  0.00     0.044 C 
HETATM    4  C8  UNL     1      15.835 -14.862  17.286  1.00  0.00     0.044 C 
BRANCH   2   5
HETATM    5  N2  UNL     1      16.394 -13.073  18.723  1.00  0.00    -0.345 N 
HETATM    6  C5  UNL     1      17.306 -13.585  19.709  1.00  0.00     0.249 C 
HETATM    7  O1  UNL     1      17.205 -14.727  20.231  1.00  0.00    -0.271 OA
ATOM      8  H2  UNL     1      16.552 -12.139  18.346  1.00  0.00     0.163 HD
BRANCH   6   9
HETATM    9  C4  UNL     1      18.470 -12.790  20.216  1.00  0.00     0.278 C 
BRANCH   9  10
HETATM   10  C2  UNL     1      19.752 -13.595  20.113  1.00  0.00     0.017 C 
HETATM   11  C1  UNL     1      20.738 -13.009  19.149  1.00  0.00     0.012 C 
HETATM   12  C3  UNL     1      20.363 -13.877  21.436  1.00  0.00     0.012 C 
ENDBRANCH   9  10
BRANCH   9  13
HETATM   13  N1  UNL     1      18.274 -12.466  21.632  1.00  0.00    -0.066 N 
ATOM     14  H13 UNL     1      18.506 -11.498  21.857  1.00  0.00     0.275 HD
ATOM     15  H12 UNL     1      17.291 -12.432  21.901  1.00  0.00     0.275 HD
ATOM     16  H11 UNL     1      18.813 -13.143  22.173  1.00  0.00     0.275 HD
ENDBRANCH   9  13
ENDBRANCH   6   9
ENDBRANCH   2   5
ENDBRANCH   1   2
BRANCH   1  17
HETATM   17  C10 UNL     1      13.645 -13.335  20.038  1.00  0.00     0.093 C 
HETATM   18  C11 UNL     1      12.377 -13.717  20.749  1.00  0.00     0.250 C 
HETATM   19  N3  UNL     1      12.705 -12.605  21.662  1.00  0.00    -0.059 N 
HETATM   20  C12 UNL     1      12.406 -11.286  21.149  1.00  0.00     0.238 C 
HETATM   21  C15 UNL     1      11.964 -12.744  22.838  1.00  0.00     0.238 C 
HETATM   22  C16 UNL     1      14.052 -13.016  21.483  1.00  0.00     0.225 C 
HETATM   23  C13 UNL     1      11.807 -10.488  22.294  1.00  0.00     0.029 C 
HETATM   24  C14 UNL     1      12.050 -11.391  23.519  1.00  0.00     0.029 C 
BRANCH  22  25
HETATM   25  C17 UNL     1      14.493 -14.128  22.353  1.00  0.00     0.198 C 
BRANCH  25  26
HETATM   26  O2  UNL     1      15.832 -13.900  22.718  1.00  0.00    -0.399 OA
ATOM     27  H2  UNL     1      16.295 -13.563  21.961  1.00  0.00     0.209 HD
ENDBRANCH  25  26
ENDBRANCH  22  25
ENDBRANCH   1  17
BRANCH   1  28
HETATM   28  N4  UNL     1      13.949 -15.691  19.349  1.00  0.00    -0.385 N 
HETATM   29  C18 UNL     1      14.607 -16.616  20.255  1.00  0.00     0.149 C 
BRANCH  28  30
HETATM   30  C19 UNL     1      13.009 -16.276  18.523  1.00  0.00     0.075 C 
HETATM   31  C20 UNL     1      13.474 -17.590  17.932  1.00  0.00     0.032 C 
HETATM   32  C21 UNL     1      11.712 -16.670  19.268  1.00  0.00     0.032 C 
ENDBRANCH  28  30
ENDBRANCH   1  28
TORSDOF 10
ENDMDL
MODEL 3
REMARK VINA RESULT: -6.377478751      1.905      4.949
REMARK  10 active torsions:
REMARK  status: ('A' for Active; 'I' for Inactive)
REMARK    1  A    between atoms: C2_2  and  C4_4 
REMARK    2  A    between atoms: C4_4  and  N1_5 
REMARK    3  A    between atoms: C4_4  and  C5_9 
REMARK       I    between atoms: C5_9  and  N2_11 
REMARK    4  A    between atoms: N2_11  and  C6_13 
REMARK    5  A    between atoms: C6_13  and  C9_16 
REMARK    6  A    between atoms: C9_16  and  C10_17 
REMARK    7  A    between atoms: C9_16  and  N4_28 
REMARK    8  A    between atoms: C16_24  and  C17_25 
REMARK    9  A    between atoms: C17_25  and  O2_26 
REMARK   10  A    between atoms: N4_28  and  C19_30 
ROOT
HETATM    1  C9  UNL     1      14.854 -14.540  20.288  1.00  0.00     0.020 C 
ENDROOT
BRANCH   1   2
HETATM    2  C6  UNL     1      14.581 -13.134  19.877  1.00  0.00     0.064 C 
HETATM    3  C7  UNL     1      14.443 -13.055  18.334  1.00  0.00     0.044 C 
HETATM    4  C8  UNL     1      15.638 -12.128  20.309  1.00  0.00     0.044 C 
BRANCH   2   5
HETATM    5  N2  UNL     1      13.326 -12.607  20.328  1.00  0.00    -0.345 N 
HETATM    6  C5  UNL     1      12.920 -12.656  21.707  1.00  0.00     0.249 C 
HETATM    7  O1  UNL     1      13.623 -13.152  22.627  1.00  0.00    -0.271 OA
ATOM      8  H2  UNL     1      12.698 -12.181  19.647  1.00  0.00     0.163 HD
BRANCH   6   9
HETATM    9  C4  UNL     1      11.602 -12.120  22.175  1.00  0.00     0.278 C 
BRANCH   9  10
HETATM   10  C2  UNL     1      11.786 -10.788  22.878  1.00  0.00     0.017 C 
HETATM   11  C1  UNL     1      11.469 -10.847  24.342  1.00  0.00     0.012 C 
HETATM   12  C3  UNL     1      13.112 -10.177  22.616  1.00  0.00     0.012 C 
ENDBRANCH   9  10
BRANCH   9  13
HETATM   13  N1  UNL     1      11.006 -13.043  23.147  1.00  0.00    -0.066 N 
ATOM     14  H13 UNL     1      11.528 -13.914  23.242  1.00  0.00     0.275 HD
ATOM     15  H12 UNL     1      11.103 -12.725  24.111  1.00  0.00     0.275 HD
ATOM     16  H11 UNL     1      10.036 -13.187  22.869  1.00  0.00     0.275 HD
ENDBRANCH   9  13
ENDBRANCH   6   9
ENDBRANCH   2   5
ENDBRANCH   1   2
BRANCH   1  17
HETATM   17  C10 UNL     1      13.938 -15.504  19.646  1.00  0.00     0.093 C 
HETATM   18  C11 UNL     1      14.386 -16.930  19.494  1.00  0.00     0.250 C 
HETATM   19  N3  UNL     1      12.950 -17.257  19.577  1.00  0.00    -0.059 N 
HETATM   20  C12 UNL     1      12.200 -17.021  18.362  1.00  0.00     0.238 C 
HETATM   21  C15 UNL     1      12.805 -18.615  19.867  1.00  0.00     0.238 C 
HETATM   22  C16 UNL     1      12.888 -16.200  20.523  1.00  0.00     0.225 C 
HETATM   23  C13 UNL     1      11.249 -18.192  18.192  1.00  0.00     0.029 C 
HETATM   24  C14 UNL     1      11.360 -18.936  19.537  1.00  0.00     0.029 C 
BRANCH  22  25
HETATM   25  C17 UNL     1      13.259 -16.570  21.906  1.00  0.00     0.198 C 
BRANCH  25  26
HETATM   26  O2  UNL     1      12.528 -15.758  22.792  1.00  0.00    -0.399 OA
ATOM     27  H2  UNL     1      13.031 -15.660  23.591  1.00  0.00     0.209 HD
ENDBRANCH  25  26
ENDBRANCH  22  25
ENDBRANCH   1  17
BRANCH   1  28
HETATM   28  N4  UNL     1      16.061 -14.974  20.800  1.00  0.00    -0.385 N 
HETATM   29  C18 UNL     1      17.175 -15.130  19.882  1.00  0.00     0.149 C 
BRANCH  28  30
HETATM   30  C19 UNL     1      16.320 -15.400  22.088  1.00  0.00     0.075 C 
HETATM   31  C20 UNL     1      17.010 -16.748  22.139  1.00  0.00     0.032 C 
HETATM   32  C21 UNL     1      17.306 -14.477  22.843  1.00  0.00     0.032 C 
ENDBRANCH  28  30
ENDBRANCH   1  28
TORSDOF 10
ENDMDL
MODEL 4
REMARK VINA RESULT: -6.235016083      1.750      4.780
REMARK  10 active torsions:
REMARK  status: ('A' for Active; 'I' for Inactive)
REMARK    1  A    between atoms: C2_2  and  C4_4 
REMARK    2  A    between atoms: C4_4  and  N1_5 
REMARK    3  A    between atoms: C4_4  and  C5_9 
REMARK       I    between atoms: C5_9  and  N2_11 
REMARK    4  A    between atoms: N2_11  and  C6_13 
REMARK    5  A    between atoms: C6_13  and  C9_16 
REMARK    6  A    between atoms: C9_16  and  C10_17 
REMARK    7  A    between atoms: C9_16  and  N4_28 
REMARK    8  A    between atoms: C16_24  and  C17_25 
REMARK    9  A    between atoms: C17_25  and  O2_26 
REMARK   10  A    between atoms: N4_28  and  C19_30 
ROOT
HETATM    1  C9  UNL     1      15.489 -14.480  20.498  1.00  0.00     0.020 C 
ENDROOT
BRANCH   1   2
HETATM    2  C6  UNL     1      15.187 -13.101  20.022  1.00  0.00     0.064 C 
HETATM    3  C7  UNL     1      15.238 -13.058  18.471  1.00  0.00     0.044 C 
HETATM    4  C8  UNL     1      16.123 -12.024  20.554  1.00  0.00     0.044 C 
BRANCH   2   5
HETATM    5  N2  UNL     1      13.858 -12.643  20.302  1.00  0.00    -0.345 N 
HETATM    6  C5  UNL     1      13.271 -12.735  21.611  1.00  0.00     0.249 C 
HETATM    7  O1  UNL     1      13.866 -13.212  22.614  1.00  0.00    -0.271 OA
ATOM      8  H2  UNL     1      13.308 -12.237  19.545  1.00  0.00     0.163 HD
BRANCH   6   9
HETATM    9  C4  UNL     1      11.876 -12.272  21.900  1.00  0.00     0.278 C 
BRANCH   9  10
HETATM   10  C2  UNL     1      11.894 -10.917  22.583  1.00  0.00     0.017 C 
HETATM   11  C1  UNL     1      11.428 -10.971  24.006  1.00  0.00     0.012 C 
HETATM   12  C3  UNL     1      13.195 -10.219  22.445  1.00  0.00     0.012 C 
ENDBRANCH   9  10
BRANCH   9  13
HETATM   13  N1  UNL     1      11.220 -13.210  22.817  1.00  0.00    -0.066 N 
ATOM     14  H13 UNL     1      10.845 -14.033  22.345  1.00  0.00     0.275 HD
ATOM     15  H12 UNL     1      11.876 -13.696  23.428  1.00  0.00     0.275 HD
ATOM     16  H11 UNL     1      10.511 -12.684  23.328  1.00  0.00     0.275 HD
ENDBRANCH   9  13
ENDBRANCH   6   9
ENDBRANCH   2   5
ENDBRANCH   1   2
BRANCH   1  17
HETATM   17  C10 UNL     1      14.751 -15.512  19.743  1.00  0.00     0.093 C 
HETATM   18  C11 UNL     1      15.302 -16.910  19.710  1.00  0.00     0.250 C 
HETATM   19  N3  UNL     1      13.893 -17.325  19.565  1.00  0.00    -0.059 N 
HETATM   20  C12 UNL     1      13.344 -17.161  18.237  1.00  0.00     0.238 C 
HETATM   21  C15 UNL     1      13.783 -18.684  19.868  1.00  0.00     0.238 C 
HETATM   22  C16 UNL     1      13.613 -16.256  20.456  1.00  0.00     0.225 C 
HETATM   23  C13 UNL     1      12.505 -18.393  17.947  1.00  0.00     0.029 C 
HETATM   24  C14 UNL     1      12.434 -19.102  19.314  1.00  0.00     0.029 C 
BRANCH  22  25
HETATM   25  C17 UNL     1      13.770 -16.574  21.891  1.00  0.00     0.198 C 
BRANCH  25  26
HETATM   26  O2  UNL     1      12.718 -15.964  22.597  1.00  0.00    -0.399 OA
ATOM     27  H2  UNL     1      12.908 -16.020  23.526  1.00  0.00     0.209 HD
ENDBRANCH  25  26
ENDBRANCH  22  25
ENDBRANCH   1  17
BRANCH   1  28
HETATM   28  N4  UNL     1      16.629 -14.823  21.198  1.00  0.00    -0.385 N 
HETATM   29  C18 UNL     1      16.627 -14.638  22.638  1.00  0.00     0.149 C 
BRANCH  28  30
HETATM   30  C19 UNL     1      17.844 -15.222  20.676  1.00  0.00     0.075 C 
HETATM   31  C20 UNL     1      18.883 -14.120  20.681  1.00  0.00     0.032 C 
HETATM   32  C21 UNL     1      18.520 -16.339  21.507  1.00  0.00     0.032 C 
ENDBRANCH  28  30
ENDBRANCH   1  28
TORSDOF 10
ENDMDL
MODEL 5
REMARK VINA RESULT: -6.202093776      2.139      6.197
REMARK  10 active torsions:
REMARK  status: ('A' for Active; 'I' for Inactive)
REMARK    1  A    between atoms: C2_2  and  C4_4 
REMARK    2  A    between atoms: C4_4  and  N1_5 
REMARK    3  A    between atoms: C4_4  and  C5_9 
REMARK       I    between atoms: C5_9  and  N2_11 
REMARK    4  A    between atoms: N2_11  and  C6_13 
REMARK    5  A    between atoms: C6_13  and  C9_16 
REMARK    6  A    between atoms: C9_16  and  C10_17 
REMARK    7  A    between atoms: C9_16  and  N4_28 
REMARK    8  A    between atoms: C16_24  and  C17_25 
REMARK    9  A    between atoms: C17_25  and  O2_26 
REMARK   10  A    between atoms: N4_28  and  C19_30 
ROOT
HETATM    1  C9  UNL     1      16.273 -13.202  19.522  1.00  0.00     0.020 C 
ENDROOT
BRANCH   1   2
HETATM    2  C6  UNL     1      17.623 -13.293  20.147  1.00  0.00     0.064 C 
HETATM    3  C7  UNL     1      17.758 -12.223  21.262  1.00  0.00     0.044 C 
HETATM    4  C8  UNL     1      18.785 -13.117  19.180  1.00  0.00     0.044 C 
BRANCH   2   5
HETATM    5  N2  UNL     1      17.879 -14.514  20.854  1.00  0.00    -0.345 N 
HETATM    6  C5  UNL     1      19.126 -14.769  21.524  1.00  0.00     0.249 C 
HETATM    7  O1  UNL     1      20.085 -13.954  21.554  1.00  0.00    -0.271 OA
ATOM      8  H2  UNL     1      17.151 -15.227  20.884  1.00  0.00     0.163 HD
BRANCH   6   9
HETATM    9  C4  UNL     1      19.399 -16.051  22.249  1.00  0.00     0.278 C 
BRANCH   9  10
HETATM   10  C2  UNL     1      19.546 -15.801  23.739  1.00  0.00     0.017 C 
HETATM   11  C1  UNL     1      18.265 -15.375  24.391  1.00  0.00     0.012 C 
HETATM   12  C3  UNL     1      20.188 -16.932  24.452  1.00  0.00     0.012 C 
ENDBRANCH   9  10
BRANCH   9  13
HETATM   13  N1  UNL     1      20.663 -16.629  21.781  1.00  0.00    -0.066 N 
ATOM     14  H13 UNL     1      21.444 -15.975  21.831  1.00  0.00     0.275 HD
ATOM     15  H12 UNL     1      21.039 -17.333  22.415  1.00  0.00     0.275 HD
ATOM     16  H11 UNL     1      20.499 -16.986  20.839  1.00  0.00     0.275 HD
ENDBRANCH   9  13
ENDBRANCH   6   9
ENDBRANCH   2   5
ENDBRANCH   1   2
BRANCH   1  17
HETATM   17  C10 UNL     1      15.322 -12.427  20.343  1.00  0.00     0.093 C 
HETATM   18  C11 UNL     1      13.881 -12.375  19.917  1.00  0.00     0.250 C 
HETATM   19  N3  UNL     1      13.594 -12.215  21.355  1.00  0.00    -0.059 N 
HETATM   20  C12 UNL     1      13.827 -10.887  21.879  1.00  0.00     0.238 C 
HETATM   21  C15 UNL     1      12.246 -12.496  21.587  1.00  0.00     0.238 C 
HETATM   22  C16 UNL     1      14.671 -13.121  21.547  1.00  0.00     0.225 C 
HETATM   23  C13 UNL     1      12.678 -10.573  22.821  1.00  0.00     0.029 C 
HETATM   24  C14 UNL     1      11.957 -11.927  22.964  1.00  0.00     0.029 C 
BRANCH  22  25
HETATM   25  C17 UNL     1      14.318 -14.552  21.429  1.00  0.00     0.198 C 
BRANCH  25  26
HETATM   26  O2  UNL     1      15.253 -15.300  22.167  1.00  0.00    -0.399 OA
ATOM     27  H2  UNL     1      15.008 -16.217  22.119  1.00  0.00     0.209 HD
ENDBRANCH  25  26
ENDBRANCH  22  25
ENDBRANCH   1  17
BRANCH   1  28
HETATM   28  N4  UNL     1      16.033 -13.379  18.174  1.00  0.00    -0.385 N 
HETATM   29  C18 UNL     1      15.691 -14.712  17.710  1.00  0.00     0.149 C 
BRANCH  28  30
HETATM   30  C19 UNL     1      16.194 -12.449  17.165  1.00  0.00     0.075 C 
HETATM   31  C20 UNL     1      17.053 -12.955  16.024  1.00  0.00     0.032 C 
HETATM   32  C21 UNL     1      14.864 -12.084  16.463  1.00  0.00     0.032 C 
ENDBRANCH  28  30
ENDBRANCH   1  28
TORSDOF 10
ENDMDL
