MODEL 1
REMARK VINA RESULT: -8.116798031      0.000      0.000
REMARK  9 active torsions:
REMARK  status: ('A' for Active; 'I' for Inactive)
REMARK    1  A    between atoms: C2_2  and  O1_4 
REMARK    2  A    between atoms: C2_2  and  C4_6 
REMARK    3  A    between atoms: C6_8  and  C7_9 
REMARK    4  A    between atoms: C7_9  and  C8_10 
REMARK    5  A    between atoms: C8_10  and  C9_11 
REMARK    6  A    between atoms: C9_11  and  N1_12 
REMARK    7  A    between atoms: N2_17  and  C13_18 
REMARK    8  A    between atoms: C13_18  and  C14_19 
REMARK    9  A    between atoms: C14_19  and  N3_20 
ROOT
HETATM    1  N1  UNL     1      16.633 -12.973  20.443  1.00  0.00    -0.270 N 
HETATM    2  C10 UNL     1      16.007 -12.525  19.253  1.00  0.00     0.229 C 
HETATM    3  O2  UNL     1      16.693 -12.159  18.275  1.00  0.00    -0.273 OA
HETATM    4  C11 UNL     1      14.525 -12.503  19.207  1.00  0.00     0.123 C 
HETATM    5  C12 UNL     1      14.074 -13.895  19.670  1.00  0.00     0.136 C 
HETATM    6  N2  UNL     1      14.525 -14.023  21.058  1.00  0.00    -0.332 N 
HETATM    7  C16 UNL     1      15.868 -13.755  21.391  1.00  0.00     0.327 C 
HETATM    8  O3  UNL     1      16.417 -14.147  22.435  1.00  0.00    -0.247 OA
ENDROOT
BRANCH   1   9
HETATM    9  C9  UNL     1      18.013 -12.643  20.657  1.00  0.00     0.137 C 
BRANCH   9  10
HETATM   10  C8  UNL     1      18.986 -13.645  20.093  1.00  0.00     0.025 C 
BRANCH  10  11
HETATM   11  C7  UNL     1      20.361 -13.508  20.662  1.00  0.00     0.041 C 
BRANCH  11  12
HETATM   12  C6  UNL     1      20.519 -14.407  21.881  1.00  0.00    -0.051 A 
HETATM   13  C5  UNL     1      21.125 -13.990  23.018  1.00  0.00     0.025 A 
HETATM   14  C4  UNL     1      21.204 -14.895  24.044  1.00  0.00     0.016 A 
HETATM   15  S1  UNL     1      20.447 -16.278  23.409  1.00  0.00    -0.103 SA
HETATM   16  C17 UNL     1      20.045 -15.688  21.866  1.00  0.00     0.057 A 
BRANCH  14  17
HETATM   17  C2  UNL     1      21.831 -14.666  25.403  1.00  0.00     0.084 C 
HETATM   18  C1  UNL     1      21.862 -15.957  26.160  1.00  0.00     0.051 C 
HETATM   19  C3  UNL     1      21.065 -13.576  26.093  1.00  0.00     0.051 C 
BRANCH  17  20
HETATM   20  O1  UNL     1      23.119 -14.229  25.176  1.00  0.00    -0.385 OA
ATOM     21  H1  UNL     1      23.182 -13.855  24.304  1.00  0.00     0.211 HD
ENDBRANCH  17  20
ENDBRANCH  14  17
ENDBRANCH  11  12
ENDBRANCH  10  11
ENDBRANCH   9  10
ENDBRANCH   1   9
BRANCH   6  22
HETATM   22  C13 UNL     1      13.579 -14.429  22.076  1.00  0.00     0.147 C 
BRANCH  22  23
HETATM   23  C14 UNL     1      12.254 -13.762  21.751  1.00  0.00     0.142 C 
BRANCH  23  24
HETATM   24  N3  UNL     1      11.786 -13.149  22.952  1.00  0.00    -0.365 N 
HETATM   25  C15 UNL     1      11.572 -11.902  23.033  1.00  0.00     0.197 C 
HETATM   26  N4  UNL     1      11.105 -11.367  24.265  1.00  0.00    -0.067 NA
HETATM   27  N5  UNL     1      11.783 -11.021  21.939  1.00  0.00    -0.067 NA
ATOM     28  H3  UNL     1      11.619 -13.732  23.772  1.00  0.00     0.161 HD
ENDBRANCH  23  24
ENDBRANCH  22  23
ENDBRANCH   6  22
TORSDOF 9
ENDMDL
MODEL 2
REMARK VINA RESULT: -8.061403916      1.164      1.947
REMARK  9 active torsions:
REMARK  status: ('A' for Active; 'I' for Inactive)
REMARK    1  A    between atoms: C2_2  and  O1_4 
REMARK    2  A    between atoms: C2_2  and  C4_6 
REMARK    3  A    between atoms: C6_8  and  C7_9 
REMARK    4  A    between atoms: C7_9  and  C8_10 
REMARK    5  A    between atoms: C8_10  and  C9_11 
REMARK    6  A    between atoms: C9_11  and  N1_12 
REMARK    7  A    between atoms: N2_17  and  C13_18 
REMARK    8  A    between atoms: C13_18  and  C14_19 
REMARK    9  A    between atoms: C14_19  and  N3_20 
ROOT
HETATM    1  N1  UNL     1      16.580 -13.765  20.429  1.00  0.00    -0.270 N 
HETATM    2  C10 UNL     1      16.047 -14.987  20.909  1.00  0.00     0.229 C 
HETATM    3  O2  UNL     1      16.804 -15.934  21.207  1.00  0.00    -0.273 OA
HETATM    4  C11 UNL     1      14.575 -15.104  21.045  1.00  0.00     0.123 C 
HETATM    5  C12 UNL     1      14.131 -13.867  21.840  1.00  0.00     0.136 C 
HETATM    6  N2  UNL     1      14.462 -12.711  21.003  1.00  0.00    -0.332 N 
HETATM    7  C16 UNL     1      15.760 -12.572  20.473  1.00  0.00     0.327 C 
HETATM    8  O3  UNL     1      16.227 -11.500  20.051  1.00  0.00    -0.247 OA
ENDROOT
BRANCH   1   9
HETATM    9  C9  UNL     1      17.923 -13.754  19.926  1.00  0.00     0.137 C 
BRANCH   9  10
HETATM   10  C8  UNL     1      18.950 -13.253  20.907  1.00  0.00     0.025 C 
BRANCH  10  11
HETATM   11  C7  UNL     1      20.262 -13.959  20.792  1.00  0.00     0.041 C 
BRANCH  11  12
HETATM   12  C6  UNL     1      20.545 -14.754  22.060  1.00  0.00    -0.051 A 
HETATM   13  C5  UNL     1      21.085 -14.192  23.167  1.00  0.00     0.025 A 
HETATM   14  C4  UNL     1      21.291 -15.015  24.242  1.00  0.00     0.016 A 
HETATM   15  S1  UNL     1      20.737 -16.525  23.693  1.00  0.00    -0.103 SA
HETATM   16  C17 UNL     1      20.257 -16.089  22.123  1.00  0.00     0.057 A 
BRANCH  14  17
HETATM   17  C2  UNL     1      21.879 -14.621  25.581  1.00  0.00     0.084 C 
HETATM   18  C1  UNL     1      21.948 -15.826  26.467  1.00  0.00     0.051 C 
HETATM   19  C3  UNL     1      21.052 -13.502  26.143  1.00  0.00     0.051 C 
BRANCH  17  20
HETATM   20  O1  UNL     1      23.151 -14.152  25.332  1.00  0.00    -0.385 OA
ATOM     21  H1  UNL     1      23.124 -13.213  25.185  1.00  0.00     0.211 HD
ENDBRANCH  17  20
ENDBRANCH  14  17
ENDBRANCH  11  12
ENDBRANCH  10  11
ENDBRANCH   9  10
ENDBRANCH   1   9
BRANCH   6  22
HETATM   22  C13 UNL     1      13.444 -11.719  20.732  1.00  0.00     0.147 C 
BRANCH  22  23
HETATM   23  C14 UNL     1      12.342 -11.912  21.759  1.00  0.00     0.142 C 
BRANCH  23  24
HETATM   24  N3  UNL     1      12.355 -10.767  22.611  1.00  0.00    -0.365 N 
HETATM   25  C15 UNL     1      11.780 -10.763  23.742  1.00  0.00     0.197 C 
HETATM   26  N4  UNL     1      11.840  -9.583  24.533  1.00  0.00    -0.067 NA
HETATM   27  N5  UNL     1      11.079 -11.891  24.244  1.00  0.00    -0.067 NA
ATOM     28  H3  UNL     1      12.842  -9.927  22.302  1.00  0.00     0.161 HD
ENDBRANCH  23  24
ENDBRANCH  22  23
ENDBRANCH   6  22
TORSDOF 9
ENDMDL
MODEL 3
REMARK VINA RESULT: -7.915328889      0.956      1.180
REMARK  9 active torsions:
REMARK  status: ('A' for Active; 'I' for Inactive)
REMARK    1  A    between atoms: C2_2  and  O1_4 
REMARK    2  A    between atoms: C2_2  and  C4_6 
REMARK    3  A    between atoms: C6_8  and  C7_9 
REMARK    4  A    between atoms: C7_9  and  C8_10 
REMARK    5  A    between atoms: C8_10  and  C9_11 
REMARK    6  A    between atoms: C9_11  and  N1_12 
REMARK    7  A    between atoms: N2_17  and  C13_18 
REMARK    8  A    between atoms: C13_18  and  C14_19 
REMARK    9  A    between atoms: C14_19  and  N3_20 
ROOT
HETATM    1  N1  UNL     1      16.520 -12.858  20.388  1.00  0.00    -0.270 N 
HETATM    2  C10 UNL     1      15.882 -12.512  19.171  1.00  0.00     0.229 C 
HETATM    3  O2  UNL     1      16.556 -12.176  18.175  1.00  0.00    -0.273 OA
HETATM    4  C11 UNL     1      14.400 -12.561  19.119  1.00  0.00     0.123 C 
HETATM    5  C12 UNL     1      14.010 -13.942  19.665  1.00  0.00     0.136 C 
HETATM    6  N2  UNL     1      14.459 -13.965  21.060  1.00  0.00    -0.332 N 
HETATM    7  C16 UNL     1      15.786 -13.615  21.380  1.00  0.00     0.327 C 
HETATM    8  O3  UNL     1      16.345 -13.917  22.448  1.00  0.00    -0.247 OA
ENDROOT
BRANCH   1   9
HETATM    9  C9  UNL     1      17.882 -12.453  20.587  1.00  0.00     0.137 C 
BRANCH   9  10
HETATM   10  C8  UNL     1      18.897 -13.321  19.890  1.00  0.00     0.025 C 
BRANCH  10  11
HETATM   11  C7  UNL     1      20.224 -13.335  20.576  1.00  0.00     0.041 C 
BRANCH  11  12
HETATM   12  C6  UNL     1      20.233 -14.381  21.684  1.00  0.00    -0.051 A 
HETATM   13  C5  UNL     1      20.281 -14.050  22.996  1.00  0.00     0.025 A 
HETATM   14  C4  UNL     1      20.285 -15.084  23.895  1.00  0.00     0.016 A 
HETATM   15  S1  UNL     1      20.224 -16.465  22.906  1.00  0.00    -0.103 SA
HETATM   16  C17 UNL     1      20.194 -15.714  21.383  1.00  0.00     0.057 A 
BRANCH  14  17
HETATM   17  C2  UNL     1      20.334 -14.968  25.404  1.00  0.00     0.084 C 
HETATM   18  C1  UNL     1      20.803 -13.597  25.781  1.00  0.00     0.051 C 
HETATM   19  C3  UNL     1      21.202 -16.073  25.929  1.00  0.00     0.051 C 
BRANCH  17  20
HETATM   20  O1  UNL     1      19.046 -15.161  25.857  1.00  0.00    -0.385 OA
ATOM     21  H1  UNL     1      19.036 -15.157  26.807  1.00  0.00     0.211 HD
ENDBRANCH  17  20
ENDBRANCH  14  17
ENDBRANCH  11  12
ENDBRANCH  10  11
ENDBRANCH   9  10
ENDBRANCH   1   9
BRANCH   6  22
HETATM   22  C13 UNL     1      13.526 -14.351  22.097  1.00  0.00     0.147 C 
BRANCH  22  23
HETATM   23  C14 UNL     1      12.192 -13.704  21.767  1.00  0.00     0.142 C 
BRANCH  23  24
HETATM   24  N3  UNL     1      11.725 -13.072  22.959  1.00  0.00    -0.365 N 
HETATM   25  C15 UNL     1      11.547 -11.819  23.032  1.00  0.00     0.197 C 
HETATM   26  N4  UNL     1      11.078 -11.266  24.255  1.00  0.00    -0.067 NA
HETATM   27  N5  UNL     1      11.801 -10.949  21.938  1.00  0.00    -0.067 NA
ATOM     28  H3  UNL     1      11.527 -13.647  23.777  1.00  0.00     0.161 HD
ENDBRANCH  23  24
ENDBRANCH  22  23
ENDBRANCH   6  22
TORSDOF 9
ENDMDL
MODEL 4
REMARK VINA RESULT: -7.761492674      1.965      3.754
REMARK  9 active torsions:
REMARK  status: ('A' for Active; 'I' for Inactive)
REMARK    1  A    between atoms: C2_2  and  O1_4 
REMARK    2  A    between atoms: C2_2  and  C4_6 
REMARK    3  A    between atoms: C6_8  and  C7_9 
REMARK    4  A    between atoms: C7_9  and  C8_10 
REMARK    5  A    between atoms: C8_10  and  C9_11 
REMARK    6  A    between atoms: C9_11  and  N1_12 
REMARK    7  A    between atoms: N2_17  and  C13_18 
REMARK    8  A    between atoms: C13_18  and  C14_19 
REMARK    9  A    between atoms: C14_19  and  N3_20 
ROOT
HETATM    1  N1  UNL     1      17.092 -13.168  21.335  1.00  0.00    -0.270 N 
HETATM    2  C10 UNL     1      16.668 -14.236  22.164  1.00  0.00     0.229 C 
HETATM    3  O2  UNL     1      17.356 -14.587  23.146  1.00  0.00    -0.273 OA
HETATM    4  C11 UNL     1      15.394 -14.918  21.833  1.00  0.00     0.123 C 
HETATM    5  C12 UNL     1      14.355 -13.799  21.665  1.00  0.00     0.136 C 
HETATM    6  N2  UNL     1      14.804 -13.001  20.521  1.00  0.00    -0.332 N 
HETATM    7  C16 UNL     1      16.127 -12.518  20.473  1.00  0.00     0.327 C 
HETATM    8  O3  UNL     1      16.499 -11.582  19.745  1.00  0.00    -0.247 OA
ENDROOT
BRANCH   1   9
HETATM    9  C9  UNL     1      18.467 -12.761  21.390  1.00  0.00     0.137 C 
BRANCH   9  10
HETATM   10  C8  UNL     1      19.358 -13.447  20.388  1.00  0.00     0.025 C 
BRANCH  10  11
HETATM   11  C7  UNL     1      20.759 -13.624  20.877  1.00  0.00     0.041 C 
BRANCH  11  12
HETATM   12  C6  UNL     1      20.783 -14.560  22.078  1.00  0.00    -0.051 A 
HETATM   13  C5  UNL     1      21.281 -14.187  23.281  1.00  0.00     0.025 A 
HETATM   14  C4  UNL     1      21.246 -15.122  24.282  1.00  0.00     0.016 A 
HETATM   15  S1  UNL     1      20.533 -16.472  23.535  1.00  0.00    -0.103 SA
HETATM   16  C17 UNL     1      20.294 -15.832  21.979  1.00  0.00     0.057 A 
BRANCH  14  17
HETATM   17  C2  UNL     1      21.740 -14.943  25.702  1.00  0.00     0.084 C 
HETATM   18  C1  UNL     1      21.766 -16.272  26.391  1.00  0.00     0.051 C 
HETATM   19  C3  UNL     1      20.866 -13.927  26.376  1.00  0.00     0.051 C 
BRANCH  17  20
HETATM   20  O1  UNL     1      23.021 -14.439  25.614  1.00  0.00    -0.385 OA
ATOM     21  H1  UNL     1      22.987 -13.501  25.471  1.00  0.00     0.211 HD
ENDBRANCH  17  20
ENDBRANCH  14  17
ENDBRANCH  11  12
ENDBRANCH  10  11
ENDBRANCH   9  10
ENDBRANCH   1   9
BRANCH   6  22
HETATM   22  C13 UNL     1      13.875 -12.716  19.449  1.00  0.00     0.147 C 
BRANCH  22  23
HETATM   23  C14 UNL     1      14.525 -13.173  18.155  1.00  0.00     0.142 C 
BRANCH  23  24
HETATM   24  N3  UNL     1      14.529 -12.055  17.268  1.00  0.00    -0.365 N 
HETATM   25  C15 UNL     1      15.037 -12.117  16.108  1.00  0.00     0.197 C 
HETATM   26  N4  UNL     1      15.001 -10.959  15.284  1.00  0.00    -0.067 NA
HETATM   27  N5  UNL     1      15.643 -13.299  15.605  1.00  0.00    -0.067 NA
ATOM     28  H3  UNL     1      14.109 -11.178  17.576  1.00  0.00     0.161 HD
ENDBRANCH  23  24
ENDBRANCH  22  23
ENDBRANCH   6  22
TORSDOF 9
ENDMDL
MODEL 5
REMARK VINA RESULT: -7.731607638      2.445      4.191
REMARK  9 active torsions:
REMARK  status: ('A' for Active; 'I' for Inactive)
REMARK    1  A    between atoms: C2_2  and  O1_4 
REMARK    2  A    between atoms: C2_2  and  C4_6 
REMARK    3  A    between atoms: C6_8  and  C7_9 
REMARK    4  A    between atoms: C7_9  and  C8_10 
REMARK    5  A    between atoms: C8_10  and  C9_11 
REMARK    6  A    between atoms: C9_11  and  N1_12 
REMARK    7  A    between atoms: N2_17  and  C13_18 
REMARK    8  A    between atoms: C13_18  and  C14_19 
REMARK    9  A    between atoms: C14_19  and  N3_20 
ROOT
HETATM    1  N1  UNL     1      16.986 -13.823  20.975  1.00  0.00    -0.270 N 
HETATM    2  C10 UNL     1      16.640 -15.197  21.018  1.00  0.00     0.229 C 
HETATM    3  O2  UNL     1      17.064 -15.928  21.938  1.00  0.00    -0.273 OA
HETATM    4  C11 UNL     1      15.768 -15.735  19.946  1.00  0.00     0.123 C 
HETATM    5  C12 UNL     1      14.564 -14.784  19.873  1.00  0.00     0.136 C 
HETATM    6  N2  UNL     1      15.103 -13.482  19.469  1.00  0.00    -0.332 N 
HETATM    7  C16 UNL     1      16.190 -12.921  20.169  1.00  0.00     0.327 C 
HETATM    8  O3  UNL     1      16.494 -11.716  20.129  1.00  0.00    -0.247 OA
ENDROOT
BRANCH   1   9
HETATM    9  C9  UNL     1      18.109 -13.375  21.745  1.00  0.00     0.137 C 
BRANCH   9  10
HETATM   10  C8  UNL     1      19.345 -13.088  20.933  1.00  0.00     0.025 C 
BRANCH  10  11
HETATM   11  C7  UNL     1      20.171 -14.305  20.674  1.00  0.00     0.041 C 
BRANCH  11  12
HETATM   12  C6  UNL     1      20.529 -14.988  21.988  1.00  0.00    -0.051 A 
HETATM   13  C5  UNL     1      21.028 -14.310  23.048  1.00  0.00     0.025 A 
HETATM   14  C4  UNL     1      21.310 -15.040  24.173  1.00  0.00     0.016 A 
HETATM   15  S1  UNL     1      20.883 -16.624  23.731  1.00  0.00    -0.103 SA
HETATM   16  C17 UNL     1      20.356 -16.335  22.141  1.00  0.00     0.057 A 
BRANCH  14  17
HETATM   17  C2  UNL     1      21.872 -14.509  25.475  1.00  0.00     0.084 C 
HETATM   18  C1  UNL     1      21.967 -15.628  26.466  1.00  0.00     0.051 C 
HETATM   19  C3  UNL     1      21.007 -13.370  25.927  1.00  0.00     0.051 C 
BRANCH  17  20
HETATM   20  O1  UNL     1      23.133 -14.027  25.195  1.00  0.00    -0.385 OA
ATOM     21  H1  UNL     1      23.239 -13.164  25.578  1.00  0.00     0.211 HD
ENDBRANCH  17  20
ENDBRANCH  14  17
ENDBRANCH  11  12
ENDBRANCH  10  11
ENDBRANCH   9  10
ENDBRANCH   1   9
BRANCH   6  22
HETATM   22  C13 UNL     1      14.506 -12.785  18.351  1.00  0.00     0.147 C 
BRANCH  22  23
HETATM   23  C14 UNL     1      15.386 -13.038  17.140  1.00  0.00     0.142 C 
BRANCH  23  24
HETATM   24  N3  UNL     1      16.078 -11.821  16.861  1.00  0.00    -0.365 N 
HETATM   25  C15 UNL     1      16.965 -11.742  15.959  1.00  0.00     0.197 C 
HETATM   26  N4  UNL     1      17.608 -10.492  15.742  1.00  0.00    -0.067 NA
HETATM   27  N5  UNL     1      17.341 -12.855  15.161  1.00  0.00    -0.067 NA
ATOM     28  H3  UNL     1      15.850 -10.988  17.404  1.00  0.00     0.161 HD
ENDBRANCH  23  24
ENDBRANCH  22  23
ENDBRANCH   6  22
TORSDOF 9
ENDMDL
