MODEL 1
REMARK VINA RESULT: -10.319578168      0.000      0.000
REMARK  6 active torsions:
REMARK  status: ('A' for Active; 'I' for Inactive)
REMARK    1  A    between atoms: N2_10  and  C6_12 
REMARK    2  A    between atoms: C6_12  and  C7_13 
REMARK    3  A    between atoms: C12_18  and  C13_19 
REMARK    4  A    between atoms: C19_27  and  N4_28 
REMARK    5  A    between atoms: N4_28  and  C20_29 
REMARK    6  A    between atoms: C20_29  and  C21_30 
ROOT
HETATM    1  O1  UNL     1      -4.476  12.890  13.640  1.00  0.00    -0.272 OA
HETATM    2  C1  UNL     1      -4.186  13.650  14.610  1.00  0.00     0.232 C 
HETATM    3  C2  UNL     1      -5.334  14.123  15.437  1.00  0.00     0.182 C 
HETATM    4  S1  UNL     1      -4.879  14.131  17.173  1.00  0.00    -0.112 SA
HETATM    5  C3  UNL     1      -3.136  14.498  17.258  1.00  0.00     0.104 A 
HETATM    6  C4  UNL     1      -2.347  14.424  16.159  1.00  0.00     0.145 A 
HETATM    7  N1  UNL     1      -1.037  14.669  16.286  1.00  0.00    -0.175 N 
ATOM      8  H1  UNL     1      -0.439  14.614  15.462  1.00  0.00     0.186 HD
HETATM    9  C5  UNL     1      -0.479  14.992  17.496  1.00  0.00     0.686 A 
HETATM   10  N2  UNL     1       0.692  15.226  17.652  1.00  0.00    -0.201 N 
ATOM     11  H2  UNL     1       0.783  15.420  18.650  1.00  0.00     0.183 HD
HETATM   12  N3  UNL     1      -1.329  15.051  18.578  1.00  0.00    -0.163 N 
ATOM     13  H3  UNL     1      -0.924  15.289  19.484  1.00  0.00     0.187 HD
HETATM   14  C19 UNL     1      -2.627  14.821  18.528  1.00  0.00     0.213 A 
HETATM   15  N5  UNL     1      -2.852  14.014  14.873  1.00  0.00    -0.311 N 
ATOM     16  H5  UNL     1      -2.193  13.985  14.095  1.00  0.00     0.170 HD
ENDROOT
BRANCH  10  17
HETATM   17  C6  UNL     1       1.980  15.363  17.154  1.00  0.00     0.118 C 
BRANCH  17  18
HETATM   18  C7  UNL     1       1.924  16.236  15.915  1.00  0.00    -0.009 A 
HETATM   19  C8  UNL     1       1.669  17.579  16.048  1.00  0.00     0.013 A 
HETATM   20  C9  UNL     1       1.584  18.436  14.980  1.00  0.00     0.001 A 
HETATM   21  C10 UNL     1       1.763  17.922  13.724  1.00  0.00     0.001 A 
HETATM   22  C11 UNL     1       2.017  16.581  13.541  1.00  0.00     0.013 A 
HETATM   23  C12 UNL     1       2.098  15.727  14.672  1.00  0.00    -0.014 A 
BRANCH  23  24
HETATM   24  C13 UNL     1       2.435  14.363  14.338  1.00  0.00    -0.025 A 
HETATM   25  C14 UNL     1       1.500  13.383  14.572  1.00  0.00     0.012 A 
HETATM   26  C15 UNL     1       1.791  12.092  14.156  1.00  0.00     0.001 A 
HETATM   27  C16 UNL     1       2.974  11.761  13.525  1.00  0.00     0.000 A 
HETATM   28  C17 UNL     1       3.880  12.765  13.312  1.00  0.00     0.001 A 
HETATM   29  C18 UNL     1       3.612  14.064  13.719  1.00  0.00     0.012 A 
ENDBRANCH  23  24
ENDBRANCH  17  18
ENDBRANCH  10  17
BRANCH  14  30
HETATM   30  N4  UNL     1      -3.302  14.844  19.502  1.00  0.00    -0.397 NA
BRANCH  30  31
HETATM   31  C20 UNL     1      -4.279  14.775  20.421  1.00  0.00     0.197 C 
BRANCH  31  32
HETATM   32  C21 UNL     1      -4.668  16.201  20.808  1.00  0.00     0.004 A 
HETATM   33  C22 UNL     1      -3.799  17.101  21.325  1.00  0.00     0.015 A 
HETATM   34  C23 UNL     1      -4.352  18.331  21.711  1.00  0.00     0.002 A 
HETATM   35  C24 UNL     1      -5.687  18.600  21.572  1.00  0.00     0.012 A 
HETATM   36  C25 UNL     1      -6.568  17.685  21.047  1.00  0.00    -0.025 A 
HETATM   37  C26 UNL     1      -7.889  17.971  20.802  1.00  0.00     0.012 A 
HETATM   38  C30 UNL     1      -6.036  16.454  20.656  1.00  0.00    -0.013 A 
HETATM   39  C27 UNL     1      -8.669  17.022  20.161  1.00  0.00     0.001 A 
HETATM   40  C28 UNL     1      -8.140  15.806  19.774  1.00  0.00     0.001 A 
HETATM   41  C29 UNL     1      -6.792  15.494  20.019  1.00  0.00     0.013 A 
ENDBRANCH  31  32
ENDBRANCH  30  31
ENDBRANCH  14  30
TORSDOF 6
ENDMDL
MODEL 2
REMARK VINA RESULT: -10.233261680      6.075     10.920
REMARK  6 active torsions:
REMARK  status: ('A' for Active; 'I' for Inactive)
REMARK    1  A    between atoms: N2_10  and  C6_12 
REMARK    2  A    between atoms: C6_12  and  C7_13 
REMARK    3  A    between atoms: C12_18  and  C13_19 
REMARK    4  A    between atoms: C19_27  and  N4_28 
REMARK    5  A    between atoms: N4_28  and  C20_29 
REMARK    6  A    between atoms: C20_29  and  C21_30 
ROOT
HETATM    1  O1  UNL     1      -0.205  18.101  15.181  1.00  0.00    -0.272 OA
HETATM    2  C1  UNL     1       0.787  17.404  14.818  1.00  0.00     0.232 C 
HETATM    3  C2  UNL     1       1.077  16.197  15.646  1.00  0.00     0.182 C 
HETATM    4  S1  UNL     1       1.566  14.831  14.591  1.00  0.00    -0.112 SA
HETATM    5  C3  UNL     1       2.418  15.528  13.188  1.00  0.00     0.104 A 
HETATM    6  C4  UNL     1       2.345  16.852  12.908  1.00  0.00     0.145 A 
HETATM    7  N1  UNL     1       2.969  17.317  11.819  1.00  0.00    -0.175 N 
ATOM      8  H1  UNL     1       2.917  18.313  11.603  1.00  0.00     0.186 HD
HETATM    9  C5  UNL     1       3.675  16.489  10.985  1.00  0.00     0.686 A 
HETATM   10  N2  UNL     1       4.256  16.868  10.000  1.00  0.00    -0.201 N 
ATOM     11  H2  UNL     1       4.667  16.022   9.605  1.00  0.00     0.183 HD
HETATM   12  N3  UNL     1       3.712  15.154  11.318  1.00  0.00    -0.163 N 
ATOM     13  H3  UNL     1       4.235  14.528  10.705  1.00  0.00     0.187 HD
HETATM   14  C19 UNL     1       3.123  14.625  12.373  1.00  0.00     0.213 A 
HETATM   15  N5  UNL     1       1.557  17.765  13.696  1.00  0.00    -0.311 N 
ATOM     16  H5  UNL     1       1.556  18.747  13.420  1.00  0.00     0.170 HD
ENDROOT
BRANCH  10  17
HETATM   17  C6  UNL     1       4.645  17.879   9.133  1.00  0.00     0.118 C 
BRANCH  17  18
HETATM   18  C7  UNL     1       6.079  18.257   9.450  1.00  0.00    -0.009 A 
HETATM   19  C8  UNL     1       7.078  17.337   9.251  1.00  0.00     0.013 A 
HETATM   20  C9  UNL     1       8.397  17.590   9.527  1.00  0.00     0.001 A 
HETATM   21  C10 UNL     1       8.728  18.821  10.027  1.00  0.00     0.001 A 
HETATM   22  C11 UNL     1       7.760  19.774  10.247  1.00  0.00     0.013 A 
HETATM   23  C12 UNL     1       6.405  19.475   9.947  1.00  0.00    -0.014 A 
BRANCH  23  24
HETATM   24  C13 UNL     1       5.510  20.586  10.163  1.00  0.00    -0.025 A 
HETATM   25  C14 UNL     1       5.148  20.893  11.453  1.00  0.00     0.012 A 
HETATM   26  C15 UNL     1       4.370  22.023  11.661  1.00  0.00     0.001 A 
HETATM   27  C16 UNL     1       3.949  22.838  10.629  1.00  0.00     0.000 A 
HETATM   28  C17 UNL     1       4.329  22.498   9.358  1.00  0.00     0.001 A 
HETATM   29  C18 UNL     1       5.107  21.373   9.125  1.00  0.00     0.012 A 
ENDBRANCH  23  24
ENDBRANCH  17  18
ENDBRANCH  10  17
BRANCH  14  30
HETATM   30  N4  UNL     1       3.153  13.460  12.586  1.00  0.00    -0.397 NA
BRANCH  30  31
HETATM   31  C20 UNL     1       2.910  12.182  12.921  1.00  0.00     0.197 C 
BRANCH  31  32
HETATM   32  C21 UNL     1       3.446  11.288  11.804  1.00  0.00     0.004 A 
HETATM   33  C22 UNL     1       3.528  11.674  10.509  1.00  0.00     0.015 A 
HETATM   34  C23 UNL     1       3.955  10.690   9.605  1.00  0.00     0.002 A 
HETATM   35  C24 UNL     1       4.268   9.421  10.011  1.00  0.00     0.012 A 
HETATM   36  C25 UNL     1       4.184   9.031  11.326  1.00  0.00    -0.025 A 
HETATM   37  C26 UNL     1       4.594   7.797  11.769  1.00  0.00     0.012 A 
HETATM   38  C30 UNL     1       3.761   9.996  12.242  1.00  0.00    -0.013 A 
HETATM   39  C27 UNL     1       4.580   7.539  13.131  1.00  0.00     0.001 A 
HETATM   40  C28 UNL     1       4.163   8.497  14.034  1.00  0.00     0.001 A 
HETATM   41  C29 UNL     1       3.738   9.763  13.600  1.00  0.00     0.013 A 
ENDBRANCH  31  32
ENDBRANCH  30  31
ENDBRANCH  14  30
TORSDOF 6
ENDMDL
MODEL 3
REMARK VINA RESULT: -10.139666593      1.287      9.042
REMARK  6 active torsions:
REMARK  status: ('A' for Active; 'I' for Inactive)
REMARK    1  A    between atoms: N2_10  and  C6_12 
REMARK    2  A    between atoms: C6_12  and  C7_13 
REMARK    3  A    between atoms: C12_18  and  C13_19 
REMARK    4  A    between atoms: C19_27  and  N4_28 
REMARK    5  A    between atoms: N4_28  and  C20_29 
REMARK    6  A    between atoms: C20_29  and  C21_30 
ROOT
HETATM    1  O1  UNL     1      -4.906  14.189  13.339  1.00  0.00    -0.272 OA
HETATM    2  C1  UNL     1      -4.005  14.026  14.214  1.00  0.00     0.232 C 
HETATM    3  C2  UNL     1      -2.637  13.732  13.699  1.00  0.00     0.182 C 
HETATM    4  S1  UNL     1      -1.411  14.599  14.680  1.00  0.00    -0.112 SA
HETATM    5  C3  UNL     1      -2.045  14.703  16.343  1.00  0.00     0.104 A 
HETATM    6  C4  UNL     1      -3.349  14.451  16.616  1.00  0.00     0.145 A 
HETATM    7  N1  UNL     1      -3.783  14.584  17.875  1.00  0.00    -0.175 N 
ATOM      8  H1  UNL     1      -4.763  14.396  18.085  1.00  0.00     0.186 HD
HETATM    9  C5  UNL     1      -2.944  14.967  18.889  1.00  0.00     0.686 A 
HETATM   10  N2  UNL     1      -3.292  15.092  20.035  1.00  0.00    -0.201 N 
ATOM     11  H2  UNL     1      -2.450  15.389  20.527  1.00  0.00     0.183 HD
HETATM   12  N3  UNL     1      -1.632  15.212  18.553  1.00  0.00    -0.163 N 
ATOM     13  H3  UNL     1      -0.998  15.498  19.299  1.00  0.00     0.187 HD
HETATM   14  C19 UNL     1      -1.134  15.102  17.336  1.00  0.00     0.213 A 
HETATM   15  N5  UNL     1      -4.302  14.122  15.587  1.00  0.00    -0.311 N 
ATOM     16  H5  UNL     1      -5.265  13.945  15.875  1.00  0.00     0.170 HD
ENDROOT
BRANCH  10  17
HETATM   17  C6  UNL     1      -4.267  15.035  21.021  1.00  0.00     0.118 C 
BRANCH  17  18
HETATM   18  C7  UNL     1      -4.836  16.427  21.215  1.00  0.00    -0.009 A 
HETATM   19  C8  UNL     1      -4.006  17.444  21.616  1.00  0.00     0.013 A 
HETATM   20  C9  UNL     1      -4.441  18.727  21.832  1.00  0.00     0.001 A 
HETATM   21  C10 UNL     1      -5.769  19.001  21.637  1.00  0.00     0.001 A 
HETATM   22  C11 UNL     1      -6.640  18.011  21.239  1.00  0.00     0.013 A 
HETATM   23  C12 UNL     1      -6.150  16.696  21.025  1.00  0.00    -0.014 A 
BRANCH  23  24
HETATM   24  C13 UNL     1      -7.158  15.780  20.547  1.00  0.00    -0.025 A 
HETATM   25  C14 UNL     1      -7.950  15.140  21.470  1.00  0.00     0.012 A 
HETATM   26  C15 UNL     1      -8.982  14.339  21.001  1.00  0.00     0.001 A 
HETATM   27  C16 UNL     1      -9.236  14.163  19.655  1.00  0.00     0.000 A 
HETATM   28  C17 UNL     1      -8.423  14.816  18.767  1.00  0.00     0.001 A 
HETATM   29  C18 UNL     1      -7.385  15.622  19.212  1.00  0.00     0.012 A 
ENDBRANCH  23  24
ENDBRANCH  17  18
ENDBRANCH  10  17
BRANCH  14  30
HETATM   30  N4  UNL     1      -0.003  15.368  17.099  1.00  0.00    -0.397 NA
BRANCH  30  31
HETATM   31  C20 UNL     1       1.265  15.809  17.092  1.00  0.00     0.197 C 
BRANCH  31  32
HETATM   32  C21 UNL     1       1.519  16.502  15.754  1.00  0.00     0.004 A 
HETATM   33  C22 UNL     1       1.056  17.738  15.450  1.00  0.00     0.015 A 
HETATM   34  C23 UNL     1       1.304  18.177  14.141  1.00  0.00     0.002 A 
HETATM   35  C24 UNL     1       1.971  17.402  13.232  1.00  0.00     0.012 A 
HETATM   36  C25 UNL     1       2.440  16.148  13.542  1.00  0.00    -0.025 A 
HETATM   37  C26 UNL     1       3.202  15.398  12.679  1.00  0.00     0.012 A 
HETATM   38  C30 UNL     1       2.204  15.693  14.841  1.00  0.00    -0.013 A 
HETATM   39  C27 UNL     1       3.727  14.196  13.126  1.00  0.00     0.001 A 
HETATM   40  C28 UNL     1       3.493  13.750  14.413  1.00  0.00     0.001 A 
HETATM   41  C29 UNL     1       2.715  14.501  15.308  1.00  0.00     0.013 A 
ENDBRANCH  31  32
ENDBRANCH  30  31
ENDBRANCH  14  30
TORSDOF 6
ENDMDL
MODEL 4
REMARK VINA RESULT: -10.089276702      8.142     13.990
REMARK  6 active torsions:
REMARK  status: ('A' for Active; 'I' for Inactive)
REMARK    1  A    between atoms: N2_10  and  C6_12 
REMARK    2  A    between atoms: C6_12  and  C7_13 
REMARK    3  A    between atoms: C12_18  and  C13_19 
REMARK    4  A    between atoms: C19_27  and  N4_28 
REMARK    5  A    between atoms: N4_28  and  C20_29 
REMARK    6  A    between atoms: C20_29  and  C21_30 
ROOT
HETATM    1  O1  UNL     1       4.015   9.738   3.093  1.00  0.00    -0.272 OA
HETATM    2  C1  UNL     1       4.712  10.214   4.037  1.00  0.00     0.232 C 
HETATM    3  C2  UNL     1       6.112  10.594   3.691  1.00  0.00     0.182 C 
HETATM    4  S1  UNL     1       6.559  12.120   4.521  1.00  0.00    -0.112 SA
HETATM    5  C3  UNL     1       5.680  12.152   6.073  1.00  0.00     0.104 A 
HETATM    6  C4  UNL     1       4.647  11.308   6.313  1.00  0.00     0.145 A 
HETATM    7  N1  UNL     1       3.995  11.401   7.479  1.00  0.00    -0.175 N 
ATOM      8  H1  UNL     1       3.217  10.768   7.664  1.00  0.00     0.186 HD
HETATM    9  C5  UNL     1       4.346  12.325   8.428  1.00  0.00     0.686 A 
HETATM   10  N2  UNL     1       3.789  12.438   9.491  1.00  0.00    -0.201 N 
ATOM     11  H2  UNL     1       4.276  13.205   9.953  1.00  0.00     0.183 HD
HETATM   12  N3  UNL     1       5.401  13.157   8.128  1.00  0.00    -0.163 N 
ATOM     13  H3  UNL     1       5.670  13.849   8.827  1.00  0.00     0.187 HD
HETATM   14  C19 UNL     1       6.089  13.123   7.003  1.00  0.00     0.213 A 
HETATM   15  N5  UNL     1       4.175  10.366   5.330  1.00  0.00    -0.311 N 
ATOM     16  H5  UNL     1       3.393   9.765   5.590  1.00  0.00     0.170 HD
ENDROOT
BRANCH  10  17
HETATM   17  C6  UNL     1       2.818  12.045  10.400  1.00  0.00     0.118 C 
BRANCH  17  18
HETATM   18  C7  UNL     1       3.362  10.886  11.213  1.00  0.00    -0.009 A 
HETATM   19  C8  UNL     1       3.846   9.777  10.564  1.00  0.00     0.013 A 
HETATM   20  C9  UNL     1       4.339   8.679  11.222  1.00  0.00     0.001 A 
HETATM   21  C10 UNL     1       4.346   8.695  12.591  1.00  0.00     0.001 A 
HETATM   22  C11 UNL     1       3.866   9.783  13.285  1.00  0.00     0.013 A 
HETATM   23  C12 UNL     1       3.365  10.901  12.568  1.00  0.00    -0.014 A 
BRANCH  23  24
HETATM   24  C13 UNL     1       2.960  11.994  13.419  1.00  0.00    -0.025 A 
HETATM   25  C14 UNL     1       1.844  11.831  14.206  1.00  0.00     0.012 A 
HETATM   26  C15 UNL     1       1.520  12.845  15.096  1.00  0.00     0.001 A 
HETATM   27  C16 UNL     1       2.266  14.000  15.214  1.00  0.00     0.000 A 
HETATM   28  C17 UNL     1       3.369  14.127  14.411  1.00  0.00     0.001 A 
HETATM   29  C18 UNL     1       3.714  13.126  13.514  1.00  0.00     0.012 A 
ENDBRANCH  23  24
ENDBRANCH  17  18
ENDBRANCH  10  17
BRANCH  14  30
HETATM   30  N4  UNL     1       6.961  13.895   6.782  1.00  0.00    -0.397 NA
BRANCH  30  31
HETATM   31  C20 UNL     1       7.846  14.905   6.776  1.00  0.00     0.197 C 
BRANCH  31  32
HETATM   32  C21 UNL     1       8.959  14.565   7.767  1.00  0.00     0.004 A 
HETATM   33  C22 UNL     1       9.700  13.433   7.703  1.00  0.00     0.015 A 
HETATM   34  C23 UNL     1      10.612  13.241   8.751  1.00  0.00     0.002 A 
HETATM   35  C24 UNL     1      10.742  14.144   9.772  1.00  0.00     0.012 A 
HETATM   36  C25 UNL     1       9.990  15.292   9.835  1.00  0.00    -0.025 A 
HETATM   37  C26 UNL     1      10.178  16.260  10.791  1.00  0.00     0.012 A 
HETATM   38  C30 UNL     1       9.075  15.501   8.800  1.00  0.00    -0.013 A 
HETATM   39  C27 UNL     1       9.450  17.436  10.702  1.00  0.00     0.001 A 
HETATM   40  C28 UNL     1       8.548  17.641   9.676  1.00  0.00     0.001 A 
HETATM   41  C29 UNL     1       8.340  16.662   8.691  1.00  0.00     0.013 A 
ENDBRANCH  31  32
ENDBRANCH  30  31
ENDBRANCH  14  30
TORSDOF 6
ENDMDL
MODEL 5
REMARK VINA RESULT: -10.030139280      8.173     14.162
REMARK  6 active torsions:
REMARK  status: ('A' for Active; 'I' for Inactive)
REMARK    1  A    between atoms: N2_10  and  C6_12 
REMARK    2  A    between atoms: C6_12  and  C7_13 
REMARK    3  A    between atoms: C12_18  and  C13_19 
REMARK    4  A    between atoms: C19_27  and  N4_28 
REMARK    5  A    between atoms: N4_28  and  C20_29 
REMARK    6  A    between atoms: C20_29  and  C21_30 
ROOT
HETATM    1  O1  UNL     1       3.306   9.950   2.861  1.00  0.00    -0.272 OA
HETATM    2  C1  UNL     1       4.113  10.253   3.788  1.00  0.00     0.232 C 
HETATM    3  C2  UNL     1       5.530  10.473   3.377  1.00  0.00     0.182 C 
HETATM    4  S1  UNL     1       6.225  11.856   4.285  1.00  0.00    -0.112 SA
HETATM    5  C3  UNL     1       5.448  11.877   5.889  1.00  0.00     0.104 A 
HETATM    6  C4  UNL     1       4.326  11.158   6.137  1.00  0.00     0.145 A 
HETATM    7  N1  UNL     1       3.759  11.242   7.347  1.00  0.00    -0.175 N 
ATOM      8  H1  UNL     1       2.914  10.704   7.538  1.00  0.00     0.186 HD
HETATM    9  C5  UNL     1       4.285  12.033   8.335  1.00  0.00     0.686 A 
HETATM   10  N2  UNL     1       3.810  12.131   9.438  1.00  0.00    -0.201 N 
ATOM     11  H2  UNL     1       4.422  12.788   9.922  1.00  0.00     0.183 HD
HETATM   12  N3  UNL     1       5.424  12.740   8.026  1.00  0.00    -0.163 N 
ATOM     13  H3  UNL     1       5.825  13.333   8.754  1.00  0.00     0.187 HD
HETATM   14  C19 UNL     1       6.037  12.708   6.858  1.00  0.00     0.213 A 
HETATM   15  N5  UNL     1       3.676  10.369   5.122  1.00  0.00    -0.311 N 
ATOM     16  H5  UNL     1       2.835   9.857   5.389  1.00  0.00     0.170 HD
ENDROOT
BRANCH  10  17
HETATM   17  C6  UNL     1       2.847  11.796  10.379  1.00  0.00     0.118 C 
BRANCH  17  18
HETATM   18  C7  UNL     1       3.397  10.687  11.255  1.00  0.00    -0.009 A 
HETATM   19  C8  UNL     1       3.892   9.549  10.668  1.00  0.00     0.013 A 
HETATM   20  C9  UNL     1       4.391   8.491  11.386  1.00  0.00     0.001 A 
HETATM   21  C10 UNL     1       4.393   8.580  12.752  1.00  0.00     0.001 A 
HETATM   22  C11 UNL     1       3.903   9.701  13.385  1.00  0.00     0.013 A 
HETATM   23  C12 UNL     1       3.396  10.774  12.607  1.00  0.00    -0.014 A 
BRANCH  23  24
HETATM   24  C13 UNL     1       2.979  11.909  13.397  1.00  0.00    -0.025 A 
HETATM   25  C14 UNL     1       1.854  11.783  14.177  1.00  0.00     0.012 A 
HETATM   26  C15 UNL     1       1.517  12.840  15.011  1.00  0.00     0.001 A 
HETATM   27  C16 UNL     1       2.262  14.001  15.080  1.00  0.00     0.000 A 
HETATM   28  C17 UNL     1       3.374  14.088  14.286  1.00  0.00     0.001 A 
HETATM   29  C18 UNL     1       3.731  13.044  13.445  1.00  0.00     0.012 A 
ENDBRANCH  23  24
ENDBRANCH  17  18
ENDBRANCH  10  17
BRANCH  14  30
HETATM   30  N4  UNL     1       6.991  13.374   6.636  1.00  0.00    -0.397 NA
BRANCH  30  31
HETATM   31  C20 UNL     1       8.195  13.970   6.605  1.00  0.00     0.197 C 
BRANCH  31  32
HETATM   32  C21 UNL     1       8.396  14.703   7.930  1.00  0.00     0.004 A 
HETATM   33  C22 UNL     1       7.489  15.558   8.459  1.00  0.00     0.015 A 
HETATM   34  C23 UNL     1       7.883  16.214   9.634  1.00  0.00     0.002 A 
HETATM   35  C24 UNL     1       9.108  16.001  10.207  1.00  0.00     0.012 A 
HETATM   36  C25 UNL     1      10.027  15.134   9.669  1.00  0.00    -0.025 A 
HETATM   37  C26 UNL     1      11.217  14.826  10.283  1.00  0.00     0.012 A 
HETATM   38  C30 UNL     1       9.654  14.470   8.498  1.00  0.00    -0.013 A 
HETATM   39  C27 UNL     1      12.025  13.850   9.721  1.00  0.00     0.001 A 
HETATM   40  C28 UNL     1      11.652  13.194   8.564  1.00  0.00     0.001 A 
HETATM   41  C29 UNL     1      10.441  13.496   7.920  1.00  0.00     0.013 A 
ENDBRANCH  31  32
ENDBRANCH  30  31
ENDBRANCH  14  30
TORSDOF 6
ENDMDL
