MODEL 1
REMARK VINA RESULT: -12.181281100      0.000      0.000
REMARK  6 active torsions:
REMARK  status: ('A' for Active; 'I' for Inactive)
REMARK    1  A    between atoms: C3_8  and  N2_9 
REMARK    2  A    between atoms: N2_9  and  C4_11 
REMARK    3  A    between atoms: C4_11  and  C5_12 
REMARK    4  A    between atoms: C7_14  and  C8_15 
REMARK    5  A    between atoms: C18_27  and  C19_28 
REMARK    6  A    between atoms: C22_33  and  C23_34 
ROOT
HETATM    1  C5  UNL     1       1.810  14.643  15.818  1.00  0.00    -0.007 A 
HETATM    2  C6  UNL     1       2.653  14.023  14.926  1.00  0.00     0.041 A 
HETATM    3  C7  UNL     1       2.157  12.760  14.690  1.00  0.00     0.043 A 
HETATM    4  N3  UNL     1       1.039  12.637  15.434  1.00  0.00    -0.352 N 
ATOM      5  H3  UNL     1       0.453  11.803  15.465  1.00  0.00     0.166 HD
HETATM    6  C18 UNL     1       0.802  13.762  16.130  1.00  0.00     0.092 A 
ENDROOT
BRANCH   6   7
HETATM    7  C19 UNL     1      -0.308  14.023  17.052  1.00  0.00     0.176 A 
HETATM    8  N4  UNL     1      -0.978  15.181  17.186  1.00  0.00    -0.332 N 
HETATM    9  C20 UNL     1      -1.925  15.035  18.127  1.00  0.00     0.069 A 
ATOM     10  H4  UNL     1      -0.796  16.034  16.657  1.00  0.00     0.168 HD
HETATM   11  C21 UNL     1      -2.891  15.876  18.668  1.00  0.00     0.044 A 
HETATM   12  C31 UNL     1      -1.817  13.737  18.571  1.00  0.00     0.104 A 
HETATM   13  C22 UNL     1      -3.754  15.443  19.650  1.00  0.00    -0.024 A 
HETATM   14  C29 UNL     1      -3.640  14.143  20.091  1.00  0.00     0.015 A 
HETATM   15  C30 UNL     1      -2.668  13.297  19.546  1.00  0.00     0.040 A 
HETATM   16  O4  UNL     1      -0.841  13.181  17.900  1.00  0.00    -0.289 OA
BRANCH  13  17
HETATM   17  C23 UNL     1      -4.769  16.318  20.219  1.00  0.00    -0.026 A 
HETATM   18  C24 UNL     1      -4.423  17.450  20.955  1.00  0.00     0.012 A 
HETATM   19  C25 UNL     1      -5.397  18.274  21.491  1.00  0.00     0.001 A 
HETATM   20  C26 UNL     1      -6.737  17.983  21.302  1.00  0.00     0.000 A 
HETATM   21  C27 UNL     1      -7.091  16.881  20.585  1.00  0.00     0.001 A 
HETATM   22  C28 UNL     1      -6.113  16.065  20.055  1.00  0.00     0.012 A 
ENDBRANCH  13  17
ENDBRANCH   6   7
BRANCH   1  23
HETATM   23  C4  UNL     1       2.016  16.032  16.317  1.00  0.00     0.162 C 
BRANCH  23  24
HETATM   24  N2  UNL     1       1.982  16.948  15.221  1.00  0.00    -0.367 N 
ATOM     25  H2  UNL     1       2.815  17.514  15.062  1.00  0.00     0.161 HD
BRANCH  24  26
HETATM   26  C3  UNL     1       0.999  17.120  14.420  1.00  0.00     0.184 A 
HETATM   27  C2  UNL     1      -0.214  17.650  14.774  1.00  0.00     0.349 A 
HETATM   28  O2  UNL     1      -1.160  17.790  13.896  1.00  0.00    -0.188 OA
HETATM   29  O3  UNL     1      -0.460  18.017  15.947  1.00  0.00    -0.254 OA
HETATM   30  N1  UNL     1      -1.068  17.460  12.639  1.00  0.00    -0.207 N 
HETATM   31  C1  UNL     1       0.109  16.938  12.259  1.00  0.00     0.346 A 
ATOM     32  H1  UNL     1      -1.840  17.591  11.986  1.00  0.00     0.200 HD
HETATM   33  O1  UNL     1       0.295  16.587  11.060  1.00  0.00    -0.245 OA
HETATM   34  N5  UNL     1       1.128  16.763  13.104  1.00  0.00    -0.288 N 
ATOM     35  H5  UNL     1       2.004  16.362  12.769  1.00  0.00     0.172 HD
ENDBRANCH  24  26
ENDBRANCH  23  24
ENDBRANCH   1  23
BRANCH   3  36
HETATM   36  C8  UNL     1       2.719  11.741  13.812  1.00  0.00    -0.009 A 
HETATM   37  C9  UNL     1       2.794  12.006  12.474  1.00  0.00     0.014 A 
HETATM   38  C10 UNL     1       3.323  11.062  11.591  1.00  0.00     0.013 A 
HETATM   39  C11 UNL     1       3.778   9.847  12.051  1.00  0.00    -0.026 A 
HETATM   40  C12 UNL     1       4.300   8.913  11.180  1.00  0.00     0.012 A 
HETATM   41  C16 UNL     1       3.692   9.601  13.403  1.00  0.00    -0.025 A 
HETATM   42  C13 UNL     1       4.758   7.689  11.653  1.00  0.00     0.001 A 
HETATM   43  C14 UNL     1       4.664   7.459  13.009  1.00  0.00     0.001 A 
HETATM   44  C15 UNL     1       4.144   8.387  13.883  1.00  0.00     0.012 A 
HETATM   45  C17 UNL     1       3.171  10.532  14.278  1.00  0.00     0.026 A 
ENDBRANCH   3  36
TORSDOF 6
ENDMDL
MODEL 2
REMARK VINA RESULT: -12.016562833      1.513      2.471
REMARK  6 active torsions:
REMARK  status: ('A' for Active; 'I' for Inactive)
REMARK    1  A    between atoms: C3_8  and  N2_9 
REMARK    2  A    between atoms: N2_9  and  C4_11 
REMARK    3  A    between atoms: C4_11  and  C5_12 
REMARK    4  A    between atoms: C7_14  and  C8_15 
REMARK    5  A    between atoms: C18_27  and  C19_28 
REMARK    6  A    between atoms: C22_33  and  C23_34 
ROOT
HETATM    1  C5  UNL     1       0.676  14.362  14.226  1.00  0.00    -0.007 A 
HETATM    2  C6  UNL     1       1.529  13.690  13.383  1.00  0.00     0.041 A 
HETATM    3  C7  UNL     1       1.611  12.387  13.821  1.00  0.00     0.043 A 
HETATM    4  N3  UNL     1       0.818  12.293  14.908  1.00  0.00    -0.352 N 
ATOM      5  H3  UNL     1       0.679  11.441  15.450  1.00  0.00     0.166 HD
HETATM    6  C18 UNL     1       0.237  13.475  15.179  1.00  0.00     0.092 A 
ENDROOT
BRANCH   6   7
HETATM    7  C19 UNL     1      -0.687  13.782  16.274  1.00  0.00     0.176 A 
HETATM    8  N4  UNL     1      -1.268  14.970  16.517  1.00  0.00    -0.332 N 
HETATM    9  C20 UNL     1      -2.049  14.864  17.606  1.00  0.00     0.069 A 
ATOM     10  H4  UNL     1      -1.138  15.817  15.964  1.00  0.00     0.168 HD
HETATM   11  C21 UNL     1      -2.867  15.747  18.301  1.00  0.00     0.044 A 
HETATM   12  C31 UNL     1      -1.929  13.560  18.028  1.00  0.00     0.104 A 
HETATM   13  C22 UNL     1      -3.571  15.350  19.416  1.00  0.00    -0.024 A 
HETATM   14  C29 UNL     1      -3.447  14.044  19.835  1.00  0.00     0.015 A 
HETATM   15  C30 UNL     1      -2.623  13.155  19.134  1.00  0.00     0.040 A 
HETATM   16  O4  UNL     1      -1.109  12.962  17.203  1.00  0.00    -0.289 OA
BRANCH  13  17
HETATM   17  C23 UNL     1      -4.432  16.269  20.147  1.00  0.00    -0.026 A 
HETATM   18  C24 UNL     1      -5.819  16.129  20.136  1.00  0.00     0.012 A 
HETATM   19  C25 UNL     1      -6.628  17.009  20.835  1.00  0.00     0.001 A 
HETATM   20  C26 UNL     1      -6.065  18.045  21.560  1.00  0.00     0.000 A 
HETATM   21  C27 UNL     1      -4.711  18.194  21.581  1.00  0.00     0.001 A 
HETATM   22  C28 UNL     1      -3.914  17.313  20.881  1.00  0.00     0.012 A 
ENDBRANCH  13  17
ENDBRANCH   6   7
BRANCH   1  23
HETATM   23  C4  UNL     1       0.332  15.804  14.071  1.00  0.00     0.162 C 
BRANCH  23  24
HETATM   24  N2  UNL     1       1.496  16.603  14.285  1.00  0.00    -0.367 N 
ATOM     25  H2  UNL     1       2.074  16.810  13.471  1.00  0.00     0.161 HD
BRANCH  24  26
HETATM   26  C3  UNL     1       1.878  17.083  15.408  1.00  0.00     0.184 A 
HETATM   27  C2  UNL     1       2.141  18.406  15.646  1.00  0.00     0.349 A 
HETATM   28  O2  UNL     1       2.524  18.809  16.818  1.00  0.00    -0.188 OA
HETATM   29  O3  UNL     1       2.024  19.275  14.750  1.00  0.00    -0.254 OA
HETATM   30  N1  UNL     1       2.694  18.037  17.855  1.00  0.00    -0.207 N 
HETATM   31  C1  UNL     1       2.444  16.733  17.656  1.00  0.00     0.346 A 
ATOM     32  H1  UNL     1       2.996  18.401  18.758  1.00  0.00     0.200 HD
HETATM   33  O1  UNL     1       2.580  15.905  18.601  1.00  0.00    -0.245 OA
HETATM   34  N5  UNL     1       2.047  16.244  16.479  1.00  0.00    -0.288 N 
ATOM     35  H5  UNL     1       1.868  15.245  16.376  1.00  0.00     0.172 HD
ENDBRANCH  24  26
ENDBRANCH  23  24
ENDBRANCH   1  23
BRANCH   3  36
HETATM   36  C8  UNL     1       2.398  11.307  13.238  1.00  0.00    -0.009 A 
HETATM   37  C9  UNL     1       2.518  11.252  11.878  1.00  0.00     0.014 A 
HETATM   38  C10 UNL     1       3.260  10.237  11.271  1.00  0.00     0.013 A 
HETATM   39  C11 UNL     1       3.883   9.272  12.030  1.00  0.00    -0.026 A 
HETATM   40  C12 UNL     1       4.617   8.267  11.431  1.00  0.00     0.012 A 
HETATM   41  C16 UNL     1       3.748   9.346  13.398  1.00  0.00    -0.025 A 
HETATM   42  C13 UNL     1       5.242   7.297  12.205  1.00  0.00     0.001 A 
HETATM   43  C14 UNL     1       5.097   7.387  13.573  1.00  0.00     0.001 A 
HETATM   44  C15 UNL     1       4.367   8.387  14.176  1.00  0.00     0.012 A 
HETATM   45  C17 UNL     1       3.016  10.349  14.001  1.00  0.00     0.026 A 
ENDBRANCH   3  36
TORSDOF 6
ENDMDL
MODEL 3
REMARK VINA RESULT: -11.878940684      0.597      1.437
REMARK  6 active torsions:
REMARK  status: ('A' for Active; 'I' for Inactive)
REMARK    1  A    between atoms: C3_8  and  N2_9 
REMARK    2  A    between atoms: N2_9  and  C4_11 
REMARK    3  A    between atoms: C4_11  and  C5_12 
REMARK    4  A    between atoms: C7_14  and  C8_15 
REMARK    5  A    between atoms: C18_27  and  C19_28 
REMARK    6  A    between atoms: C22_33  and  C23_34 
ROOT
HETATM    1  C5  UNL     1       1.888  14.700  15.779  1.00  0.00    -0.007 A 
HETATM    2  C6  UNL     1       2.710  14.122  14.841  1.00  0.00     0.041 A 
HETATM    3  C7  UNL     1       2.163  12.907  14.495  1.00  0.00     0.043 A 
HETATM    4  N3  UNL     1       1.034  12.770  15.220  1.00  0.00    -0.352 N 
ATOM      5  H3  UNL     1       0.412  11.963  15.176  1.00  0.00     0.166 HD
HETATM    6  C18 UNL     1       0.840  13.841  16.010  1.00  0.00     0.092 A 
ENDROOT
BRANCH   6   7
HETATM    7  C19 UNL     1      -0.266  14.070  16.944  1.00  0.00     0.176 A 
HETATM    8  N4  UNL     1      -0.964  15.210  17.089  1.00  0.00    -0.332 N 
HETATM    9  C20 UNL     1      -1.897  15.036  18.042  1.00  0.00     0.069 A 
ATOM     10  H4  UNL     1      -0.811  16.069  16.561  1.00  0.00     0.168 HD
HETATM   11  C21 UNL     1      -2.878  15.851  18.596  1.00  0.00     0.044 A 
HETATM   12  C31 UNL     1      -1.750  13.741  18.480  1.00  0.00     0.104 A 
HETATM   13  C22 UNL     1      -3.717  15.393  19.586  1.00  0.00    -0.024 A 
HETATM   14  C29 UNL     1      -3.565  14.095  20.022  1.00  0.00     0.015 A 
HETATM   15  C30 UNL     1      -2.577  13.276  19.463  1.00  0.00     0.040 A 
HETATM   16  O4  UNL     1      -0.767  13.212  17.796  1.00  0.00    -0.289 OA
BRANCH  13  17
HETATM   17  C23 UNL     1      -4.748  16.239  20.170  1.00  0.00    -0.026 A 
HETATM   18  C24 UNL     1      -4.423  17.368  20.920  1.00  0.00     0.012 A 
HETATM   19  C25 UNL     1      -5.412  18.165  21.470  1.00  0.00     0.001 A 
HETATM   20  C26 UNL     1      -6.746  17.850  21.280  1.00  0.00     0.000 A 
HETATM   21  C27 UNL     1      -7.080  16.751  20.549  1.00  0.00     0.001 A 
HETATM   22  C28 UNL     1      -6.088  15.962  20.005  1.00  0.00     0.012 A 
ENDBRANCH  13  17
ENDBRANCH   6   7
BRANCH   1  23
HETATM   23  C4  UNL     1       2.149  16.030  16.396  1.00  0.00     0.162 C 
BRANCH  23  24
HETATM   24  N2  UNL     1       2.100  17.046  15.392  1.00  0.00    -0.367 N 
ATOM     25  H2  UNL     1       2.902  17.671  15.324  1.00  0.00     0.161 HD
BRANCH  24  26
HETATM   26  C3  UNL     1       1.138  17.239  14.571  1.00  0.00     0.184 A 
HETATM   27  C2  UNL     1      -0.079  17.774  14.903  1.00  0.00     0.349 A 
HETATM   28  O2  UNL     1      -1.001  17.937  14.005  1.00  0.00    -0.188 OA
HETATM   29  O3  UNL     1      -0.350  18.126  16.075  1.00  0.00    -0.254 OA
HETATM   30  N1  UNL     1      -0.881  17.625  12.745  1.00  0.00    -0.207 N 
HETATM   31  C1  UNL     1       0.300  17.098  12.386  1.00  0.00     0.346 A 
ATOM     32  H1  UNL     1      -1.636  17.773  12.075  1.00  0.00     0.200 HD
HETATM   33  O1  UNL     1       0.512  16.764  11.186  1.00  0.00    -0.245 OA
HETATM   34  N5  UNL     1       1.297  16.901  13.253  1.00  0.00    -0.288 N 
ATOM     35  H5  UNL     1       2.177  16.498  12.933  1.00  0.00     0.172 HD
ENDBRANCH  24  26
ENDBRANCH  23  24
ENDBRANCH   1  23
BRANCH   3  36
HETATM   36  C8  UNL     1       2.687  11.943  13.535  1.00  0.00    -0.009 A 
HETATM   37  C9  UNL     1       2.993  10.687  13.978  1.00  0.00     0.014 A 
HETATM   38  C10 UNL     1       3.499   9.727  13.099  1.00  0.00     0.013 A 
HETATM   39  C11 UNL     1       3.699  10.028  11.770  1.00  0.00    -0.026 A 
HETATM   40  C12 UNL     1       4.199   9.080  10.900  1.00  0.00     0.012 A 
HETATM   41  C16 UNL     1       3.383  11.299  11.346  1.00  0.00    -0.025 A 
HETATM   42  C13 UNL     1       4.397   9.392   9.560  1.00  0.00     0.001 A 
HETATM   43  C14 UNL     1       4.076  10.669   9.153  1.00  0.00     0.001 A 
HETATM   44  C15 UNL     1       3.577  11.618  10.016  1.00  0.00     0.012 A 
HETATM   45  C17 UNL     1       2.883  12.249  12.212  1.00  0.00     0.026 A 
ENDBRANCH   3  36
TORSDOF 6
ENDMDL
MODEL 4
REMARK VINA RESULT: -11.831246817      0.887      1.196
REMARK  6 active torsions:
REMARK  status: ('A' for Active; 'I' for Inactive)
REMARK    1  A    between atoms: C3_8  and  N2_9 
REMARK    2  A    between atoms: N2_9  and  C4_11 
REMARK    3  A    between atoms: C4_11  and  C5_12 
REMARK    4  A    between atoms: C7_14  and  C8_15 
REMARK    5  A    between atoms: C18_27  and  C19_28 
REMARK    6  A    between atoms: C22_33  and  C23_34 
ROOT
HETATM    1  C5  UNL     1       1.918  14.397  15.231  1.00  0.00    -0.007 A 
HETATM    2  C6  UNL     1       2.832  13.680  14.496  1.00  0.00     0.041 A 
HETATM    3  C7  UNL     1       2.283  12.444  14.234  1.00  0.00     0.043 A 
HETATM    4  N3  UNL     1       1.062  12.433  14.808  1.00  0.00    -0.352 N 
ATOM      5  H3  UNL     1       0.417  11.644  14.781  1.00  0.00     0.166 HD
HETATM    6  C18 UNL     1       0.812  13.603  15.421  1.00  0.00     0.092 A 
ENDROOT
BRANCH   6   7
HETATM    7  C19 UNL     1      -0.397  13.982  16.158  1.00  0.00     0.176 A 
HETATM    8  N4  UNL     1      -0.481  14.903  17.133  1.00  0.00    -0.332 N 
HETATM    9  C20 UNL     1      -1.751  14.972  17.566  1.00  0.00     0.069 A 
ATOM     10  H4  UNL     1       0.296  15.461  17.488  1.00  0.00     0.168 HD
HETATM   11  C21 UNL     1      -2.406  15.728  18.533  1.00  0.00     0.044 A 
HETATM   12  C31 UNL     1      -2.454  14.056  16.817  1.00  0.00     0.104 A 
HETATM   13  C22 UNL     1      -3.755  15.584  18.766  1.00  0.00    -0.024 A 
HETATM   14  C29 UNL     1      -4.453  14.664  18.014  1.00  0.00     0.015 A 
HETATM   15  C30 UNL     1      -3.793  13.904  17.041  1.00  0.00     0.040 A 
HETATM   16  O4  UNL     1      -1.602  13.496  15.997  1.00  0.00    -0.289 OA
BRANCH  13  17
HETATM   17  C23 UNL     1      -4.447  16.374  19.775  1.00  0.00    -0.026 A 
HETATM   18  C24 UNL     1      -5.796  16.169  20.057  1.00  0.00     0.012 A 
HETATM   19  C25 UNL     1      -6.444  16.926  21.019  1.00  0.00     0.001 A 
HETATM   20  C26 UNL     1      -5.755  17.902  21.717  1.00  0.00     0.000 A 
HETATM   21  C27 UNL     1      -4.435  18.114  21.453  1.00  0.00     0.001 A 
HETATM   22  C28 UNL     1      -3.799  17.354  20.493  1.00  0.00     0.012 A 
ENDBRANCH  13  17
ENDBRANCH   6   7
BRANCH   1  23
HETATM   23  C4  UNL     1       2.153  15.789  15.706  1.00  0.00     0.162 C 
BRANCH  23  24
HETATM   24  N2  UNL     1       1.971  16.705  14.624  1.00  0.00    -0.367 N 
ATOM     25  H2  UNL     1       2.787  17.235  14.320  1.00  0.00     0.161 HD
BRANCH  24  26
HETATM   26  C3  UNL     1       0.873  16.918  14.002  1.00  0.00     0.184 A 
HETATM   27  C2  UNL     1      -0.257  17.446  14.568  1.00  0.00     0.349 A 
HETATM   28  O2  UNL     1      -1.331  17.630  13.863  1.00  0.00    -0.188 OA
HETATM   29  O3  UNL     1      -0.302  17.770  15.778  1.00  0.00    -0.254 OA
HETATM   30  N1  UNL     1      -1.451  17.348  12.597  1.00  0.00    -0.207 N 
HETATM   31  C1  UNL     1      -0.361  16.829  12.011  1.00  0.00     0.346 A 
ATOM     32  H1  UNL     1      -2.317  17.512  12.084  1.00  0.00     0.200 HD
HETATM   33  O1  UNL     1      -0.379  16.522  10.785  1.00  0.00    -0.245 OA
HETATM   34  N5  UNL     1       0.780  16.610  12.670  1.00  0.00    -0.288 N 
ATOM     35  H5  UNL     1       1.582  16.214  12.182  1.00  0.00     0.172 HD
ENDBRANCH  24  26
ENDBRANCH  23  24
ENDBRANCH   1  23
BRANCH   3  36
HETATM   36  C8  UNL     1       2.888  11.349  13.485  1.00  0.00    -0.009 A 
HETATM   37  C9  UNL     1       2.939  11.444  12.124  1.00  0.00     0.014 A 
HETATM   38  C10 UNL     1       3.508  10.422  11.361  1.00  0.00     0.013 A 
HETATM   39  C11 UNL     1       4.027   9.299  11.967  1.00  0.00    -0.026 A 
HETATM   40  C12 UNL     1       4.589   8.287  11.214  1.00  0.00     0.012 A 
HETATM   41  C16 UNL     1       3.963   9.224  13.340  1.00  0.00    -0.025 A 
HETATM   42  C13 UNL     1       5.110   7.157  11.833  1.00  0.00     0.001 A 
HETATM   43  C14 UNL     1       5.038   7.100  13.209  1.00  0.00     0.001 A 
HETATM   44  C15 UNL     1       4.479   8.105  13.964  1.00  0.00     0.012 A 
HETATM   45  C17 UNL     1       3.403  10.233  14.096  1.00  0.00     0.026 A 
ENDBRANCH   3  36
TORSDOF 6
ENDMDL
MODEL 5
REMARK VINA RESULT: -11.763909189      0.741      1.234
REMARK  6 active torsions:
REMARK  status: ('A' for Active; 'I' for Inactive)
REMARK    1  A    between atoms: C3_8  and  N2_9 
REMARK    2  A    between atoms: N2_9  and  C4_11 
REMARK    3  A    between atoms: C4_11  and  C5_12 
REMARK    4  A    between atoms: C7_14  and  C8_15 
REMARK    5  A    between atoms: C18_27  and  C19_28 
REMARK    6  A    between atoms: C22_33  and  C23_34 
ROOT
HETATM    1  C5  UNL     1       1.760  14.667  15.725  1.00  0.00    -0.007 A 
HETATM    2  C6  UNL     1       2.603  14.046  14.834  1.00  0.00     0.041 A 
HETATM    3  C7  UNL     1       2.134  12.766  14.636  1.00  0.00     0.043 A 
HETATM    4  N3  UNL     1       1.030  12.635  15.400  1.00  0.00    -0.352 N 
ATOM      5  H3  UNL     1       0.465  11.789  15.460  1.00  0.00     0.166 HD
HETATM    6  C18 UNL     1       0.778  13.771  16.073  1.00  0.00     0.092 A 
ENDROOT
BRANCH   6   7
HETATM    7  C19 UNL     1      -0.324  14.028  17.006  1.00  0.00     0.176 A 
HETATM    8  N4  UNL     1      -1.003  15.180  17.140  1.00  0.00    -0.332 N 
HETATM    9  C20 UNL     1      -1.938  15.032  18.094  1.00  0.00     0.069 A 
ATOM     10  H4  UNL     1      -0.835  16.032  16.604  1.00  0.00     0.168 HD
HETATM   11  C21 UNL     1      -2.905  15.868  18.640  1.00  0.00     0.044 A 
HETATM   12  C31 UNL     1      -1.813  13.738  18.545  1.00  0.00     0.104 A 
HETATM   13  C22 UNL     1      -3.753  15.434  19.634  1.00  0.00    -0.024 A 
HETATM   14  C29 UNL     1      -3.621  14.138  20.083  1.00  0.00     0.015 A 
HETATM   15  C30 UNL     1      -2.648  13.297  19.532  1.00  0.00     0.040 A 
HETATM   16  O4  UNL     1      -0.839  13.186  17.866  1.00  0.00    -0.289 OA
BRANCH  13  17
HETATM   17  C23 UNL     1      -4.769  16.303  20.210  1.00  0.00    -0.026 A 
HETATM   18  C24 UNL     1      -4.425  17.439  20.940  1.00  0.00     0.012 A 
HETATM   19  C25 UNL     1      -5.400  18.259  21.482  1.00  0.00     0.001 A 
HETATM   20  C26 UNL     1      -6.739  17.958  21.305  1.00  0.00     0.000 A 
HETATM   21  C27 UNL     1      -7.092  16.851  20.593  1.00  0.00     0.001 A 
HETATM   22  C28 UNL     1      -6.113  16.041  20.057  1.00  0.00     0.012 A 
ENDBRANCH  13  17
ENDBRANCH   6   7
BRANCH   1  23
HETATM   23  C4  UNL     1       1.941  16.072  16.187  1.00  0.00     0.162 C 
BRANCH  23  24
HETATM   24  N2  UNL     1       1.990  16.948  15.060  1.00  0.00    -0.367 N 
ATOM     25  H2  UNL     1       2.726  17.654  15.052  1.00  0.00     0.161 HD
BRANCH  24  26
HETATM   26  C3  UNL     1       1.193  16.925  14.059  1.00  0.00     0.184 A 
HETATM   27  C2  UNL     1       1.580  16.779  12.753  1.00  0.00     0.349 A 
HETATM   28  O2  UNL     1       0.703  16.766  11.797  1.00  0.00    -0.188 OA
HETATM   29  O3  UNL     1       2.784  16.654  12.430  1.00  0.00    -0.254 OA
HETATM   30  N1  UNL     1      -0.585  16.884  11.962  1.00  0.00    -0.207 N 
HETATM   31  C1  UNL     1      -0.998  17.028  13.231  1.00  0.00     0.346 A 
ATOM     32  H1  UNL     1      -1.236  16.867  11.178  1.00  0.00     0.200 HD
HETATM   33  O1  UNL     1      -2.228  17.150  13.493  1.00  0.00    -0.245 OA
HETATM   34  N5  UNL     1      -0.155  17.051  14.267  1.00  0.00    -0.288 N 
ATOM     35  H5  UNL     1      -0.516  17.163  15.214  1.00  0.00     0.172 HD
ENDBRANCH  24  26
ENDBRANCH  23  24
ENDBRANCH   1  23
BRANCH   3  36
HETATM   36  C8  UNL     1       2.705  11.739  13.773  1.00  0.00    -0.009 A 
HETATM   37  C9  UNL     1       2.796  11.993  12.434  1.00  0.00     0.014 A 
HETATM   38  C10 UNL     1       3.336  11.042  11.565  1.00  0.00     0.013 A 
HETATM   39  C11 UNL     1       3.785   9.831  12.041  1.00  0.00    -0.026 A 
HETATM   40  C12 UNL     1       4.318   8.889  11.184  1.00  0.00     0.012 A 
HETATM   41  C16 UNL     1       3.684   9.597  13.394  1.00  0.00    -0.025 A 
HETATM   42  C13 UNL     1       4.770   7.669  11.673  1.00  0.00     0.001 A 
HETATM   43  C14 UNL     1       4.661   7.452  13.030  1.00  0.00     0.001 A 
HETATM   44  C15 UNL     1       4.131   8.387  13.890  1.00  0.00     0.012 A 
HETATM   45  C17 UNL     1       3.152  10.535  14.255  1.00  0.00     0.026 A 
ENDBRANCH   3  36
TORSDOF 6
ENDMDL
