MODEL 1
REMARK VINA RESULT: -3.897270579      0.000      0.000
REMARK  4 active torsions:
REMARK  status: ('A' for Active; 'I' for Inactive)
REMARK    1  A    between atoms: C2_2  and  C3_3 
REMARK    2  A    between atoms: C3_3  and  N1_4 
REMARK    3  A    between atoms: N1_4  and  C4_7 
REMARK    4  A    between atoms: C8_14  and  N3_15 
ROOT
HETATM    1  C4  UNL     1       2.820  -2.200   8.582  1.00  0.00     0.219 C 
HETATM    2  C5  UNL     1       2.748  -3.523   7.910  1.00  0.00     0.062 C 
HETATM    3  C6  UNL     1       1.466  -4.278   8.141  1.00  0.00     0.234 C 
HETATM    4  N2  UNL     1       0.445  -3.503   8.803  1.00  0.00    -0.073 N 
ATOM      5  H21 UNL     1       0.610  -3.384   9.802  1.00  0.00     0.277 HD
ATOM      6  H22 UNL     1      -0.448  -3.989   8.879  1.00  0.00     0.277 HD
HETATM    7  C7  UNL     1       0.358  -2.242   8.076  1.00  0.00     0.267 C 
HETATM    8  C8  UNL     1       1.538  -1.422   8.590  1.00  0.00     0.239 C 
ENDROOT
BRANCH   1   9
HETATM    9  N1  UNL     1       3.928  -1.419   8.105  1.00  0.00    -0.066 N 
ATOM     10  H12 UNL     1       4.157  -0.662   8.749  1.00  0.00     0.278 HD
ATOM     11  H11 UNL     1       3.669  -0.860   7.292  1.00  0.00     0.278 HD
BRANCH   9  12
HETATM   12  C3  UNL     1       5.093  -2.256   7.828  1.00  0.00     0.259 C 
BRANCH  12  13
HETATM   13  C2  UNL     1       6.311  -1.728   8.498  1.00  0.00    -0.010 C 
HETATM   14  C1  UNL     1       7.246  -1.094   7.835  1.00  0.00     0.008 C 
ENDBRANCH  12  13
ENDBRANCH   9  12
ENDBRANCH   1   9
BRANCH   8  15
HETATM   15  N3  UNL     1       1.549  -0.216   7.828  1.00  0.00    -0.071 N 
ATOM     16  H33 UNL     1       1.381   0.584   8.437  1.00  0.00     0.274 HD
ATOM     17  H32 UNL     1       2.497  -0.009   7.516  1.00  0.00     0.274 HD
ATOM     18  H31 UNL     1       0.907  -0.194   7.035  1.00  0.00     0.274 HD
ENDBRANCH   8  15
TORSDOF 4
ENDMDL
MODEL 2
REMARK VINA RESULT: -3.823086583     12.093     12.829
REMARK  4 active torsions:
REMARK  status: ('A' for Active; 'I' for Inactive)
REMARK    1  A    between atoms: C2_2  and  C3_3 
REMARK    2  A    between atoms: C3_3  and  N1_4 
REMARK    3  A    between atoms: N1_4  and  C4_7 
REMARK    4  A    between atoms: C8_14  and  N3_15 
ROOT
HETATM    1  C4  UNL     1       6.890  -1.452  20.488  1.00  0.00     0.219 C 
HETATM    2  C5  UNL     1       5.476  -1.376  20.040  1.00  0.00     0.062 C 
HETATM    3  C6  UNL     1       4.467  -1.265  21.154  1.00  0.00     0.234 C 
HETATM    4  N2  UNL     1       5.056  -1.044  22.452  1.00  0.00    -0.073 N 
ATOM      5  H21 UNL     1       5.478  -1.882  22.854  1.00  0.00     0.277 HD
ATOM      6  H22 UNL     1       4.368  -0.885  23.187  1.00  0.00     0.277 HD
HETATM    7  C7  UNL     1       5.997   0.057  22.289  1.00  0.00     0.267 C 
HETATM    8  C8  UNL     1       7.232  -0.584  21.662  1.00  0.00     0.239 C 
ENDROOT
BRANCH   1   9
HETATM    9  N1  UNL     1       7.806  -1.273  19.394  1.00  0.00    -0.066 N 
ATOM     10  H12 UNL     1       8.752  -1.559  19.649  1.00  0.00     0.278 HD
ATOM     11  H11 UNL     1       7.984  -0.286  19.213  1.00  0.00     0.278 HD
BRANCH   9  12
HETATM   12  C3  UNL     1       7.345  -1.964  18.192  1.00  0.00     0.259 C 
BRANCH  12  13
HETATM   13  C2  UNL     1       8.439  -2.757  17.569  1.00  0.00    -0.010 C 
HETATM   14  C1  UNL     1       8.890  -2.488  16.369  1.00  0.00     0.008 C 
ENDBRANCH  12  13
ENDBRANCH   9  12
ENDBRANCH   1   9
BRANCH   8  15
HETATM   15  N3  UNL     1       8.141   0.482  21.392  1.00  0.00    -0.071 N 
ATOM     16  H33 UNL     1       8.614   0.321  20.503  1.00  0.00     0.274 HD
ATOM     17  H32 UNL     1       7.625   1.333  21.169  1.00  0.00     0.274 HD
ATOM     18  H31 UNL     1       8.825   0.670  22.124  1.00  0.00     0.274 HD
ENDBRANCH   8  15
TORSDOF 4
ENDMDL
MODEL 3
REMARK VINA RESULT: -3.722680769     14.925     15.667
REMARK  4 active torsions:
REMARK  status: ('A' for Active; 'I' for Inactive)
REMARK    1  A    between atoms: C2_2  and  C3_3 
REMARK    2  A    between atoms: C3_3  and  N1_4 
REMARK    3  A    between atoms: N1_4  and  C4_7 
REMARK    4  A    between atoms: C8_14  and  N3_15 
ROOT
HETATM    1  C4  UNL     1       6.978  -0.168  22.990  1.00  0.00     0.219 C 
HETATM    2  C5  UNL     1       6.706  -1.527  23.523  1.00  0.00     0.062 C 
HETATM    3  C6  UNL     1       5.766  -2.356  22.686  1.00  0.00     0.234 C 
HETATM    4  N2  UNL     1       5.454  -1.767  21.407  1.00  0.00    -0.073 N 
ATOM      5  H21 UNL     1       4.792  -0.993  21.468  1.00  0.00     0.277 HD
ATOM      6  H22 UNL     1       4.887  -2.370  20.811  1.00  0.00     0.277 HD
HETATM    7  C7  UNL     1       6.730  -1.393  20.809  1.00  0.00     0.267 C 
HETATM    8  C8  UNL     1       7.107  -0.085  21.498  1.00  0.00     0.239 C 
ENDROOT
BRANCH   1   9
HETATM    9  N1  UNL     1       8.081   0.460  23.666  1.00  0.00    -0.066 N 
ATOM     10  H12 UNL     1       8.601   1.076  23.042  1.00  0.00     0.278 HD
ATOM     11  H11 UNL     1       8.820  -0.210  23.877  1.00  0.00     0.278 HD
BRANCH   9  12
HETATM   12  C3  UNL     1       7.640   1.165  24.868  1.00  0.00     0.259 C 
BRANCH  12  13
HETATM   13  C2  UNL     1       6.726   2.289  24.532  1.00  0.00    -0.010 C 
HETATM   14  C1  UNL     1       6.856   3.472  25.077  1.00  0.00     0.008 C 
ENDBRANCH  12  13
ENDBRANCH   9  12
ENDBRANCH   1   9
BRANCH   8  15
HETATM   15  N3  UNL     1       8.403   0.263  21.013  1.00  0.00    -0.071 N 
ATOM     16  H33 UNL     1       9.012  -0.555  21.028  1.00  0.00     0.274 HD
ATOM     17  H32 UNL     1       8.364   0.440  20.009  1.00  0.00     0.274 HD
ATOM     18  H31 UNL     1       8.853   1.044  21.489  1.00  0.00     0.274 HD
ENDBRANCH   8  15
TORSDOF 4
ENDMDL
MODEL 4
REMARK VINA RESULT: -3.704755906     13.506     14.414
REMARK  4 active torsions:
REMARK  status: ('A' for Active; 'I' for Inactive)
REMARK    1  A    between atoms: C2_2  and  C3_3 
REMARK    2  A    between atoms: C3_3  and  N1_4 
REMARK    3  A    between atoms: N1_4  and  C4_7 
REMARK    4  A    between atoms: C8_14  and  N3_15 
ROOT
HETATM    1  C4  UNL     1       6.209  -0.602  21.712  1.00  0.00     0.219 C 
HETATM    2  C5  UNL     1       7.406   0.273  21.796  1.00  0.00     0.062 C 
HETATM    3  C6  UNL     1       7.611   0.932  23.135  1.00  0.00     0.234 C 
HETATM    4  N2  UNL     1       6.730   0.441  24.166  1.00  0.00    -0.073 N 
ATOM      5  H21 UNL     1       5.776   0.794  24.087  1.00  0.00     0.277 HD
ATOM      6  H22 UNL     1       6.930   0.827  25.088  1.00  0.00     0.277 HD
HETATM    7  C7  UNL     1       6.816  -1.013  24.116  1.00  0.00     0.267 C 
HETATM    8  C8  UNL     1       5.924  -1.409  22.943  1.00  0.00     0.239 C 
ENDROOT
BRANCH   1   9
HETATM    9  N1  UNL     1       6.222  -1.410  20.522  1.00  0.00    -0.066 N 
ATOM     10  H12 UNL     1       5.419  -1.209  19.925  1.00  0.00     0.278 HD
ATOM     11  H11 UNL     1       6.021  -2.388  20.733  1.00  0.00     0.278 HD
BRANCH   9  12
HETATM   12  C3  UNL     1       7.479  -1.268  19.793  1.00  0.00     0.259 C 
BRANCH  12  13
HETATM   13  C2  UNL     1       7.375  -1.826  18.418  1.00  0.00    -0.010 C 
HETATM   14  C1  UNL     1       8.368  -2.469  17.856  1.00  0.00     0.008 C 
ENDBRANCH  12  13
ENDBRANCH   9  12
ENDBRANCH   1   9
BRANCH   8  15
HETATM   15  N3  UNL     1       6.062  -2.821  22.795  1.00  0.00    -0.071 N 
ATOM     16  H33 UNL     1       6.633  -3.033  21.977  1.00  0.00     0.274 HD
ATOM     17  H32 UNL     1       6.660  -3.193  23.533  1.00  0.00     0.274 HD
ATOM     18  H31 UNL     1       5.187  -3.345  22.757  1.00  0.00     0.274 HD
ENDBRANCH   8  15
TORSDOF 4
ENDMDL
MODEL 5
REMARK VINA RESULT: -3.636613108      9.743     11.074
REMARK  4 active torsions:
REMARK  status: ('A' for Active; 'I' for Inactive)
REMARK    1  A    between atoms: C2_2  and  C3_3 
REMARK    2  A    between atoms: C3_3  and  N1_4 
REMARK    3  A    between atoms: N1_4  and  C4_7 
REMARK    4  A    between atoms: C8_14  and  N3_15 
ROOT
HETATM    1  C4  UNL     1       8.775  -2.390  17.614  1.00  0.00     0.219 C 
HETATM    2  C5  UNL     1       7.363  -2.033  17.322  1.00  0.00     0.062 C 
HETATM    3  C6  UNL     1       6.526  -1.728  18.536  1.00  0.00     0.234 C 
HETATM    4  N2  UNL     1       7.287  -1.634  19.758  1.00  0.00    -0.073 N 
ATOM      5  H21 UNL     1       7.576  -2.540  20.127  1.00  0.00     0.277 HD
ATOM      6  H22 UNL     1       6.729  -1.343  20.561  1.00  0.00     0.277 HD
HETATM    7  C7  UNL     1       8.403  -0.740  19.474  1.00  0.00     0.267 C 
HETATM    8  C8  UNL     1       9.409  -1.611  18.727  1.00  0.00     0.239 C 
ENDROOT
BRANCH   1   9
HETATM    9  N1  UNL     1       9.581  -2.393  16.424  1.00  0.00    -0.066 N 
ATOM     10  H12 UNL     1      10.410  -2.977  16.535  1.00  0.00     0.278 HD
ATOM     11  H11 UNL     1      10.041  -1.493  16.281  1.00  0.00     0.278 HD
BRANCH   9  12
HETATM   12  C3  UNL     1       8.804  -2.787  15.251  1.00  0.00     0.259 C 
BRANCH  12  13
HETATM   13  C2  UNL     1       8.886  -1.763  14.176  1.00  0.00    -0.010 C 
HETATM   14  C1  UNL     1       9.744  -0.775  14.227  1.00  0.00     0.008 C 
ENDBRANCH  12  13
ENDBRANCH   9  12
ENDBRANCH   1   9
BRANCH   8  15
HETATM   15  N3  UNL     1      10.476  -0.746  18.340  1.00  0.00    -0.071 N 
ATOM     16  H33 UNL     1      10.119   0.195  18.174  1.00  0.00     0.274 HD
ATOM     17  H32 UNL     1      11.088  -0.569  19.135  1.00  0.00     0.274 HD
ATOM     18  H31 UNL     1      11.024  -1.059  17.539  1.00  0.00     0.274 HD
ENDBRANCH   8  15
TORSDOF 4
ENDMDL
