MODEL 1
REMARK VINA RESULT: -4.899523247      0.000      0.000
REMARK  4 active torsions:
REMARK  status: ('A' for Active; 'I' for Inactive)
REMARK    1  A    between atoms: N1_2  and  C2_5 
REMARK    2  A    between atoms: C2_5  and  C3_6 
REMARK    3  A    between atoms: C3_6  and  N2_7 
REMARK    4  A    between atoms: N2_7  and  C4_9 
ROOT
HETATM    1  C4  UNL     1       7.774  -1.236  19.397  1.00  0.00     0.116 A 
HETATM    2  C5  UNL     1       8.652  -0.263  19.824  1.00  0.00     0.136 A 
HETATM    3  N3  UNL     1       8.448   0.353  21.020  1.00  0.00    -0.371 N 
ATOM      4  H3  UNL     1       9.100   1.071  21.334  1.00  0.00     0.164 HD
HETATM    5  C6  UNL     1       7.395   0.024  21.794  1.00  0.00     0.104 A 
HETATM    6  C7  UNL     1       6.532  -0.961  21.330  1.00  0.00     0.106 A 
HETATM    7  N4  UNL     1       6.705  -1.590  20.153  1.00  0.00    -0.350 N 
ATOM      8  H4  UNL     1       6.053  -2.309  19.841  1.00  0.00     0.166 HD
ENDROOT
BRANCH   1   9
HETATM    9  N2  UNL     1       7.923  -1.836  18.290  1.00  0.00    -0.374 N 
ATOM     10  H2  UNL     1       7.068  -2.168  17.844  1.00  0.00     0.161 HD
BRANCH   9  11
HETATM   11  C3  UNL     1       9.140  -2.106  17.590  1.00  0.00     0.148 C 
BRANCH  11  12
HETATM   12  C2  UNL     1       8.918  -2.310  16.109  1.00  0.00     0.251 C 
BRANCH  12  13
HETATM   13  N1  UNL     1       9.889  -1.632  15.302  1.00  0.00    -0.077 N 
HETATM   14  C1  UNL     1       9.362  -1.012  14.123  1.00  0.00     0.267 C 
ATOM     15  H12 UNL     1      10.651  -2.264  15.059  1.00  0.00     0.276 HD
ATOM     16  H11 UNL     1      10.399  -0.949  15.863  1.00  0.00     0.276 HD
ENDBRANCH  12  13
ENDBRANCH  11  12
ENDBRANCH   9  11
ENDBRANCH   1   9
TORSDOF 4
ENDMDL
MODEL 2
REMARK VINA RESULT: -4.507534394      0.874      1.453
REMARK  4 active torsions:
REMARK  status: ('A' for Active; 'I' for Inactive)
REMARK    1  A    between atoms: N1_2  and  C2_5 
REMARK    2  A    between atoms: C2_5  and  C3_6 
REMARK    3  A    between atoms: C3_6  and  N2_7 
REMARK    4  A    between atoms: N2_7  and  C4_9 
ROOT
HETATM    1  C4  UNL     1       7.605  -1.444  19.175  1.00  0.00     0.116 A 
HETATM    2  C5  UNL     1       6.542  -1.628  20.034  1.00  0.00     0.136 A 
HETATM    3  N3  UNL     1       6.462  -0.896  21.176  1.00  0.00    -0.371 N 
ATOM      4  H3  UNL     1       5.673  -1.033  21.809  1.00  0.00     0.164 HD
HETATM    5  C6  UNL     1       7.411   0.011  21.483  1.00  0.00     0.104 A 
HETATM    6  C7  UNL     1       8.467   0.168  20.595  1.00  0.00     0.106 A 
HETATM    7  N4  UNL     1       8.577  -0.540  19.456  1.00  0.00    -0.350 N 
ATOM      8  H4  UNL     1       9.365  -0.401  18.824  1.00  0.00     0.166 HD
ENDROOT
BRANCH   1   9
HETATM    9  N2  UNL     1       7.723  -2.105  18.100  1.00  0.00    -0.374 N 
ATOM     10  H2  UNL     1       6.851  -2.387  17.652  1.00  0.00     0.161 HD
BRANCH   9  11
HETATM   11  C3  UNL     1       8.925  -2.503  17.436  1.00  0.00     0.148 C 
BRANCH  11  12
HETATM   12  C2  UNL     1       8.812  -2.404  15.933  1.00  0.00     0.251 C 
BRANCH  12  13
HETATM   13  N1  UNL     1       9.840  -1.593  15.350  1.00  0.00    -0.077 N 
HETATM   14  C1  UNL     1       9.478  -0.962  14.116  1.00  0.00     0.267 C 
ATOM     15  H12 UNL     1      10.694  -2.136  15.232  1.00  0.00     0.276 HD
ATOM     16  H11 UNL     1      10.164  -0.897  16.021  1.00  0.00     0.276 HD
ENDBRANCH  12  13
ENDBRANCH  11  12
ENDBRANCH   9  11
ENDBRANCH   1   9
TORSDOF 4
ENDMDL
MODEL 3
REMARK VINA RESULT: -4.378853096      1.642      5.592
REMARK  4 active torsions:
REMARK  status: ('A' for Active; 'I' for Inactive)
REMARK    1  A    between atoms: N1_2  and  C2_5 
REMARK    2  A    between atoms: C2_5  and  C3_6 
REMARK    3  A    between atoms: C3_6  and  N2_7 
REMARK    4  A    between atoms: N2_7  and  C4_9 
ROOT
HETATM    1  C4  UNL     1       8.652  -0.569  19.651  1.00  0.00     0.116 A 
HETATM    2  C5  UNL     1       9.906  -0.497  19.084  1.00  0.00     0.136 A 
HETATM    3  N3  UNL     1      10.201  -1.260  17.997  1.00  0.00    -0.371 N 
ATOM      4  H3  UNL     1      11.129  -1.204  17.579  1.00  0.00     0.164 HD
HETATM    5  C6  UNL     1       9.280  -2.089  17.466  1.00  0.00     0.104 A 
HETATM    6  C7  UNL     1       8.027  -2.135  18.065  1.00  0.00     0.106 A 
HETATM    7  N4  UNL     1       7.703  -1.394  19.140  1.00  0.00    -0.350 N 
ATOM      8  H4  UNL     1       6.774  -1.450  19.557  1.00  0.00     0.166 HD
ENDROOT
BRANCH   1   9
HETATM    9  N2  UNL     1       8.332   0.122  20.664  1.00  0.00    -0.374 N 
ATOM     10  H2  UNL     1       8.922   0.932  20.857  1.00  0.00     0.161 HD
BRANCH   9  11
HETATM   11  C3  UNL     1       7.247  -0.091  21.571  1.00  0.00     0.148 C 
BRANCH  11  12
HETATM   12  C2  UNL     1       7.440   0.640  22.880  1.00  0.00     0.251 C 
BRANCH  12  13
HETATM   13  N1  UNL     1       8.450   0.046  23.705  1.00  0.00    -0.077 N 
HETATM   14  C1  UNL     1       7.952  -0.649  24.855  1.00  0.00     0.267 C 
ATOM     15  H12 UNL     1       9.135   0.747  23.985  1.00  0.00     0.276 HD
ATOM     16  H11 UNL     1       9.044  -0.570  23.149  1.00  0.00     0.276 HD
ENDBRANCH  12  13
ENDBRANCH  11  12
ENDBRANCH   9  11
ENDBRANCH   1   9
TORSDOF 4
ENDMDL
MODEL 4
REMARK VINA RESULT: -4.175497308      1.834      5.786
REMARK  4 active torsions:
REMARK  status: ('A' for Active; 'I' for Inactive)
REMARK    1  A    between atoms: N1_2  and  C2_5 
REMARK    2  A    between atoms: C2_5  and  C3_6 
REMARK    3  A    between atoms: C3_6  and  N2_7 
REMARK    4  A    between atoms: N2_7  and  C4_9 
ROOT
HETATM    1  C4  UNL     1       8.431  -0.578  19.825  1.00  0.00     0.116 A 
HETATM    2  C5  UNL     1       7.486  -1.449  19.326  1.00  0.00     0.136 A 
HETATM    3  N3  UNL     1       7.776  -2.210  18.238  1.00  0.00    -0.371 N 
ATOM      4  H3  UNL     1       7.075  -2.855  17.872  1.00  0.00     0.164 HD
HETATM    5  C6  UNL     1       8.980  -2.124  17.637  1.00  0.00     0.104 A 
HETATM    6  C7  UNL     1       9.906  -1.235  18.167  1.00  0.00     0.106 A 
HETATM    7  N4  UNL     1       9.652  -0.468  19.242  1.00  0.00    -0.350 N 
ATOM      8  H4  UNL     1      10.354   0.175  19.607  1.00  0.00     0.166 HD
ENDROOT
BRANCH   1   9
HETATM    9  N2  UNL     1       8.205   0.152  20.836  1.00  0.00    -0.374 N 
ATOM     10  H2  UNL     1       8.895   0.880  21.023  1.00  0.00     0.161 HD
BRANCH   9  11
HETATM   11  C3  UNL     1       7.104   0.084  21.745  1.00  0.00     0.148 C 
BRANCH  11  12
HETATM   12  C2  UNL     1       7.421   0.716  23.081  1.00  0.00     0.251 C 
BRANCH  12  13
HETATM   13  N1  UNL     1       8.466   0.033  23.785  1.00  0.00    -0.077 N 
HETATM   14  C1  UNL     1       8.038  -0.669  24.958  1.00  0.00     0.267 C 
ATOM     15  H12 UNL     1       9.219   0.681  24.016  1.00  0.00     0.276 HD
ATOM     16  H11 UNL     1       8.963  -0.597  23.156  1.00  0.00     0.276 HD
ENDBRANCH  12  13
ENDBRANCH  11  12
ENDBRANCH   9  11
ENDBRANCH   1   9
TORSDOF 4
ENDMDL
MODEL 5
REMARK VINA RESULT: -4.154156154      1.527      2.204
REMARK  4 active torsions:
REMARK  status: ('A' for Active; 'I' for Inactive)
REMARK    1  A    between atoms: N1_2  and  C2_5 
REMARK    2  A    between atoms: C2_5  and  C3_6 
REMARK    3  A    between atoms: C3_6  and  N2_7 
REMARK    4  A    between atoms: N2_7  and  C4_9 
ROOT
HETATM    1  C4  UNL     1       6.988  -1.199  21.281  1.00  0.00     0.116 A 
HETATM    2  C5  UNL     1       7.606  -0.037  21.690  1.00  0.00     0.136 A 
HETATM    3  N3  UNL     1       7.726   0.233  23.018  1.00  0.00    -0.371 N 
ATOM      4  H3  UNL     1       8.184   1.093  23.318  1.00  0.00     0.164 HD
HETATM    5  C6  UNL     1       7.246  -0.623  23.942  1.00  0.00     0.104 A 
HETATM    6  C7  UNL     1       6.629  -1.784  23.492  1.00  0.00     0.106 A 
HETATM    7  N4  UNL     1       6.494  -2.081  22.187  1.00  0.00    -0.350 N 
ATOM      8  H4  UNL     1       6.036  -2.942  21.888  1.00  0.00     0.166 HD
ENDROOT
BRANCH   1   9
HETATM    9  N2  UNL     1       6.853  -1.493  20.055  1.00  0.00    -0.374 N 
ATOM     10  H2  UNL     1       5.928  -1.818  19.774  1.00  0.00     0.161 HD
BRANCH   9  11
HETATM   11  C3  UNL     1       7.834  -1.424  19.018  1.00  0.00     0.148 C 
BRANCH  11  12
HETATM   12  C2  UNL     1       7.431  -2.209  17.791  1.00  0.00     0.251 C 
BRANCH  12  13
HETATM   13  N1  UNL     1       8.542  -2.842  17.145  1.00  0.00    -0.077 N 
HETATM   14  C1  UNL     1       8.846  -2.334  15.840  1.00  0.00     0.267 C 
ATOM     15  H12 UNL     1       8.403  -3.851  17.109  1.00  0.00     0.276 HD
ATOM     16  H11 UNL     1       9.369  -2.800  17.742  1.00  0.00     0.276 HD
ENDBRANCH  12  13
ENDBRANCH  11  12
ENDBRANCH   9  11
ENDBRANCH   1   9
TORSDOF 4
ENDMDL
