MODEL 1
REMARK VINA RESULT: -4.480967762      0.000      0.000
REMARK  4 active torsions:
REMARK  status: ('A' for Active; 'I' for Inactive)
REMARK    1  A    between atoms: C2_2  and  C3_3 
REMARK    2  A    between atoms: C3_3  and  N1_4 
REMARK    3  A    between atoms: N1_4  and  C4_6 
REMARK    4  A    between atoms: C5_9  and  N3_10 
ROOT
HETATM    1  C4  UNL     1       8.065  -1.080  19.516  1.00  0.00     0.707 A 
HETATM    2  N2  UNL     1       8.498  -0.136  20.365  1.00  0.00    -0.020 N 
ATOM      3  H2  UNL     1       9.340   0.429  20.249  1.00  0.00     0.203 HD
HETATM    4  C5  UNL     1       7.637  -0.058  21.392  1.00  0.00     0.707 A 
HETATM    5  N4  UNL     1       6.667  -0.958  21.180  1.00  0.00    -0.114 N 
HETATM    6  C6  UNL     1       5.513  -1.220  22.050  1.00  0.00     0.198 C 
HETATM    7  N5  UNL     1       6.934  -1.573  20.041  1.00  0.00    -0.116 N 
ATOM      8  H5  UNL     1       6.365  -2.311  19.625  1.00  0.00     0.206 HD
ENDROOT
BRANCH   1   9
HETATM    9  N1  UNL     1       8.635  -1.446  18.398  1.00  0.00    -0.224 N 
ATOM     10  H1  UNL     1       9.466  -0.949  18.076  1.00  0.00     0.177 HD
BRANCH   9  11
HETATM   11  C3  UNL     1       8.120  -2.531  17.614  1.00  0.00     0.138 C 
BRANCH  11  12
HETATM   12  C2  UNL     1       9.161  -2.877  16.560  1.00  0.00     0.016 C 
HETATM   13  C1  UNL     1       8.862  -2.108  15.276  1.00  0.00     0.006 C 
ENDBRANCH  11  12
ENDBRANCH   9  11
ENDBRANCH   1   9
BRANCH   4  14
HETATM   14  N3  UNL     1       7.725   0.749  22.419  1.00  0.00    -0.233 N 
ATOM     15  H32 UNL     1       7.191   1.607  22.554  1.00  0.00     0.174 HD
ATOM     16  H31 UNL     1       8.338   0.635  23.226  1.00  0.00     0.174 HD
ENDBRANCH   4  14
TORSDOF 4
ENDMDL
MODEL 2
REMARK VINA RESULT: -4.356081934      1.030      1.541
REMARK  4 active torsions:
REMARK  status: ('A' for Active; 'I' for Inactive)
REMARK    1  A    between atoms: C2_2  and  C3_3 
REMARK    2  A    between atoms: C3_3  and  N1_4 
REMARK    3  A    between atoms: N1_4  and  C4_6 
REMARK    4  A    between atoms: C5_9  and  N3_10 
ROOT
HETATM    1  C4  UNL     1       8.106  -1.914  18.355  1.00  0.00     0.707 A 
HETATM    2  N2  UNL     1       8.835  -0.958  18.950  1.00  0.00    -0.020 N 
ATOM      3  H2  UNL     1       9.749  -0.626  18.641  1.00  0.00     0.203 HD
HETATM    4  C5  UNL     1       8.159  -0.511  20.020  1.00  0.00     0.707 A 
HETATM    5  N4  UNL     1       7.007  -1.192  20.089  1.00  0.00    -0.114 N 
HETATM    6  C6  UNL     1       5.957  -1.032  21.104  1.00  0.00     0.198 C 
HETATM    7  N5  UNL     1       6.982  -2.040  19.077  1.00  0.00    -0.116 N 
ATOM      8  H5  UNL     1       6.224  -2.692  18.875  1.00  0.00     0.206 HD
ENDROOT
BRANCH   1   9
HETATM    9  N1  UNL     1       8.428  -2.589  17.283  1.00  0.00    -0.224 N 
ATOM     10  H1  UNL     1       7.948  -3.466  17.083  1.00  0.00     0.177 HD
BRANCH   9  11
HETATM   11  C3  UNL     1       9.442  -2.124  16.381  1.00  0.00     0.138 C 
BRANCH  11  12
HETATM   12  C2  UNL     1       8.853  -2.129  14.978  1.00  0.00     0.016 C 
HETATM   13  C1  UNL     1       9.460  -0.988  14.165  1.00  0.00     0.006 C 
ENDBRANCH  11  12
ENDBRANCH   9  11
ENDBRANCH   1   9
BRANCH   4  14
HETATM   14  N3  UNL     1       8.551   0.423  20.851  1.00  0.00    -0.233 N 
ATOM     15  H32 UNL     1       9.345   1.049  20.716  1.00  0.00     0.174 HD
ATOM     16  H31 UNL     1       8.120   0.655  21.746  1.00  0.00     0.174 HD
ENDBRANCH   4  14
TORSDOF 4
ENDMDL
MODEL 3
REMARK VINA RESULT: -4.253345102      1.193      1.904
REMARK  4 active torsions:
REMARK  status: ('A' for Active; 'I' for Inactive)
REMARK    1  A    between atoms: C2_2  and  C3_3 
REMARK    2  A    between atoms: C3_3  and  N1_4 
REMARK    3  A    between atoms: N1_4  and  C4_6 
REMARK    4  A    between atoms: C5_9  and  N3_10 
ROOT
HETATM    1  C4  UNL     1       7.667  -0.808  20.269  1.00  0.00     0.707 A 
HETATM    2  N2  UNL     1       6.564  -1.358  20.797  1.00  0.00    -0.020 N 
ATOM      3  H2  UNL     1       6.010  -2.104  20.376  1.00  0.00     0.203 HD
HETATM    4  C5  UNL     1       6.313  -0.764  21.974  1.00  0.00     0.707 A 
HETATM    5  N4  UNL     1       7.262   0.160  22.176  1.00  0.00    -0.114 N 
HETATM    6  C6  UNL     1       7.381   1.050  23.338  1.00  0.00     0.198 C 
HETATM    7  N5  UNL     1       8.079   0.127  21.139  1.00  0.00    -0.116 N 
ATOM      8  H5  UNL     1       8.900   0.722  21.018  1.00  0.00     0.206 HD
ENDROOT
BRANCH   1   9
HETATM    9  N1  UNL     1       8.228  -1.120  19.131  1.00  0.00    -0.224 N 
ATOM     10  H1  UNL     1       9.164  -0.769  18.923  1.00  0.00     0.177 HD
BRANCH   9  11
HETATM   11  C3  UNL     1       7.560  -1.946  18.167  1.00  0.00     0.138 C 
BRANCH  11  12
HETATM   12  C2  UNL     1       8.608  -2.828  17.505  1.00  0.00     0.016 C 
HETATM   13  C1  UNL     1       8.793  -2.399  16.052  1.00  0.00     0.006 C 
ENDBRANCH  11  12
ENDBRANCH   9  11
ENDBRANCH   1   9
BRANCH   4  14
HETATM   14  N3  UNL     1       5.318  -1.034  22.783  1.00  0.00    -0.233 N 
ATOM     15  H32 UNL     1       5.322  -1.733  23.525  1.00  0.00     0.174 HD
ATOM     16  H31 UNL     1       4.403  -0.584  22.786  1.00  0.00     0.174 HD
ENDBRANCH   4  14
TORSDOF 4
ENDMDL
MODEL 4
REMARK VINA RESULT: -4.129348905      1.611      5.061
REMARK  4 active torsions:
REMARK  status: ('A' for Active; 'I' for Inactive)
REMARK    1  A    between atoms: C2_2  and  C3_3 
REMARK    2  A    between atoms: C3_3  and  N1_4 
REMARK    3  A    between atoms: N1_4  and  C4_6 
REMARK    4  A    between atoms: C5_9  and  N3_10 
ROOT
HETATM    1  C4  UNL     1       8.479  -0.194  20.205  1.00  0.00     0.707 A 
HETATM    2  N2  UNL     1       9.659  -0.205  19.568  1.00  0.00    -0.020 N 
ATOM      3  H2  UNL     1      10.480   0.345  19.823  1.00  0.00     0.203 HD
HETATM    4  C5  UNL     1       9.579  -1.061  18.538  1.00  0.00     0.707 A 
HETATM    5  N4  UNL     1       8.345  -1.583  18.535  1.00  0.00    -0.114 N 
HETATM    6  C6  UNL     1       7.814  -2.567  17.582  1.00  0.00     0.198 C 
HETATM    7  N5  UNL     1       7.685  -1.052  19.548  1.00  0.00    -0.116 N 
ATOM      8  H5  UNL     1       6.717  -1.263  19.795  1.00  0.00     0.206 HD
ENDROOT
BRANCH   1   9
HETATM    9  N1  UNL     1       8.166   0.515  21.258  1.00  0.00    -0.224 N 
ATOM     10  H1  UNL     1       8.704   1.356  21.470  1.00  0.00     0.177 HD
BRANCH   9  11
HETATM   11  C3  UNL     1       7.085   0.138  22.122  1.00  0.00     0.138 C 
BRANCH  11  12
HETATM   12  C2  UNL     1       7.328   0.784  23.478  1.00  0.00     0.016 C 
HETATM   13  C1  UNL     1       8.106  -0.179  24.370  1.00  0.00     0.006 C 
ENDBRANCH  11  12
ENDBRANCH   9  11
ENDBRANCH   1   9
BRANCH   4  14
HETATM   14  N3  UNL     1      10.533  -1.340  17.684  1.00  0.00    -0.233 N 
ATOM     15  H32 UNL     1      11.156  -2.147  17.725  1.00  0.00     0.174 HD
ATOM     16  H31 UNL     1      10.787  -0.793  16.862  1.00  0.00     0.174 HD
ENDBRANCH   4  14
TORSDOF 4
ENDMDL
MODEL 5
REMARK VINA RESULT: -4.082685260      1.563      2.384
REMARK  4 active torsions:
REMARK  status: ('A' for Active; 'I' for Inactive)
REMARK    1  A    between atoms: C2_2  and  C3_3 
REMARK    2  A    between atoms: C3_3  and  N1_4 
REMARK    3  A    between atoms: N1_4  and  C4_6 
REMARK    4  A    between atoms: C5_9  and  N3_10 
ROOT
HETATM    1  C4  UNL     1       6.871  -1.303  20.869  1.00  0.00     0.707 A 
HETATM    2  N2  UNL     1       6.502  -2.108  21.876  1.00  0.00    -0.020 N 
ATOM      3  H2  UNL     1       6.134  -3.054  21.778  1.00  0.00     0.203 HD
HETATM    4  C5  UNL     1       6.697  -1.458  23.034  1.00  0.00     0.707 A 
HETATM    5  N4  UNL     1       7.189  -0.246  22.745  1.00  0.00    -0.114 N 
HETATM    6  C6  UNL     1       7.551   0.803  23.708  1.00  0.00     0.198 C 
HETATM    7  N5  UNL     1       7.291  -0.159  21.431  1.00  0.00    -0.116 N 
ATOM      8  H5  UNL     1       7.638   0.654  20.921  1.00  0.00     0.206 HD
ENDROOT
BRANCH   1   9
HETATM    9  N1  UNL     1       6.829  -1.579  19.592  1.00  0.00    -0.224 N 
ATOM     10  H1  UNL     1       5.928  -1.775  19.154  1.00  0.00     0.177 HD
BRANCH   9  11
HETATM   11  C3  UNL     1       8.019  -1.613  18.792  1.00  0.00     0.138 C 
BRANCH  11  12
HETATM   12  C2  UNL     1       7.721  -2.445  17.553  1.00  0.00     0.016 C 
HETATM   13  C1  UNL     1       9.030  -2.806  16.855  1.00  0.00     0.006 C 
ENDBRANCH  11  12
ENDBRANCH   9  11
ENDBRANCH   1   9
BRANCH   4  14
HETATM   14  N3  UNL     1       6.452  -1.922  24.235  1.00  0.00    -0.233 N 
ATOM     15  H32 UNL     1       5.579  -1.815  24.751  1.00  0.00     0.174 HD
ATOM     16  H31 UNL     1       7.096  -2.454  24.820  1.00  0.00     0.174 HD
ENDBRANCH   4  14
TORSDOF 4
ENDMDL
