MODEL 1
REMARK VINA RESULT: -4.483501125      0.000      0.000
REMARK  3 active torsions:
REMARK  status: ('A' for Active; 'I' for Inactive)
REMARK    1  A    between atoms: C2_2  and  C3_3 
REMARK    2  A    between atoms: C3_3  and  N1_4 
REMARK    3  A    between atoms: N1_4  and  C4_6 
ROOT
HETATM    1  C4  UNL     1       3.646  -1.852   8.553  1.00  0.00     0.176 A 
HETATM    2  N2  UNL     1       3.950  -3.077   8.238  1.00  0.00    -0.355 N 
ATOM      3  H2  UNL     1       3.303  -3.865   8.275  1.00  0.00     0.163 HD
HETATM    4  C5  UNL     1       5.316  -3.164   7.831  1.00  0.00     0.198 A 
HETATM    5  C6  UNL     1       5.853  -1.794   8.018  1.00  0.00     0.095 A 
HETATM    6  N3  UNL     1       7.068  -1.379   7.830  1.00  0.00    -0.387 N 
ATOM      7  H31 UNL     1       7.436  -0.437   7.959  1.00  0.00     0.157 HD
ATOM      8  H32 UNL     1       7.857  -1.948   7.523  1.00  0.00     0.157 HD
HETATM    9  N4  UNL     1       4.747  -0.999   8.448  1.00  0.00    -0.317 N 
ATOM     10  H4  UNL     1       4.758   0.002   8.641  1.00  0.00     0.170 HD
ENDROOT
BRANCH   1  11
HETATM   11  N1  UNL     1       2.312  -1.503   8.998  1.00  0.00    -0.362 N 
ATOM     12  H1  UNL     1       2.190  -0.789   9.716  1.00  0.00     0.162 HD
BRANCH  11  13
HETATM   13  C3  UNL     1       1.156  -2.155   8.438  1.00  0.00     0.122 C 
BRANCH  13  14
HETATM   14  C2  UNL     1       0.598  -3.073   9.549  1.00  0.00     0.015 C 
HETATM   15  C1  UNL     1       0.700  -4.520   9.177  1.00  0.00     0.006 C 
ENDBRANCH  13  14
ENDBRANCH  11  13
ENDBRANCH   1  11
TORSDOF 3
ENDMDL
MODEL 2
REMARK VINA RESULT: -4.270914435     11.701     12.432
REMARK  3 active torsions:
REMARK  status: ('A' for Active; 'I' for Inactive)
REMARK    1  A    between atoms: C2_2  and  C3_3 
REMARK    2  A    between atoms: C3_3  and  N1_4 
REMARK    3  A    between atoms: N1_4  and  C4_6 
ROOT
HETATM    1  C4  UNL     1       8.040  -1.036  19.629  1.00  0.00     0.176 A 
HETATM    2  N2  UNL     1       6.944  -1.589  20.058  1.00  0.00    -0.355 N 
ATOM      3  H2  UNL     1       6.426  -2.314  19.562  1.00  0.00     0.163 HD
HETATM    4  C5  UNL     1       6.566  -1.038  21.320  1.00  0.00     0.198 A 
HETATM    5  C6  UNL     1       7.572   0.020  21.585  1.00  0.00     0.095 A 
HETATM    6  N3  UNL     1       7.625   0.839  22.590  1.00  0.00    -0.387 N 
ATOM      7  H31 UNL     1       8.317   1.566  22.772  1.00  0.00     0.157 HD
ATOM      8  H32 UNL     1       6.964   0.883  23.366  1.00  0.00     0.157 HD
HETATM    9  N4  UNL     1       8.497  -0.042  20.498  1.00  0.00    -0.317 N 
ATOM     10  H4  UNL     1       9.333   0.529  20.380  1.00  0.00     0.170 HD
ENDROOT
BRANCH   1  11
HETATM   11  N1  UNL     1       8.631  -1.427  18.365  1.00  0.00    -0.362 N 
ATOM     12  H1  UNL     1       9.443  -0.923  18.010  1.00  0.00     0.162 HD
BRANCH  11  13
HETATM   13  C3  UNL     1       8.082  -2.520  17.604  1.00  0.00     0.122 C 
BRANCH  13  14
HETATM   14  C2  UNL     1       9.129  -2.856  16.517  1.00  0.00     0.015 C 
HETATM   15  C1  UNL     1       8.860  -2.118  15.241  1.00  0.00     0.006 C 
ENDBRANCH  13  14
ENDBRANCH  11  13
ENDBRANCH   1  11
TORSDOF 3
ENDMDL
MODEL 3
REMARK VINA RESULT: -4.153249591     12.292     12.742
REMARK  3 active torsions:
REMARK  status: ('A' for Active; 'I' for Inactive)
REMARK    1  A    between atoms: C2_2  and  C3_3 
REMARK    2  A    between atoms: C3_3  and  N1_4 
REMARK    3  A    between atoms: N1_4  and  C4_6 
ROOT
HETATM    1  C4  UNL     1       8.547  -0.751  19.473  1.00  0.00     0.176 A 
HETATM    2  N2  UNL     1       7.608  -1.536  19.034  1.00  0.00    -0.355 N 
ATOM      3  H2  UNL     1       6.704  -1.671  19.486  1.00  0.00     0.163 HD
HETATM    4  C5  UNL     1       8.020  -2.184  17.830  1.00  0.00     0.198 A 
HETATM    5  C6  UNL     1       9.417  -1.735  17.620  1.00  0.00     0.095 A 
HETATM    6  N3  UNL     1      10.239  -2.091  16.680  1.00  0.00    -0.387 N 
ATOM      7  H31 UNL     1      11.200  -1.782  16.536  1.00  0.00     0.157 HD
ATOM      8  H32 UNL     1      10.044  -2.754  15.930  1.00  0.00     0.157 HD
HETATM    9  N4  UNL     1       9.690  -0.807  18.671  1.00  0.00    -0.317 N 
ATOM     10  H4  UNL     1      10.554  -0.284  18.809  1.00  0.00     0.170 HD
ENDROOT
BRANCH   1  11
HETATM   11  N1  UNL     1       8.370   0.023  20.685  1.00  0.00    -0.362 N 
ATOM     12  H1  UNL     1       9.052   0.740  20.930  1.00  0.00     0.162 HD
BRANCH  11  13
HETATM   13  C3  UNL     1       7.241  -0.210  21.547  1.00  0.00     0.122 C 
BRANCH  13  14
HETATM   14  C2  UNL     1       7.468   0.666  22.801  1.00  0.00     0.015 C 
HETATM   15  C1  UNL     1       8.018  -0.134  23.943  1.00  0.00     0.006 C 
ENDBRANCH  13  14
ENDBRANCH  11  13
ENDBRANCH   1  11
TORSDOF 3
ENDMDL
MODEL 4
REMARK VINA RESULT: -4.129655843      9.931     10.952
REMARK  3 active torsions:
REMARK  status: ('A' for Active; 'I' for Inactive)
REMARK    1  A    between atoms: C2_2  and  C3_3 
REMARK    2  A    between atoms: C3_3  and  N1_4 
REMARK    3  A    between atoms: N1_4  and  C4_6 
ROOT
HETATM    1  C4  UNL     1       9.079  -2.156  17.545  1.00  0.00     0.176 A 
HETATM    2  N2  UNL     1       7.854  -2.405  17.904  1.00  0.00    -0.355 N 
ATOM      3  H2  UNL     1       7.233  -3.064  17.436  1.00  0.00     0.163 HD
HETATM    4  C5  UNL     1       7.500  -1.624  19.046  1.00  0.00     0.198 A 
HETATM    5  C6  UNL     1       8.688  -0.776  19.306  1.00  0.00     0.095 A 
HETATM    6  N3  UNL     1       8.834   0.140  20.214  1.00  0.00    -0.387 N 
ATOM      7  H31 UNL     1       9.652   0.723  20.392  1.00  0.00     0.157 HD
ATOM      8  H32 UNL     1       8.134   0.425  20.899  1.00  0.00     0.157 HD
HETATM    9  N4  UNL     1       9.668  -1.174  18.346  1.00  0.00    -0.317 N 
ATOM     10  H4  UNL     1      10.617  -0.811  18.261  1.00  0.00     0.170 HD
ENDROOT
BRANCH   1  11
HETATM   11  N1  UNL     1       9.676  -2.827  16.407  1.00  0.00    -0.362 N 
ATOM     12  H1  UNL     1      10.632  -3.176  16.472  1.00  0.00     0.162 HD
BRANCH  11  13
HETATM   13  C3  UNL     1       8.933  -3.006  15.187  1.00  0.00     0.122 C 
BRANCH  13  14
HETATM   14  C2  UNL     1       8.600  -1.586  14.673  1.00  0.00     0.015 C 
HETATM   15  C1  UNL     1       9.792  -0.930  14.045  1.00  0.00     0.006 C 
ENDBRANCH  13  14
ENDBRANCH  11  13
ENDBRANCH   1  11
TORSDOF 3
ENDMDL
MODEL 5
REMARK VINA RESULT: -4.069929078     11.633     12.052
REMARK  3 active torsions:
REMARK  status: ('A' for Active; 'I' for Inactive)
REMARK    1  A    between atoms: C2_2  and  C3_3 
REMARK    2  A    between atoms: C3_3  and  N1_4 
REMARK    3  A    between atoms: N1_4  and  C4_6 
ROOT
HETATM    1  C4  UNL     1       7.935  -1.570  18.846  1.00  0.00     0.176 A 
HETATM    2  N2  UNL     1       7.217  -2.138  17.922  1.00  0.00    -0.355 N 
ATOM      3  H2  UNL     1       6.229  -2.373  18.016  1.00  0.00     0.163 HD
HETATM    4  C5  UNL     1       8.006  -2.387  16.758  1.00  0.00     0.198 A 
HETATM    5  C6  UNL     1       9.373  -1.949  17.129  1.00  0.00     0.095 A 
HETATM    6  N3  UNL     1      10.457  -2.021  16.418  1.00  0.00    -0.387 N 
ATOM      7  H31 UNL     1      11.397  -1.721  16.673  1.00  0.00     0.157 HD
ATOM      8  H32 UNL     1      10.533  -2.404  15.475  1.00  0.00     0.157 HD
HETATM    9  N4  UNL     1       9.266  -1.414  18.449  1.00  0.00    -0.317 N 
ATOM     10  H4  UNL     1      10.017  -0.997  18.997  1.00  0.00     0.170 HD
ENDROOT
BRANCH   1  11
HETATM   11  N1  UNL     1       7.360  -1.214  20.127  1.00  0.00    -0.362 N 
ATOM     12  H1  UNL     1       6.582  -1.757  20.499  1.00  0.00     0.162 HD
BRANCH  11  13
HETATM   13  C3  UNL     1       7.877  -0.101  20.881  1.00  0.00     0.122 C 
BRANCH  13  14
HETATM   14  C2  UNL     1       6.956   0.049  22.114  1.00  0.00     0.015 C 
HETATM   15  C1  UNL     1       7.729  -0.021  23.395  1.00  0.00     0.006 C 
ENDBRANCH  13  14
ENDBRANCH  11  13
ENDBRANCH   1  11
TORSDOF 3
ENDMDL
