MODEL 1
REMARK VINA RESULT: -9.060596795      0.000      0.000
REMARK  12 active torsions:
REMARK  status: ('A' for Active; 'I' for Inactive)
REMARK    1  A    between atoms: C4_5  and  C5_6 
REMARK    2  A    between atoms: C5_6  and  C6_7 
REMARK    3  A    between atoms: C6_7  and  C7_8 
REMARK    4  A    between atoms: C12_13  and  N1_14 
REMARK       I    between atoms: N1_14  and  C13_16 
REMARK    5  A    between atoms: C18_25  and  C19_26 
REMARK    6  A    between atoms: C19_26  and  C20_28 
REMARK    7  A    between atoms: C20_28  and  C21_29 
REMARK    8  A    between atoms: C21_29  and  C22_30 
REMARK    9  A    between atoms: C22_30  and  C23_31 
REMARK   10  A    between atoms: C23_31  and  C24_32 
REMARK   11  A    between atoms: C24_32  and  C25_33 
REMARK   12  A    between atoms: C26_36  and  O4_37 
ROOT
HETATM    1  C1  UNL     1      31.268  38.392  -9.099  1.00  0.00     0.025 C 
HETATM    2  C2  UNL     1      32.382  39.240  -9.676  1.00  0.00     0.029 C 
HETATM    3  C3  UNL     1      32.847  38.708 -11.006  1.00  0.00     0.141 C 
HETATM    4  O1  UNL     1      33.090  37.589 -11.385  1.00  0.00    -0.297 OA
HETATM    5  C4  UNL     1      32.850  40.080 -11.527  1.00  0.00     0.065 C 
HETATM    6  C14 UNL     1      31.887  40.440 -10.435  1.00  0.00     0.035 C 
HETATM    7  C15 UNL     1      32.098  41.730  -9.779  1.00  0.00    -0.024 C 
HETATM    8  C16 UNL     1      33.018  41.886  -8.875  1.00  0.00    -0.024 C 
HETATM    9  C17 UNL     1      33.914  40.813  -8.432  1.00  0.00     0.027 C 
HETATM   10  C18 UNL     1      33.993  40.929  -6.903  1.00  0.00     0.092 C 
HETATM   11  C26 UNL     1      34.280  39.467  -6.547  1.00  0.00     0.130 C 
HETATM   12  C27 UNL     1      33.185  38.804  -7.396  1.00  0.00     0.039 C 
HETATM   13  C28 UNL     1      33.493  39.444  -8.760  1.00  0.00     0.013 C 
ENDROOT
BRANCH   5  14
HETATM   14  C5  UNL     1      32.423  40.286 -12.954  1.00  0.00     0.013 C 
BRANCH  14  15
HETATM   15  C6  UNL     1      32.644  41.662 -13.404  1.00  0.00     0.007 C 
BRANCH  15  16
HETATM   16  C7  UNL     1      31.445  42.481 -13.734  1.00  0.00     0.008 C 
HETATM   17  C8  UNL     1      31.230  42.735 -15.212  1.00  0.00     0.007 C 
HETATM   18  C9  UNL     1      30.250  43.870 -15.431  1.00  0.00     0.001 C 
HETATM   19  C10 UNL     1      29.208  43.814 -14.344  1.00  0.00     0.002 C 
HETATM   20  C11 UNL     1      29.770  44.052 -12.961  1.00  0.00     0.025 C 
HETATM   21  C12 UNL     1      31.263  43.728 -12.914  1.00  0.00     0.088 C 
BRANCH  21  22
HETATM   22  N1  UNL     1      32.063  44.828 -13.302  1.00  0.00    -0.360 N 
HETATM   23  C13 UNL     1      32.903  45.452 -12.356  1.00  0.00     0.182 C 
HETATM   24  N2  UNL     1      33.477  44.722 -11.471  1.00  0.00    -0.374 N 
HETATM   25  N3  UNL     1      33.146  46.853 -12.336  1.00  0.00    -0.064 NA
ATOM     26  H22 UNL     1      33.302  43.718 -11.486  1.00  0.00     0.158 HD
ATOM     27  H21 UNL     1      34.085  45.174 -10.787  1.00  0.00     0.158 HD
ATOM     28  H1  UNL     1      32.032  45.169 -14.263  1.00  0.00     0.162 HD
ENDBRANCH  21  22
ENDBRANCH  15  16
ENDBRANCH  14  15
ENDBRANCH   5  14
BRANCH  10  29
HETATM   29  C19 UNL     1      35.147  41.738  -6.488  1.00  0.00     0.134 C 
HETATM   30  O2  UNL     1      36.060  41.974  -7.260  1.00  0.00    -0.297 OA
BRANCH  29  31
HETATM   31  C20 UNL     1      35.213  42.280  -5.118  1.00  0.00     0.079 C 
BRANCH  31  32
HETATM   32  C21 UNL     1      36.313  41.646  -4.299  1.00  0.00     0.007 C 
BRANCH  32  33
HETATM   33  C22 UNL     1      36.257  42.037  -2.840  1.00  0.00     0.001 C 
BRANCH  33  34
HETATM   34  C23 UNL     1      37.109  43.219  -2.520  1.00  0.00     0.009 C 
BRANCH  34  35
HETATM   35  C24 UNL     1      36.684  43.785  -1.191  1.00  0.00     0.099 C 
BRANCH  35  36
HETATM   36  C25 UNL     1      37.725  44.715  -0.712  1.00  0.00     0.231 C 
HETATM   37  N4  UNL     1      37.921  44.863   0.683  1.00  0.00    -0.062 NA
HETATM   38  O3  UNL     1      38.414  45.353  -1.526  1.00  0.00    -0.277 OA
ENDBRANCH  35  36
ENDBRANCH  34  35
ENDBRANCH  33  34
ENDBRANCH  32  33
ENDBRANCH  31  32
ENDBRANCH  29  31
ENDBRANCH  10  29
BRANCH  11  39
HETATM   39  O4  UNL     1      35.484  39.082  -7.142  1.00  0.00    -0.395 OA
ATOM     40  H4  UNL     1      35.432  38.163  -7.379  1.00  0.00     0.210 HD
ENDBRANCH  11  39
TORSDOF 12
ENDMDL
MODEL 2
REMARK VINA RESULT: -8.400510062      3.878      6.201
REMARK  12 active torsions:
REMARK  status: ('A' for Active; 'I' for Inactive)
REMARK    1  A    between atoms: C4_5  and  C5_6 
REMARK    2  A    between atoms: C5_6  and  C6_7 
REMARK    3  A    between atoms: C6_7  and  C7_8 
REMARK    4  A    between atoms: C12_13  and  N1_14 
REMARK       I    between atoms: N1_14  and  C13_16 
REMARK    5  A    between atoms: C18_25  and  C19_26 
REMARK    6  A    between atoms: C19_26  and  C20_28 
REMARK    7  A    between atoms: C20_28  and  C21_29 
REMARK    8  A    between atoms: C21_29  and  C22_30 
REMARK    9  A    between atoms: C22_30  and  C23_31 
REMARK   10  A    between atoms: C23_31  and  C24_32 
REMARK   11  A    between atoms: C24_32  and  C25_33 
REMARK   12  A    between atoms: C26_36  and  O4_37 
ROOT
HETATM    1  C1  UNL     1      32.520  41.551 -13.086  1.00  0.00     0.025 C 
HETATM    2  C2  UNL     1      32.079  40.849 -11.819  1.00  0.00     0.029 C 
HETATM    3  C3  UNL     1      30.689  40.285 -11.957  1.00  0.00     0.141 C 
HETATM    4  O1  UNL     1      29.675  40.747 -12.417  1.00  0.00    -0.297 OA
HETATM    5  C4  UNL     1      31.155  39.047 -11.323  1.00  0.00     0.065 C 
HETATM    6  C14 UNL     1      32.548  39.423 -11.731  1.00  0.00     0.035 C 
HETATM    7  C15 UNL     1      33.606  39.168 -10.755  1.00  0.00    -0.024 C 
HETATM    8  C16 UNL     1      33.800  39.963  -9.745  1.00  0.00    -0.024 C 
HETATM    9  C17 UNL     1      32.999  41.165  -9.491  1.00  0.00     0.027 C 
HETATM   10  C18 UNL     1      33.995  42.261  -9.085  1.00  0.00     0.092 C 
HETATM   11  C26 UNL     1      33.224  43.498  -9.556  1.00  0.00     0.130 C 
HETATM   12  C27 UNL     1      32.860  43.018 -10.969  1.00  0.00     0.039 C 
HETATM   13  C28 UNL     1      32.210  41.667 -10.623  1.00  0.00     0.013 C 
ENDROOT
BRANCH   5  14
HETATM   14  C5  UNL     1      30.589  37.748 -11.827  1.00  0.00     0.013 C 
BRANCH  14  15
HETATM   15  C6  UNL     1      30.396  36.773 -10.751  1.00  0.00     0.007 C 
BRANCH  15  16
HETATM   16  C7  UNL     1      31.340  36.820  -9.601  1.00  0.00     0.008 C 
HETATM   17  C8  UNL     1      32.472  35.815  -9.661  1.00  0.00     0.007 C 
HETATM   18  C9  UNL     1      33.136  35.662  -8.307  1.00  0.00     0.001 C 
HETATM   19  C10 UNL     1      33.130  37.004  -7.621  1.00  0.00     0.002 C 
HETATM   20  C11 UNL     1      31.740  37.515  -7.314  1.00  0.00     0.025 C 
HETATM   21  C12 UNL     1      30.705  36.874  -8.239  1.00  0.00     0.088 C 
BRANCH  21  22
HETATM   22  N1  UNL     1      30.235  35.637  -7.742  1.00  0.00    -0.360 N 
HETATM   23  C13 UNL     1      28.850  35.435  -7.560  1.00  0.00     0.182 C 
HETATM   24  N2  UNL     1      28.039  35.961  -8.403  1.00  0.00    -0.374 N 
HETATM   25  N3  UNL     1      28.309  34.677  -6.486  1.00  0.00    -0.064 NA
ATOM     26  H22 UNL     1      28.427  36.505  -9.173  1.00  0.00     0.158 HD
ATOM     27  H21 UNL     1      27.038  35.815  -8.271  1.00  0.00     0.158 HD
ATOM     28  H1  UNL     1      30.894  34.892  -7.516  1.00  0.00     0.162 HD
ENDBRANCH  21  22
ENDBRANCH  15  16
ENDBRANCH  14  15
ENDBRANCH   5  14
BRANCH  10  29
HETATM   29  C19 UNL     1      34.140  42.338  -7.625  1.00  0.00     0.134 C 
HETATM   30  O2  UNL     1      34.195  43.413  -7.055  1.00  0.00    -0.297 OA
BRANCH  29  31
HETATM   31  C20 UNL     1      34.222  41.101  -6.827  1.00  0.00     0.079 C 
BRANCH  31  32
HETATM   32  C21 UNL     1      35.519  40.994  -6.060  1.00  0.00     0.007 C 
BRANCH  32  33
HETATM   33  C22 UNL     1      35.592  41.950  -4.893  1.00  0.00     0.001 C 
BRANCH  33  34
HETATM   34  C23 UNL     1      36.786  41.725  -4.028  1.00  0.00     0.009 C 
BRANCH  34  35
HETATM   35  C24 UNL     1      36.376  41.836  -2.584  1.00  0.00     0.099 C 
BRANCH  35  36
HETATM   36  C25 UNL     1      36.869  43.116  -2.042  1.00  0.00     0.231 C 
HETATM   37  N4  UNL     1      36.473  43.506  -0.739  1.00  0.00    -0.062 NA
HETATM   38  O3  UNL     1      37.621  43.833  -2.723  1.00  0.00    -0.277 OA
ENDBRANCH  35  36
ENDBRANCH  34  35
ENDBRANCH  33  34
ENDBRANCH  32  33
ENDBRANCH  31  32
ENDBRANCH  29  31
ENDBRANCH  10  29
BRANCH  11  39
HETATM   39  O4  UNL     1      32.009  43.565  -8.871  1.00  0.00    -0.395 OA
ATOM     40  H4  UNL     1      31.812  44.474  -8.677  1.00  0.00     0.210 HD
ENDBRANCH  11  39
TORSDOF 12
ENDMDL
MODEL 3
REMARK VINA RESULT: -8.214916148      3.649      8.147
REMARK  12 active torsions:
REMARK  status: ('A' for Active; 'I' for Inactive)
REMARK    1  A    between atoms: C4_5  and  C5_6 
REMARK    2  A    between atoms: C5_6  and  C6_7 
REMARK    3  A    between atoms: C6_7  and  C7_8 
REMARK    4  A    between atoms: C12_13  and  N1_14 
REMARK       I    between atoms: N1_14  and  C13_16 
REMARK    5  A    between atoms: C18_25  and  C19_26 
REMARK    6  A    between atoms: C19_26  and  C20_28 
REMARK    7  A    between atoms: C20_28  and  C21_29 
REMARK    8  A    between atoms: C21_29  and  C22_30 
REMARK    9  A    between atoms: C22_30  and  C23_31 
REMARK   10  A    between atoms: C23_31  and  C24_32 
REMARK   11  A    between atoms: C24_32  and  C25_33 
REMARK   12  A    between atoms: C26_36  and  O4_37 
ROOT
HETATM    1  C1  UNL     1      29.459  38.815 -13.887  1.00  0.00     0.025 C 
HETATM    2  C2  UNL     1      29.788  39.812 -12.795  1.00  0.00     0.029 C 
HETATM    3  C3  UNL     1      29.154  39.423 -11.485  1.00  0.00     0.141 C 
HETATM    4  O1  UNL     1      28.050  39.026 -11.212  1.00  0.00    -0.297 OA
HETATM    5  C4  UNL     1      30.418  39.738 -10.809  1.00  0.00     0.065 C 
HETATM    6  C14 UNL     1      31.109  39.552 -12.127  1.00  0.00     0.035 C 
HETATM    7  C15 UNL     1      32.172  40.504 -12.446  1.00  0.00    -0.024 C 
HETATM    8  C16 UNL     1      31.903  41.700 -12.874  1.00  0.00    -0.024 C 
HETATM    9  C17 UNL     1      30.540  42.204 -13.078  1.00  0.00     0.027 C 
HETATM   10  C18 UNL     1      30.562  42.962 -14.413  1.00  0.00     0.092 C 
HETATM   11  C26 UNL     1      29.102  42.780 -14.838  1.00  0.00     0.130 C 
HETATM   12  C27 UNL     1      28.981  41.266 -14.605  1.00  0.00     0.039 C 
HETATM   13  C28 UNL     1      29.481  41.189 -13.151  1.00  0.00     0.013 C 
ENDROOT
BRANCH   5  14
HETATM   14  C5  UNL     1      30.831  38.863  -9.657  1.00  0.00     0.013 C 
BRANCH  14  15
HETATM   15  C6  UNL     1      31.954  39.431  -8.906  1.00  0.00     0.007 C 
BRANCH  15  16
HETATM   16  C7  UNL     1      33.203  38.625  -8.820  1.00  0.00     0.008 C 
HETATM   17  C8  UNL     1      33.072  37.320  -8.063  1.00  0.00     0.007 C 
HETATM   18  C9  UNL     1      34.434  36.769  -7.690  1.00  0.00     0.001 C 
HETATM   19  C10 UNL     1      35.399  37.099  -8.799  1.00  0.00     0.002 C 
HETATM   20  C11 UNL     1      35.621  38.583  -8.981  1.00  0.00     0.025 C 
HETATM   21  C12 UNL     1      34.441  39.384  -8.429  1.00  0.00     0.088 C 
BRANCH  21  22
HETATM   22  N1  UNL     1      34.573  39.651  -7.047  1.00  0.00    -0.360 N 
HETATM   23  C13 UNL     1      35.281  40.794  -6.618  1.00  0.00     0.182 C 
HETATM   24  N2  UNL     1      35.188  41.868  -7.314  1.00  0.00    -0.374 N 
HETATM   25  N3  UNL     1      36.092  40.815  -5.452  1.00  0.00    -0.064 NA
ATOM     26  H22 UNL     1      34.606  41.852  -8.151  1.00  0.00     0.158 HD
ATOM     27  H21 UNL     1      35.699  42.694  -7.004  1.00  0.00     0.158 HD
ATOM     28  H1  UNL     1      34.159  39.019  -6.362  1.00  0.00     0.162 HD
ENDBRANCH  21  22
ENDBRANCH  15  16
ENDBRANCH  14  15
ENDBRANCH   5  14
BRANCH  10  29
HETATM   29  C19 UNL     1      30.806  44.396 -14.209  1.00  0.00     0.134 C 
HETATM   30  O2  UNL     1      30.073  45.064 -13.501  1.00  0.00    -0.297 OA
BRANCH  29  31
HETATM   31  C20 UNL     1      31.952  45.050 -14.868  1.00  0.00     0.079 C 
BRANCH  31  32
HETATM   32  C21 UNL     1      33.215  44.970 -14.043  1.00  0.00     0.007 C 
BRANCH  32  33
HETATM   33  C22 UNL     1      33.044  45.538 -12.653  1.00  0.00     0.001 C 
BRANCH  33  34
HETATM   34  C23 UNL     1      33.566  44.635 -11.586  1.00  0.00     0.009 C 
BRANCH  34  35
HETATM   35  C24 UNL     1      32.495  44.432 -10.547  1.00  0.00     0.099 C 
BRANCH  35  36
HETATM   36  C25 UNL     1      32.965  43.440  -9.562  1.00  0.00     0.231 C 
HETATM   37  N4  UNL     1      32.471  43.505  -8.236  1.00  0.00    -0.062 NA
HETATM   38  O3  UNL     1      33.781  42.565  -9.898  1.00  0.00    -0.277 OA
ENDBRANCH  35  36
ENDBRANCH  34  35
ENDBRANCH  33  34
ENDBRANCH  32  33
ENDBRANCH  31  32
ENDBRANCH  29  31
ENDBRANCH  10  29
BRANCH  11  39
HETATM   39  O4  UNL     1      28.272  43.362 -13.877  1.00  0.00    -0.395 OA
ATOM     40  H4  UNL     1      27.600  43.870 -14.315  1.00  0.00     0.210 HD
ENDBRANCH  11  39
TORSDOF 12
ENDMDL
MODEL 4
REMARK VINA RESULT: -8.193110255      1.859      2.840
REMARK  12 active torsions:
REMARK  status: ('A' for Active; 'I' for Inactive)
REMARK    1  A    between atoms: C4_5  and  C5_6 
REMARK    2  A    between atoms: C5_6  and  C6_7 
REMARK    3  A    between atoms: C6_7  and  C7_8 
REMARK    4  A    between atoms: C12_13  and  N1_14 
REMARK       I    between atoms: N1_14  and  C13_16 
REMARK    5  A    between atoms: C18_25  and  C19_26 
REMARK    6  A    between atoms: C19_26  and  C20_28 
REMARK    7  A    between atoms: C20_28  and  C21_29 
REMARK    8  A    between atoms: C21_29  and  C22_30 
REMARK    9  A    between atoms: C22_30  and  C23_31 
REMARK   10  A    between atoms: C23_31  and  C24_32 
REMARK   11  A    between atoms: C24_32  and  C25_33 
REMARK   12  A    between atoms: C26_36  and  O4_37 
ROOT
HETATM    1  C1  UNL     1      32.398  37.032 -12.079  1.00  0.00     0.025 C 
HETATM    2  C2  UNL     1      32.628  38.458 -11.624  1.00  0.00     0.029 C 
HETATM    3  C3  UNL     1      32.807  39.388 -12.796  1.00  0.00     0.141 C 
HETATM    4  O1  UNL     1      33.446  39.287 -13.813  1.00  0.00    -0.297 OA
HETATM    5  C4  UNL     1      31.916  40.350 -12.137  1.00  0.00     0.065 C 
HETATM    6  C14 UNL     1      31.355  39.207 -11.344  1.00  0.00     0.035 C 
HETATM    7  C15 UNL     1      31.078  39.468  -9.932  1.00  0.00    -0.024 C 
HETATM    8  C16 UNL     1      32.028  39.478  -9.047  1.00  0.00    -0.024 C 
HETATM    9  C17 UNL     1      33.439  39.236  -9.365  1.00  0.00     0.027 C 
HETATM   10  C18 UNL     1      33.971  38.310  -8.261  1.00  0.00     0.092 C 
HETATM   11  C26 UNL     1      35.077  37.591  -9.037  1.00  0.00     0.130 C 
HETATM   12  C27 UNL     1      34.273  37.213 -10.290  1.00  0.00     0.039 C 
HETATM   13  C28 UNL     1      33.708  38.595 -10.659  1.00  0.00     0.013 C 
ENDROOT
BRANCH   5  14
HETATM   14  C5  UNL     1      30.980  41.143 -13.006  1.00  0.00     0.013 C 
BRANCH  14  15
HETATM   15  C6  UNL     1      30.575  42.403 -12.377  1.00  0.00     0.007 C 
BRANCH  15  16
HETATM   16  C7  UNL     1      31.367  43.621 -12.701  1.00  0.00     0.008 C 
HETATM   17  C8  UNL     1      32.324  43.471 -13.866  1.00  0.00     0.007 C 
HETATM   18  C9  UNL     1      33.346  44.591 -13.877  1.00  0.00     0.001 C 
HETATM   19  C10 UNL     1      32.676  45.850 -13.391  1.00  0.00     0.002 C 
HETATM   20  C11 UNL     1      32.211  45.767 -11.954  1.00  0.00     0.025 C 
HETATM   21  C12 UNL     1      32.007  44.312 -11.529  1.00  0.00     0.088 C 
BRANCH  21  22
HETATM   22  N1  UNL     1      33.200  43.719 -11.056  1.00  0.00    -0.360 N 
HETATM   23  C13 UNL     1      33.301  43.330  -9.704  1.00  0.00     0.182 C 
HETATM   24  N2  UNL     1      32.260  42.856  -9.124  1.00  0.00    -0.374 N 
HETATM   25  N3  UNL     1      34.503  43.436  -8.951  1.00  0.00    -0.064 NA
ATOM     26  H22 UNL     1      31.398  42.781  -9.663  1.00  0.00     0.158 HD
ATOM     27  H21 UNL     1      32.334  42.575  -8.146  1.00  0.00     0.158 HD
ATOM     28  H1  UNL     1      33.985  43.573 -11.691  1.00  0.00     0.162 HD
ENDBRANCH  21  22
ENDBRANCH  15  16
ENDBRANCH  14  15
ENDBRANCH   5  14
BRANCH  10  29
HETATM   29  C19 UNL     1      34.595  39.078  -7.175  1.00  0.00     0.134 C 
HETATM   30  O2  UNL     1      35.484  38.596  -6.495  1.00  0.00    -0.297 OA
BRANCH  29  31
HETATM   31  C20 UNL     1      34.147  40.454  -6.894  1.00  0.00     0.079 C 
BRANCH  31  32
HETATM   32  C21 UNL     1      35.301  41.411  -6.707  1.00  0.00     0.007 C 
BRANCH  32  33
HETATM   33  C22 UNL     1      35.310  42.061  -5.343  1.00  0.00     0.001 C 
BRANCH  33  34
HETATM   34  C23 UNL     1      36.232  41.390  -4.383  1.00  0.00     0.009 C 
BRANCH  34  35
HETATM   35  C24 UNL     1      36.121  42.066  -3.041  1.00  0.00     0.099 C 
BRANCH  35  36
HETATM   36  C25 UNL     1      37.439  42.615  -2.671  1.00  0.00     0.231 C 
HETATM   37  N4  UNL     1      37.534  43.979  -2.303  1.00  0.00    -0.062 NA
HETATM   38  O3  UNL     1      38.445  41.885  -2.683  1.00  0.00    -0.277 OA
ENDBRANCH  35  36
ENDBRANCH  34  35
ENDBRANCH  33  34
ENDBRANCH  32  33
ENDBRANCH  31  32
ENDBRANCH  29  31
ENDBRANCH  10  29
BRANCH  11  39
HETATM   39  O4  UNL     1      36.011  38.532  -9.476  1.00  0.00    -0.395 OA
ATOM     40  H4  UNL     1      36.184  38.390 -10.399  1.00  0.00     0.210 HD
ENDBRANCH  11  39
TORSDOF 12
ENDMDL
MODEL 5
REMARK VINA RESULT: -8.149107791      4.227      7.668
REMARK  12 active torsions:
REMARK  status: ('A' for Active; 'I' for Inactive)
REMARK    1  A    between atoms: C4_5  and  C5_6 
REMARK    2  A    between atoms: C5_6  and  C6_7 
REMARK    3  A    between atoms: C6_7  and  C7_8 
REMARK    4  A    between atoms: C12_13  and  N1_14 
REMARK       I    between atoms: N1_14  and  C13_16 
REMARK    5  A    between atoms: C18_25  and  C19_26 
REMARK    6  A    between atoms: C19_26  and  C20_28 
REMARK    7  A    between atoms: C20_28  and  C21_29 
REMARK    8  A    between atoms: C21_29  and  C22_30 
REMARK    9  A    between atoms: C22_30  and  C23_31 
REMARK   10  A    between atoms: C23_31  and  C24_32 
REMARK   11  A    between atoms: C24_32  and  C25_33 
REMARK   12  A    between atoms: C26_36  and  O4_37 
ROOT
HETATM    1  C1  UNL     1      35.693  38.842  -9.107  1.00  0.00     0.025 C 
HETATM    2  C2  UNL     1      34.394  39.516  -8.716  1.00  0.00     0.029 C 
HETATM    3  C3  UNL     1      34.643  40.787  -7.946  1.00  0.00     0.141 C 
HETATM    4  O1  UNL     1      35.403  41.048  -7.048  1.00  0.00    -0.297 OA
HETATM    5  C4  UNL     1      33.613  41.449  -8.755  1.00  0.00     0.065 C 
HETATM    6  C14 UNL     1      33.827  40.393  -9.798  1.00  0.00     0.035 C 
HETATM    7  C15 UNL     1      32.629  39.878 -10.460  1.00  0.00    -0.024 C 
HETATM    8  C16 UNL     1      31.860  39.005  -9.883  1.00  0.00    -0.024 C 
HETATM    9  C17 UNL     1      32.109  38.460  -8.544  1.00  0.00     0.027 C 
HETATM   10  C18 UNL     1      31.833  36.952  -8.641  1.00  0.00     0.092 C 
HETATM   11  C26 UNL     1      32.768  36.447  -7.539  1.00  0.00     0.130 C 
HETATM   12  C27 UNL     1      34.038  37.210  -7.946  1.00  0.00     0.039 C 
HETATM   13  C28 UNL     1      33.468  38.638  -8.018  1.00  0.00     0.013 C 
ENDROOT
BRANCH   5  14
HETATM   14  C5  UNL     1      33.842  42.886  -9.137  1.00  0.00     0.013 C 
BRANCH  14  15
HETATM   15  C6  UNL     1      32.645  43.503  -9.715  1.00  0.00     0.007 C 
BRANCH  15  16
HETATM   16  C7  UNL     1      32.702  43.909 -11.146  1.00  0.00     0.008 C 
HETATM   17  C8  UNL     1      32.310  45.347 -11.418  1.00  0.00     0.007 C 
HETATM   18  C9  UNL     1      32.019  45.562 -12.890  1.00  0.00     0.001 C 
HETATM   19  C10 UNL     1      32.955  44.694 -13.691  1.00  0.00     0.002 C 
HETATM   20  C11 UNL     1      32.742  43.214 -13.467  1.00  0.00     0.025 C 
HETATM   21  C12 UNL     1      32.067  42.956 -12.120  1.00  0.00     0.088 C 
BRANCH  21  22
HETATM   22  N1  UNL     1      30.657  43.029 -12.203  1.00  0.00    -0.360 N 
HETATM   23  C13 UNL     1      29.953  42.098 -12.996  1.00  0.00     0.182 C 
HETATM   24  N2  UNL     1      30.381  40.890 -13.046  1.00  0.00    -0.374 N 
HETATM   25  N3  UNL     1      28.790  42.433 -13.741  1.00  0.00    -0.064 NA
ATOM     26  H22 UNL     1      31.215  40.650 -12.511  1.00  0.00     0.158 HD
ATOM     27  H21 UNL     1      29.871  40.217 -13.619  1.00  0.00     0.158 HD
ATOM     28  H1  UNL     1      30.151  43.753 -11.693  1.00  0.00     0.162 HD
ENDBRANCH  21  22
ENDBRANCH  15  16
ENDBRANCH  14  15
ENDBRANCH   5  14
BRANCH  10  29
HETATM   29  C19 UNL     1      30.452  36.636  -8.252  1.00  0.00     0.134 C 
HETATM   30  O2  UNL     1      30.217  35.899  -7.311  1.00  0.00    -0.297 OA
BRANCH  29  31
HETATM   31  C20 UNL     1      29.323  37.213  -9.006  1.00  0.00     0.079 C 
BRANCH  31  32
HETATM   32  C21 UNL     1      28.105  36.320  -8.996  1.00  0.00     0.007 C 
BRANCH  32  33
HETATM   33  C22 UNL     1      27.198  36.552 -10.182  1.00  0.00     0.001 C 
BRANCH  33  34
HETATM   34  C23 UNL     1      26.458  37.844 -10.106  1.00  0.00     0.009 C 
BRANCH  34  35
HETATM   35  C24 UNL     1      26.303  38.404 -11.496  1.00  0.00     0.099 C 
BRANCH  35  36
HETATM   36  C25 UNL     1      27.573  39.033 -11.903  1.00  0.00     0.231 C 
HETATM   37  N4  UNL     1      28.054  38.817 -13.218  1.00  0.00    -0.062 NA
HETATM   38  O3  UNL     1      28.206  39.740 -11.100  1.00  0.00    -0.277 OA
ENDBRANCH  35  36
ENDBRANCH  34  35
ENDBRANCH  33  34
ENDBRANCH  32  33
ENDBRANCH  31  32
ENDBRANCH  29  31
ENDBRANCH  10  29
BRANCH  11  39
HETATM   39  O4  UNL     1      32.382  37.010  -6.320  1.00  0.00    -0.395 OA
ATOM     40  H4  UNL     1      33.052  37.621  -6.035  1.00  0.00     0.210 HD
ENDBRANCH  11  39
TORSDOF 12
ENDMDL
