MODEL 1
REMARK VINA RESULT: -7.712867640      0.000      0.000
REMARK  13 active torsions:
REMARK  status: ('A' for Active; 'I' for Inactive)
REMARK    1  A    between atoms: N1_2  and  C2_3 
REMARK    2  A    between atoms: N1_2  and  C16_23 
REMARK    3  A    between atoms: C2_3  and  C3_4 
REMARK    4  A    between atoms: C3_4  and  C4_5 
REMARK    5  A    between atoms: C4_5  and  C5_6 
REMARK    6  A    between atoms: C5_6  and  C6_7 
REMARK    7  A    between atoms: C6_7  and  C7_8 
REMARK    8  A    between atoms: C7_8  and  C8_9 
REMARK    9  A    between atoms: C8_9  and  C9_10 
REMARK   10  A    between atoms: C13_14  and  O1_15 
REMARK   11  A    between atoms: C15_18  and  N2_19 
REMARK   12  A    between atoms: C16_23  and  C17_24 
REMARK       I    between atoms: C17_24  and  N3_26 
REMARK   13  A    between atoms: N3_26  and  C18_28 
ROOT
HETATM    1  C5  UNL     1      32.694  43.932 -10.128  1.00  0.00     0.000 C 
ENDROOT
BRANCH   1   2
HETATM    2  C4  UNL     1      33.854  43.253  -9.413  1.00  0.00     0.002 C 
BRANCH   2   3
HETATM    3  C3  UNL     1      33.343  42.586  -8.144  1.00  0.00     0.020 C 
BRANCH   3   4
HETATM    4  C2  UNL     1      34.178  41.299  -8.021  1.00  0.00     0.122 C 
BRANCH   4   5
HETATM    5  N1  UNL     1      34.473  41.075  -6.669  1.00  0.00    -0.390 N 
HETATM    6  C1  UNL     1      35.196  39.908  -6.394  1.00  0.00     0.149 C 
BRANCH   5   7
HETATM    7  C16 UNL     1      34.583  42.200  -5.842  1.00  0.00     0.160 C 
BRANCH   7   8
HETATM    8  C17 UNL     1      35.695  42.251  -4.888  1.00  0.00     0.256 C 
HETATM    9  O2  UNL     1      36.840  42.534  -5.323  1.00  0.00    -0.267 OA
HETATM   10  N3  UNL     1      35.530  41.995  -3.517  1.00  0.00    -0.352 N 
ATOM     11  H3  UNL     1      34.607  41.762  -3.151  1.00  0.00     0.163 HD
BRANCH  10  12
HETATM   12  C18 UNL     1      36.681  42.061  -2.608  1.00  0.00     0.084 C 
HETATM   13  C19 UNL     1      36.913  43.512  -2.291  1.00  0.00     0.025 C 
HETATM   14  C20 UNL     1      36.546  43.634  -0.810  1.00  0.00     0.002 C 
HETATM   15  C21 UNL     1      37.058  42.304  -0.280  1.00  0.00     0.002 C 
HETATM   16  C22 UNL     1      36.407  41.356  -1.297  1.00  0.00     0.025 C 
ENDBRANCH  10  12
ENDBRANCH   7   8
ENDBRANCH   5   7
ENDBRANCH   4   5
ENDBRANCH   3   4
ENDBRANCH   2   3
ENDBRANCH   1   2
BRANCH   1  17
HETATM   17  C6  UNL     1      33.240  44.481 -11.403  1.00  0.00     0.000 C 
BRANCH  17  18
HETATM   18  C7  UNL     1      32.762  43.700 -12.642  1.00  0.00     0.000 C 
BRANCH  18  19
HETATM   19  C8  UNL     1      31.740  42.682 -12.249  1.00  0.00     0.007 C 
BRANCH  19  20
HETATM   20  C9  UNL     1      31.505  41.540 -13.143  1.00  0.00     0.019 C 
HETATM   21  C10 UNL     1      32.701  40.572 -12.909  1.00  0.00     0.033 C 
HETATM   22  C11 UNL     1      32.862  40.219 -11.498  1.00  0.00    -0.028 C 
HETATM   23  C12 UNL     1      31.955  39.875 -10.584  1.00  0.00     0.001 C 
HETATM   24  C13 UNL     1      30.476  39.772 -10.831  1.00  0.00     0.142 C 
HETATM   25  C14 UNL     1      30.216  39.546 -12.277  1.00  0.00     0.069 C 
HETATM   26  C15 UNL     1      30.238  40.798 -13.132  1.00  0.00     0.190 C 
BRANCH  24  27
HETATM   27  O1  UNL     1      29.755  40.787 -10.255  1.00  0.00    -0.392 OA
ATOM     28  H1  UNL     1      28.991  40.484  -9.781  1.00  0.00     0.210 HD
ENDBRANCH  24  27
BRANCH  26  29
HETATM   29  N2  UNL     1      29.019  41.488 -12.928  1.00  0.00    -0.075 N 
ATOM     30  H23 UNL     1      28.954  41.745 -11.943  1.00  0.00     0.274 HD
ATOM     31  H22 UNL     1      29.087  42.403 -13.373  1.00  0.00     0.274 HD
ATOM     32  H21 UNL     1      28.139  41.056 -13.208  1.00  0.00     0.274 HD
ENDBRANCH  26  29
ENDBRANCH  19  20
ENDBRANCH  18  19
ENDBRANCH  17  18
ENDBRANCH   1  17
TORSDOF 13
ENDMDL
MODEL 2
REMARK VINA RESULT: -7.144542193      1.654      3.230
REMARK  13 active torsions:
REMARK  status: ('A' for Active; 'I' for Inactive)
REMARK    1  A    between atoms: N1_2  and  C2_3 
REMARK    2  A    between atoms: N1_2  and  C16_23 
REMARK    3  A    between atoms: C2_3  and  C3_4 
REMARK    4  A    between atoms: C3_4  and  C4_5 
REMARK    5  A    between atoms: C4_5  and  C5_6 
REMARK    6  A    between atoms: C5_6  and  C6_7 
REMARK    7  A    between atoms: C6_7  and  C7_8 
REMARK    8  A    between atoms: C7_8  and  C8_9 
REMARK    9  A    between atoms: C8_9  and  C9_10 
REMARK   10  A    between atoms: C13_14  and  O1_15 
REMARK   11  A    between atoms: C15_18  and  N2_19 
REMARK   12  A    between atoms: C16_23  and  C17_24 
REMARK       I    between atoms: C17_24  and  N3_26 
REMARK   13  A    between atoms: N3_26  and  C18_28 
ROOT
HETATM    1  C5  UNL     1      32.536  38.705  -8.377  1.00  0.00     0.000 C 
ENDROOT
BRANCH   1   2
HETATM    2  C4  UNL     1      34.003  38.379  -8.624  1.00  0.00     0.002 C 
BRANCH   2   3
HETATM    3  C3  UNL     1      34.869  39.212  -7.691  1.00  0.00     0.020 C 
BRANCH   3   4
HETATM    4  C2  UNL     1      34.601  40.667  -8.113  1.00  0.00     0.122 C 
BRANCH   4   5
HETATM    5  N1  UNL     1      34.751  41.500  -6.996  1.00  0.00    -0.390 N 
HETATM    6  C1  UNL     1      33.853  42.572  -6.916  1.00  0.00     0.149 C 
BRANCH   5   7
HETATM    7  C16 UNL     1      35.289  40.927  -5.837  1.00  0.00     0.160 C 
BRANCH   7   8
HETATM    8  C17 UNL     1      35.955  41.810  -4.874  1.00  0.00     0.256 C 
HETATM    9  O2  UNL     1      36.837  42.598  -5.301  1.00  0.00    -0.267 OA
HETATM   10  N3  UNL     1      35.648  41.808  -3.503  1.00  0.00    -0.352 N 
ATOM     11  H3  UNL     1      34.937  41.172  -3.143  1.00  0.00     0.163 HD
BRANCH  10  12
HETATM   12  C18 UNL     1      36.348  42.716  -2.587  1.00  0.00     0.084 C 
HETATM   13  C19 UNL     1      35.484  42.867  -1.367  1.00  0.00     0.025 C 
HETATM   14  C20 UNL     1      36.275  42.165  -0.259  1.00  0.00     0.002 C 
HETATM   15  C21 UNL     1      37.697  42.541  -0.645  1.00  0.00     0.002 C 
HETATM   16  C22 UNL     1      37.673  42.145  -2.128  1.00  0.00     0.025 C 
ENDBRANCH  10  12
ENDBRANCH   7   8
ENDBRANCH   5   7
ENDBRANCH   4   5
ENDBRANCH   3   4
ENDBRANCH   2   3
ENDBRANCH   1   2
BRANCH   1  17
HETATM   17  C6  UNL     1      31.880  38.770  -9.714  1.00  0.00     0.000 C 
BRANCH  17  18
HETATM   18  C7  UNL     1      30.883  39.938  -9.834  1.00  0.00     0.000 C 
BRANCH  18  19
HETATM   19  C8  UNL     1      31.145  40.716 -11.083  1.00  0.00     0.007 C 
BRANCH  19  20
HETATM   20  C9  UNL     1      32.508  41.198 -11.339  1.00  0.00     0.019 C 
HETATM   21  C10 UNL     1      32.850  40.737 -12.786  1.00  0.00     0.033 C 
HETATM   22  C11 UNL     1      31.853  41.181 -13.761  1.00  0.00    -0.028 C 
HETATM   23  C12 UNL     1      31.254  42.364 -13.906  1.00  0.00     0.001 C 
HETATM   24  C13 UNL     1      31.496  43.567 -13.040  1.00  0.00     0.142 C 
HETATM   25  C14 UNL     1      32.832  43.471 -12.396  1.00  0.00     0.069 C 
HETATM   26  C15 UNL     1      32.880  42.606 -11.151  1.00  0.00     0.190 C 
BRANCH  24  27
HETATM   27  O1  UNL     1      30.454  43.846 -12.192  1.00  0.00    -0.392 OA
ATOM     28  H1  UNL     1      30.706  43.861 -11.276  1.00  0.00     0.210 HD
ENDBRANCH  24  27
BRANCH  26  29
HETATM   29  N2  UNL     1      32.318  43.346 -10.083  1.00  0.00    -0.075 N 
ATOM     30  H23 UNL     1      31.659  44.022 -10.469  1.00  0.00     0.274 HD
ATOM     31  H22 UNL     1      31.696  42.733  -9.557  1.00  0.00     0.274 HD
ATOM     32  H21 UNL     1      32.929  43.829  -9.425  1.00  0.00     0.274 HD
ENDBRANCH  26  29
ENDBRANCH  19  20
ENDBRANCH  18  19
ENDBRANCH  17  18
ENDBRANCH   1  17
TORSDOF 13
ENDMDL
MODEL 3
REMARK VINA RESULT: -6.819721798      4.022     10.005
REMARK  13 active torsions:
REMARK  status: ('A' for Active; 'I' for Inactive)
REMARK    1  A    between atoms: N1_2  and  C2_3 
REMARK    2  A    between atoms: N1_2  and  C16_23 
REMARK    3  A    between atoms: C2_3  and  C3_4 
REMARK    4  A    between atoms: C3_4  and  C4_5 
REMARK    5  A    between atoms: C4_5  and  C5_6 
REMARK    6  A    between atoms: C5_6  and  C6_7 
REMARK    7  A    between atoms: C6_7  and  C7_8 
REMARK    8  A    between atoms: C7_8  and  C8_9 
REMARK    9  A    between atoms: C8_9  and  C9_10 
REMARK   10  A    between atoms: C13_14  and  O1_15 
REMARK   11  A    between atoms: C15_18  and  N2_19 
REMARK   12  A    between atoms: C16_23  and  C17_24 
REMARK       I    between atoms: C17_24  and  N3_26 
REMARK   13  A    between atoms: N3_26  and  C18_28 
ROOT
HETATM    1  C5  UNL     1      38.450  39.421  -3.259  1.00  0.00     0.000 C 
ENDROOT
BRANCH   1   2
HETATM    2  C4  UNL     1      37.958  38.707  -4.511  1.00  0.00     0.002 C 
BRANCH   2   3
HETATM    3  C3  UNL     1      38.931  37.594  -4.872  1.00  0.00     0.020 C 
BRANCH   3   4
HETATM    4  C2  UNL     1      38.038  36.459  -5.403  1.00  0.00     0.122 C 
BRANCH   4   5
HETATM    5  N1  UNL     1      38.342  36.234  -6.753  1.00  0.00    -0.390 N 
HETATM    6  C1  UNL     1      39.615  35.707  -7.006  1.00  0.00     0.149 C 
BRANCH   5   7
HETATM    7  C16 UNL     1      37.271  35.971  -7.616  1.00  0.00     0.160 C 
BRANCH   7   8
HETATM    8  C17 UNL     1      36.054  36.776  -7.473  1.00  0.00     0.256 C 
HETATM    9  O2  UNL     1      35.001  36.199  -7.101  1.00  0.00    -0.267 OA
HETATM   10  N3  UNL     1      36.021  38.155  -7.734  1.00  0.00    -0.352 N 
ATOM     11  H3  UNL     1      36.868  38.635  -8.039  1.00  0.00     0.163 HD
BRANCH  10  12
HETATM   12  C18 UNL     1      34.773  38.909  -7.572  1.00  0.00     0.084 C 
HETATM   13  C19 UNL     1      34.983  39.878  -6.443  1.00  0.00     0.025 C 
HETATM   14  C20 UNL     1      34.978  41.251  -7.123  1.00  0.00     0.002 C 
HETATM   15  C21 UNL     1      33.920  41.033  -8.193  1.00  0.00     0.002 C 
HETATM   16  C22 UNL     1      34.440  39.724  -8.804  1.00  0.00     0.025 C 
ENDBRANCH  10  12
ENDBRANCH   7   8
ENDBRANCH   5   7
ENDBRANCH   4   5
ENDBRANCH   3   4
ENDBRANCH   2   3
ENDBRANCH   1   2
BRANCH   1  17
HETATM   17  C6  UNL     1      38.193  38.503  -2.113  1.00  0.00     0.000 C 
BRANCH  17  18
HETATM   18  C7  UNL     1      37.176  39.073  -1.107  1.00  0.00     0.000 C 
BRANCH  18  19
HETATM   19  C8  UNL     1      37.277  40.564  -1.059  1.00  0.00     0.007 C 
BRANCH  19  20
HETATM   20  C9  UNL     1      36.153  41.328  -0.502  1.00  0.00     0.019 C 
HETATM   21  C10 UNL     1      36.734  42.099   0.718  1.00  0.00     0.033 C 
HETATM   22  C11 UNL     1      37.902  42.906   0.361  1.00  0.00    -0.028 C 
HETATM   23  C12 UNL     1      38.113  43.704  -0.686  1.00  0.00     0.001 C 
HETATM   24  C13 UNL     1      37.128  43.958  -1.791  1.00  0.00     0.142 C 
HETATM   25  C14 UNL     1      35.747  43.687  -1.315  1.00  0.00     0.069 C 
HETATM   26  C15 UNL     1      35.341  42.226  -1.333  1.00  0.00     0.190 C 
BRANCH  24  27
HETATM   27  O1  UNL     1      37.470  43.356  -2.975  1.00  0.00    -0.392 OA
ATOM     28  H1  UNL     1      37.115  43.796  -3.739  1.00  0.00     0.210 HD
ENDBRANCH  24  27
BRANCH  26  29
HETATM   29  N2  UNL     1      35.045  41.872  -2.672  1.00  0.00    -0.075 N 
ATOM     30  H23 UNL     1      35.841  41.359  -3.054  1.00  0.00     0.274 HD
ATOM     31  H22 UNL     1      34.324  41.151  -2.664  1.00  0.00     0.274 HD
ATOM     32  H21 UNL     1      34.775  42.593  -3.339  1.00  0.00     0.274 HD
ENDBRANCH  26  29
ENDBRANCH  19  20
ENDBRANCH  18  19
ENDBRANCH  17  18
ENDBRANCH   1  17
TORSDOF 13
ENDMDL
MODEL 4
REMARK VINA RESULT: -6.809320123      4.250      6.296
REMARK  13 active torsions:
REMARK  status: ('A' for Active; 'I' for Inactive)
REMARK    1  A    between atoms: N1_2  and  C2_3 
REMARK    2  A    between atoms: N1_2  and  C16_23 
REMARK    3  A    between atoms: C2_3  and  C3_4 
REMARK    4  A    between atoms: C3_4  and  C4_5 
REMARK    5  A    between atoms: C4_5  and  C5_6 
REMARK    6  A    between atoms: C5_6  and  C6_7 
REMARK    7  A    between atoms: C6_7  and  C7_8 
REMARK    8  A    between atoms: C7_8  and  C8_9 
REMARK    9  A    between atoms: C8_9  and  C9_10 
REMARK   10  A    between atoms: C13_14  and  O1_15 
REMARK   11  A    between atoms: C15_18  and  N2_19 
REMARK   12  A    between atoms: C16_23  and  C17_24 
REMARK       I    between atoms: C17_24  and  N3_26 
REMARK   13  A    between atoms: N3_26  and  C18_28 
ROOT
HETATM    1  C5  UNL     1      33.889  42.016  -8.420  1.00  0.00     0.000 C 
ENDROOT
BRANCH   1   2
HETATM    2  C4  UNL     1      33.273  40.679  -8.812  1.00  0.00     0.002 C 
BRANCH   2   3
HETATM    3  C3  UNL     1      34.335  39.805  -9.461  1.00  0.00     0.020 C 
BRANCH   3   4
HETATM    4  C2  UNL     1      35.008  39.077  -8.285  1.00  0.00     0.122 C 
BRANCH   4   5
HETATM    5  N1  UNL     1      35.028  37.701  -8.553  1.00  0.00    -0.390 N 
HETATM    6  C1  UNL     1      36.158  37.235  -9.236  1.00  0.00     0.149 C 
BRANCH   5   7
HETATM    7  C16 UNL     1      34.325  36.867  -7.675  1.00  0.00     0.160 C 
BRANCH   7   8
HETATM    8  C17 UNL     1      32.893  37.114  -7.484  1.00  0.00     0.256 C 
HETATM    9  O2  UNL     1      32.477  37.328  -6.317  1.00  0.00    -0.267 OA
HETATM   10  N3  UNL     1      31.975  37.121  -8.547  1.00  0.00    -0.352 N 
ATOM     11  H3  UNL     1      32.298  36.947  -9.498  1.00  0.00     0.163 HD
BRANCH  10  12
HETATM   12  C18 UNL     1      30.552  37.376  -8.295  1.00  0.00     0.084 C 
HETATM   13  C19 UNL     1      30.027  38.159  -9.465  1.00  0.00     0.025 C 
HETATM   14  C20 UNL     1      29.074  37.187 -10.167  1.00  0.00     0.002 C 
HETATM   15  C21 UNL     1      28.467  36.472  -8.971  1.00  0.00     0.002 C 
HETATM   16  C22 UNL     1      29.752  36.093  -8.220  1.00  0.00     0.025 C 
ENDBRANCH  10  12
ENDBRANCH   7   8
ENDBRANCH   5   7
ENDBRANCH   4   5
ENDBRANCH   3   4
ENDBRANCH   2   3
ENDBRANCH   1   2
BRANCH   1  17
HETATM   17  C6  UNL     1      32.972  43.076  -8.930  1.00  0.00     0.000 C 
BRANCH  17  18
HETATM   18  C7  UNL     1      33.514  43.780 -10.188  1.00  0.00     0.000 C 
BRANCH  18  19
HETATM   19  C8  UNL     1      32.440  43.893 -11.221  1.00  0.00     0.007 C 
BRANCH  19  20
HETATM   20  C9  UNL     1      32.745  43.493 -12.601  1.00  0.00     0.019 C 
HETATM   21  C10 UNL     1      32.781  41.937 -12.587  1.00  0.00     0.033 C 
HETATM   22  C11 UNL     1      31.553  41.357 -12.042  1.00  0.00    -0.028 C 
HETATM   23  C12 UNL     1      30.277  41.672 -12.263  1.00  0.00     0.001 C 
HETATM   24  C13 UNL     1      29.802  42.762 -13.181  1.00  0.00     0.142 C 
HETATM   25  C14 UNL     1      30.840  43.054 -14.204  1.00  0.00     0.069 C 
HETATM   26  C15 UNL     1      31.953  43.974 -13.739  1.00  0.00     0.190 C 
BRANCH  24  27
HETATM   27  O1  UNL     1      29.306  43.855 -12.518  1.00  0.00    -0.392 OA
ATOM     28  H1  UNL     1      28.578  44.270 -12.966  1.00  0.00     0.210 HD
ENDBRANCH  24  27
BRANCH  26  29
HETATM   29  N2  UNL     1      31.452  45.299 -13.738  1.00  0.00    -0.075 N 
ATOM     30  H23 UNL     1      30.871  45.424 -12.909  1.00  0.00     0.274 HD
ATOM     31  H22 UNL     1      32.224  45.936 -13.544  1.00  0.00     0.274 HD
ATOM     32  H21 UNL     1      30.940  45.647 -14.548  1.00  0.00     0.274 HD
ENDBRANCH  26  29
ENDBRANCH  19  20
ENDBRANCH  18  19
ENDBRANCH  17  18
ENDBRANCH   1  17
TORSDOF 13
ENDMDL
MODEL 5
REMARK VINA RESULT: -6.786912165      5.897     11.456
REMARK  13 active torsions:
REMARK  status: ('A' for Active; 'I' for Inactive)
REMARK    1  A    between atoms: N1_2  and  C2_3 
REMARK    2  A    between atoms: N1_2  and  C16_23 
REMARK    3  A    between atoms: C2_3  and  C3_4 
REMARK    4  A    between atoms: C3_4  and  C4_5 
REMARK    5  A    between atoms: C4_5  and  C5_6 
REMARK    6  A    between atoms: C5_6  and  C6_7 
REMARK    7  A    between atoms: C6_7  and  C7_8 
REMARK    8  A    between atoms: C7_8  and  C8_9 
REMARK    9  A    between atoms: C8_9  and  C9_10 
REMARK   10  A    between atoms: C13_14  and  O1_15 
REMARK   11  A    between atoms: C15_18  and  N2_19 
REMARK   12  A    between atoms: C16_23  and  C17_24 
REMARK       I    between atoms: C17_24  and  N3_26 
REMARK   13  A    between atoms: N3_26  and  C18_28 
ROOT
HETATM    1  C5  UNL     1      38.486  38.635  -3.894  1.00  0.00     0.000 C 
ENDROOT
BRANCH   1   2
HETATM    2  C4  UNL     1      38.223  38.316  -2.429  1.00  0.00     0.002 C 
BRANCH   2   3
HETATM    3  C3  UNL     1      37.491  39.482  -1.781  1.00  0.00     0.020 C 
BRANCH   3   4
HETATM    4  C2  UNL     1      37.613  40.628  -2.801  1.00  0.00     0.122 C 
BRANCH   4   5
HETATM    5  N1  UNL     1      36.874  41.727  -2.342  1.00  0.00    -0.390 N 
HETATM    6  C1  UNL     1      37.560  42.606  -1.496  1.00  0.00     0.149 C 
BRANCH   5   7
HETATM    7  C16 UNL     1      35.830  42.182  -3.157  1.00  0.00     0.160 C 
BRANCH   7   8
HETATM    8  C17 UNL     1      35.923  41.940  -4.600  1.00  0.00     0.256 C 
HETATM    9  O2  UNL     1      36.790  42.574  -5.254  1.00  0.00    -0.267 OA
HETATM   10  N3  UNL     1      35.087  41.035  -5.274  1.00  0.00    -0.352 N 
ATOM     11  H3  UNL     1      34.379  40.516  -4.756  1.00  0.00     0.163 HD
BRANCH  10  12
HETATM   12  C18 UNL     1      35.228  40.833  -6.721  1.00  0.00     0.084 C 
HETATM   13  C19 UNL     1      34.982  39.376  -6.992  1.00  0.00     0.025 C 
HETATM   14  C20 UNL     1      33.659  39.357  -7.762  1.00  0.00     0.002 C 
HETATM   15  C21 UNL     1      33.802  40.616  -8.603  1.00  0.00     0.002 C 
HETATM   16  C22 UNL     1      34.194  41.614  -7.503  1.00  0.00     0.025 C 
ENDBRANCH  10  12
ENDBRANCH   7   8
ENDBRANCH   5   7
ENDBRANCH   4   5
ENDBRANCH   3   4
ENDBRANCH   2   3
ENDBRANCH   1   2
BRANCH   1  17
HETATM   17  C6  UNL     1      39.885  38.209  -4.182  1.00  0.00     0.000 C 
BRANCH  17  18
HETATM   18  C7  UNL     1      40.845  38.481  -3.009  1.00  0.00     0.000 C 
BRANCH  18  19
HETATM   19  C8  UNL     1      42.264  38.341  -3.458  1.00  0.00     0.007 C 
BRANCH  19  20
HETATM   20  C9  UNL     1      43.044  37.192  -2.978  1.00  0.00     0.019 C 
HETATM   21  C10 UNL     1      42.980  36.137  -4.120  1.00  0.00     0.033 C 
HETATM   22  C11 UNL     1      43.422  36.680  -5.405  1.00  0.00    -0.028 C 
HETATM   23  C12 UNL     1      44.469  37.450  -5.704  1.00  0.00     0.001 C 
HETATM   24  C13 UNL     1      45.482  37.953  -4.714  1.00  0.00     0.142 C 
HETATM   25  C14 UNL     1      45.510  37.068  -3.520  1.00  0.00     0.069 C 
HETATM   26  C15 UNL     1      44.424  37.340  -2.498  1.00  0.00     0.190 C 
BRANCH  24  27
HETATM   27  O1  UNL     1      45.365  39.294  -4.449  1.00  0.00    -0.392 OA
ATOM     28  H1  UNL     1      45.784  39.556  -3.638  1.00  0.00     0.210 HD
ENDBRANCH  24  27
BRANCH  26  29
HETATM   29  N2  UNL     1      44.794  38.493  -1.764  1.00  0.00    -0.075 N 
ATOM     30  H23 UNL     1      44.672  39.311  -2.363  1.00  0.00     0.274 HD
ATOM     31  H22 UNL     1      44.089  38.661  -1.047  1.00  0.00     0.274 HD
ATOM     32  H21 UNL     1      45.715  38.544  -1.331  1.00  0.00     0.274 HD
ENDBRANCH  26  29
ENDBRANCH  19  20
ENDBRANCH  18  19
ENDBRANCH  17  18
ENDBRANCH   1  17
TORSDOF 13
ENDMDL
