MODEL 1
REMARK VINA RESULT: -7.807109135      0.000      0.000
REMARK  12 active torsions:
REMARK  status: ('A' for Active; 'I' for Inactive)
REMARK    1  A    between atoms: C2_2  and  C3_3 
REMARK    2  A    between atoms: C3_3  and  N1_4 
REMARK    3  A    between atoms: N1_4  and  C4_5 
REMARK    4  A    between atoms: C4_5  and  C5_6 
REMARK    5  A    between atoms: C5_6  and  N2_7 
REMARK    6  A    between atoms: N2_7  and  C6_9 
REMARK    7  A    between atoms: C6_9  and  O1_10 
REMARK    8  A    between atoms: C6_9  and  C7_12 
REMARK    9  A    between atoms: C9_14  and  C10_15 
REMARK   10  A    between atoms: C14_19  and  C15_20 
REMARK   11  A    between atoms: N3_21  and  O2_23 
REMARK   12  A    between atoms: C16_25  and  C17_26 
ROOT
HETATM    1  C7  UNL     1      34.222  40.864  -7.150  1.00  0.00     0.004 A 
HETATM    2  C8  UNL     1      34.139  39.499  -6.922  1.00  0.00     0.020 A 
HETATM    3  C9  UNL     1      33.372  38.716  -7.754  1.00  0.00    -0.053 A 
HETATM    4  C13 UNL     1      32.698  39.281  -8.797  1.00  0.00     0.021 A 
HETATM    5  C14 UNL     1      32.762  40.655  -9.054  1.00  0.00    -0.004 A 
HETATM    6  C16 UNL     1      33.547  41.419  -8.192  1.00  0.00     0.024 A 
ENDROOT
BRANCH   1   7
HETATM    7  C6  UNL     1      35.101  41.698  -6.275  1.00  0.00     0.252 C 
BRANCH   7   8
HETATM    8  N2  UNL     1      35.286  41.120  -5.010  1.00  0.00    -0.371 N 
ATOM      9  H2  UNL     1      34.570  40.475  -4.675  1.00  0.00     0.161 HD
BRANCH   8  10
HETATM   10  C5  UNL     1      36.374  41.362  -4.182  1.00  0.00     0.086 C 
BRANCH  10  11
HETATM   11  C4  UNL     1      36.479  42.591  -3.370  1.00  0.00     0.281 C 
BRANCH  11  12
HETATM   12  N1  UNL     1      36.657  42.375  -1.957  1.00  0.00    -0.060 N 
HETATM   13  C18 UNL     1      35.443  42.464  -1.178  1.00  0.00     0.238 C 
HETATM   14  C19 UNL     1      35.901  41.889   0.169  1.00  0.00     0.030 C 
HETATM   15  C20 UNL     1      37.062  40.997  -0.149  1.00  0.00     0.030 C 
HETATM   16  C21 UNL     1      37.141  41.054  -1.648  1.00  0.00     0.238 C 
BRANCH  12  17
HETATM   17  C3  UNL     1      37.595  43.341  -1.441  1.00  0.00     0.264 C 
BRANCH  17  18
HETATM   18  C2  UNL     1      37.056  44.692  -1.232  1.00  0.00    -0.009 C 
HETATM   19  C1  UNL     1      37.675  45.580  -0.471  1.00  0.00     0.008 C 
ENDBRANCH  17  18
ENDBRANCH  12  17
ENDBRANCH  11  12
ENDBRANCH  10  11
ENDBRANCH   8  10
ENDBRANCH   7   8
BRANCH   7  20
HETATM   20  O1  UNL     1      36.138  42.186  -6.974  1.00  0.00    -0.373 OA
ATOM     21  H1  UNL     1      36.119  42.217  -7.923  1.00  0.00     0.212 HD
ENDBRANCH   7  20
ENDBRANCH   1   7
BRANCH   6  22
HETATM   22  C17 UNL     1      33.562  42.843  -8.468  1.00  0.00     0.271 C 
HETATM   23  O3  UNL     1      34.565  43.341  -9.059  1.00  0.00    -0.301 OA
ENDBRANCH   6  22
BRANCH   3  24
HETATM   24  C10 UNL     1      33.304  37.242  -7.502  1.00  0.00     0.010 C 
HETATM   25  C11 UNL     1      31.916  36.732  -7.824  1.00  0.00     0.015 C 
HETATM   26  C12 UNL     1      34.309  36.478  -8.292  1.00  0.00     0.015 C 
ENDBRANCH   3  24
BRANCH   5  27
HETATM   27  C15 UNL     1      32.034  41.178 -10.193  1.00  0.00     0.126 C 
HETATM   28  N3  UNL     1      30.824  40.897 -10.403  1.00  0.00    -0.280 N 
ATOM     29  H3  UNL     1      30.383  40.277  -9.724  1.00  0.00     0.193 HD
BRANCH  28  30
HETATM   30  O2  UNL     1      30.040  41.317 -11.418  1.00  0.00    -0.290 OA
ATOM     31  H2  UNL     1      29.549  42.128 -11.479  1.00  0.00     0.244 HD
ENDBRANCH  28  30
ENDBRANCH   5  27
TORSDOF 12
ENDMDL
MODEL 2
REMARK VINA RESULT: -7.725889975      2.494      4.077
REMARK  12 active torsions:
REMARK  status: ('A' for Active; 'I' for Inactive)
REMARK    1  A    between atoms: C2_2  and  C3_3 
REMARK    2  A    between atoms: C3_3  and  N1_4 
REMARK    3  A    between atoms: N1_4  and  C4_5 
REMARK    4  A    between atoms: C4_5  and  C5_6 
REMARK    5  A    between atoms: C5_6  and  N2_7 
REMARK    6  A    between atoms: N2_7  and  C6_9 
REMARK    7  A    between atoms: C6_9  and  O1_10 
REMARK    8  A    between atoms: C6_9  and  C7_12 
REMARK    9  A    between atoms: C9_14  and  C10_15 
REMARK   10  A    between atoms: C14_19  and  C15_20 
REMARK   11  A    between atoms: N3_21  and  O2_23 
REMARK   12  A    between atoms: C16_25  and  C17_26 
ROOT
HETATM    1  C7  UNL     1      34.465  40.288  -7.971  1.00  0.00     0.004 A 
HETATM    2  C8  UNL     1      33.874  41.368  -8.608  1.00  0.00     0.020 A 
HETATM    3  C9  UNL     1      33.410  41.227  -9.897  1.00  0.00    -0.053 A 
HETATM    4  C13 UNL     1      33.532  40.031 -10.541  1.00  0.00     0.021 A 
HETATM    5  C14 UNL     1      34.124  38.923  -9.925  1.00  0.00    -0.004 A 
HETATM    6  C16 UNL     1      34.583  39.099  -8.621  1.00  0.00     0.024 A 
ENDROOT
BRANCH   1   7
HETATM    7  C6  UNL     1      34.915  40.434  -6.553  1.00  0.00     0.252 C 
BRANCH   7   8
HETATM    8  N2  UNL     1      35.332  41.743  -6.266  1.00  0.00    -0.371 N 
ATOM      9  H2  UNL     1      35.513  42.366  -7.053  1.00  0.00     0.161 HD
BRANCH   8  10
HETATM   10  C5  UNL     1      35.517  42.250  -4.987  1.00  0.00     0.086 C 
BRANCH  10  11
HETATM   11  C4  UNL     1      36.843  42.270  -4.338  1.00  0.00     0.281 C 
BRANCH  11  12
HETATM   12  N1  UNL     1      36.818  42.283  -2.897  1.00  0.00    -0.060 N 
HETATM   13  C18 UNL     1      36.990  43.591  -2.307  1.00  0.00     0.238 C 
HETATM   14  C19 UNL     1      36.605  43.319  -0.846  1.00  0.00     0.030 C 
HETATM   15  C20 UNL     1      35.696  42.128  -0.886  1.00  0.00     0.030 C 
HETATM   16  C21 UNL     1      35.556  41.849  -2.355  1.00  0.00     0.238 C 
BRANCH  12  17
HETATM   17  C3  UNL     1      37.857  41.421  -2.394  1.00  0.00     0.264 C 
BRANCH  17  18
HETATM   18  C2  UNL     1      38.129  40.223  -3.202  1.00  0.00    -0.009 C 
HETATM   19  C1  UNL     1      38.063  39.006  -2.687  1.00  0.00     0.008 C 
ENDBRANCH  17  18
ENDBRANCH  12  17
ENDBRANCH  11  12
ENDBRANCH  10  11
ENDBRANCH   8  10
ENDBRANCH   7   8
BRANCH   7  20
HETATM   20  O1  UNL     1      34.094  39.770  -5.726  1.00  0.00    -0.373 OA
ATOM     21  H1  UNL     1      34.230  38.850  -5.534  1.00  0.00     0.212 HD
ENDBRANCH   7  20
ENDBRANCH   1   7
BRANCH   6  22
HETATM   22  C17 UNL     1      35.221  37.939  -8.027  1.00  0.00     0.271 C 
HETATM   23  O3  UNL     1      34.550  37.209  -7.239  1.00  0.00    -0.301 OA
ENDBRANCH   6  22
BRANCH   3  24
HETATM   24  C10 UNL     1      32.762  42.399 -10.566  1.00  0.00     0.010 C 
HETATM   25  C11 UNL     1      33.436  43.678 -10.123  1.00  0.00     0.015 C 
HETATM   26  C12 UNL     1      32.802  42.305 -12.052  1.00  0.00     0.015 C 
ENDBRANCH   3  24
BRANCH   5  27
HETATM   27  C15 UNL     1      34.200  37.680 -10.667  1.00  0.00     0.126 C 
HETATM   28  N3  UNL     1      34.598  37.635 -11.863  1.00  0.00    -0.280 N 
ATOM     29  H3  UNL     1      34.865  38.526 -12.280  1.00  0.00     0.193 HD
BRANCH  28  30
HETATM   30  O2  UNL     1      34.715  36.549 -12.657  1.00  0.00    -0.290 OA
ATOM     31  H2  UNL     1      34.154  36.293 -13.380  1.00  0.00     0.244 HD
ENDBRANCH  28  30
ENDBRANCH   5  27
TORSDOF 12
ENDMDL
MODEL 3
REMARK VINA RESULT: -7.665257033      1.743      3.351
REMARK  12 active torsions:
REMARK  status: ('A' for Active; 'I' for Inactive)
REMARK    1  A    between atoms: C2_2  and  C3_3 
REMARK    2  A    between atoms: C3_3  and  N1_4 
REMARK    3  A    between atoms: N1_4  and  C4_5 
REMARK    4  A    between atoms: C4_5  and  C5_6 
REMARK    5  A    between atoms: C5_6  and  N2_7 
REMARK    6  A    between atoms: N2_7  and  C6_9 
REMARK    7  A    between atoms: C6_9  and  O1_10 
REMARK    8  A    between atoms: C6_9  and  C7_12 
REMARK    9  A    between atoms: C9_14  and  C10_15 
REMARK   10  A    between atoms: C14_19  and  C15_20 
REMARK   11  A    between atoms: N3_21  and  O2_23 
REMARK   12  A    between atoms: C16_25  and  C17_26 
ROOT
HETATM    1  C7  UNL     1      34.150  41.740  -7.618  1.00  0.00     0.004 A 
HETATM    2  C8  UNL     1      33.998  42.680  -8.625  1.00  0.00     0.020 A 
HETATM    3  C9  UNL     1      33.521  42.288  -9.855  1.00  0.00    -0.053 A 
HETATM    4  C13 UNL     1      33.202  40.981 -10.080  1.00  0.00     0.021 A 
HETATM    5  C14 UNL     1      33.344  40.009  -9.084  1.00  0.00    -0.004 A 
HETATM    6  C16 UNL     1      33.830  40.439  -7.851  1.00  0.00     0.024 A 
ENDROOT
BRANCH   1   7
HETATM    7  C6  UNL     1      34.616  42.185  -6.268  1.00  0.00     0.252 C 
BRANCH   7   8
HETATM    8  N2  UNL     1      35.867  41.642  -5.937  1.00  0.00    -0.371 N 
ATOM      9  H2  UNL     1      36.516  41.447  -6.700  1.00  0.00     0.161 HD
BRANCH   8  10
HETATM   10  C5  UNL     1      36.285  41.351  -4.646  1.00  0.00     0.086 C 
BRANCH  10  11
HETATM   11  C4  UNL     1      36.812  42.393  -3.743  1.00  0.00     0.281 C 
BRANCH  11  12
HETATM   12  N1  UNL     1      36.785  42.056  -2.341  1.00  0.00    -0.060 N 
HETATM   13  C18 UNL     1      35.468  42.062  -1.749  1.00  0.00     0.238 C 
HETATM   14  C19 UNL     1      35.736  41.378  -0.402  1.00  0.00     0.030 C 
HETATM   15  C20 UNL     1      36.952  40.531  -0.617  1.00  0.00     0.030 C 
HETATM   16  C21 UNL     1      37.251  40.719  -2.077  1.00  0.00     0.238 C 
BRANCH  12  17
HETATM   17  C3  UNL     1      37.612  42.984  -1.611  1.00  0.00     0.264 C 
BRANCH  17  18
HETATM   18  C2  UNL     1      37.095  44.358  -1.529  1.00  0.00    -0.009 C 
HETATM   19  C1  UNL     1      37.522  45.209  -0.610  1.00  0.00     0.008 C 
ENDBRANCH  17  18
ENDBRANCH  12  17
ENDBRANCH  11  12
ENDBRANCH  10  11
ENDBRANCH   8  10
ENDBRANCH   7   8
BRANCH   7  20
HETATM   20  O1  UNL     1      34.354  43.488  -6.085  1.00  0.00    -0.373 OA
ATOM     21  H1  UNL     1      33.466  43.822  -6.135  1.00  0.00     0.212 HD
ENDBRANCH   7  20
ENDBRANCH   1   7
BRANCH   6  22
HETATM   22  C17 UNL     1      33.996  39.398  -6.854  1.00  0.00     0.271 C 
HETATM   23  O3  UNL     1      35.115  38.810  -6.765  1.00  0.00    -0.301 OA
ENDBRANCH   6  22
BRANCH   3  24
HETATM   24  C10 UNL     1      33.349  43.318 -10.928  1.00  0.00     0.010 C 
HETATM   25  C11 UNL     1      32.808  42.665 -12.180  1.00  0.00     0.015 C 
HETATM   26  C12 UNL     1      32.447  44.429 -10.517  1.00  0.00     0.015 C 
ENDBRANCH   3  24
BRANCH   5  27
HETATM   27  C15 UNL     1      32.965  38.644  -9.393  1.00  0.00     0.126 C 
HETATM   28  N3  UNL     1      31.761  38.295  -9.525  1.00  0.00    -0.280 N 
ATOM     29  H3  UNL     1      31.065  39.030  -9.402  1.00  0.00     0.193 HD
BRANCH  28  30
HETATM   30  O2  UNL     1      31.282  37.066  -9.811  1.00  0.00    -0.290 OA
ATOM     31  H2  UNL     1      30.381  36.765  -9.762  1.00  0.00     0.244 HD
ENDBRANCH  28  30
ENDBRANCH   5  27
TORSDOF 12
ENDMDL
MODEL 4
REMARK VINA RESULT: -7.549273757      0.895      2.111
REMARK  12 active torsions:
REMARK  status: ('A' for Active; 'I' for Inactive)
REMARK    1  A    between atoms: C2_2  and  C3_3 
REMARK    2  A    between atoms: C3_3  and  N1_4 
REMARK    3  A    between atoms: N1_4  and  C4_5 
REMARK    4  A    between atoms: C4_5  and  C5_6 
REMARK    5  A    between atoms: C5_6  and  N2_7 
REMARK    6  A    between atoms: N2_7  and  C6_9 
REMARK    7  A    between atoms: C6_9  and  O1_10 
REMARK    8  A    between atoms: C6_9  and  C7_12 
REMARK    9  A    between atoms: C9_14  and  C10_15 
REMARK   10  A    between atoms: C14_19  and  C15_20 
REMARK   11  A    between atoms: N3_21  and  O2_23 
REMARK   12  A    between atoms: C16_25  and  C17_26 
ROOT
HETATM    1  C7  UNL     1      34.177  40.904  -7.303  1.00  0.00     0.004 A 
HETATM    2  C8  UNL     1      34.154  39.543  -7.038  1.00  0.00     0.020 A 
HETATM    3  C9  UNL     1      33.417  38.706  -7.845  1.00  0.00    -0.053 A 
HETATM    4  C13 UNL     1      32.716  39.213  -8.899  1.00  0.00     0.021 A 
HETATM    5  C14 UNL     1      32.720  40.581  -9.192  1.00  0.00    -0.004 A 
HETATM    6  C16 UNL     1      33.474  41.401  -8.356  1.00  0.00     0.024 A 
ENDROOT
BRANCH   1   7
HETATM    7  C6  UNL     1      35.023  41.798  -6.455  1.00  0.00     0.252 C 
BRANCH   7   8
HETATM    8  N2  UNL     1      35.103  41.346  -5.129  1.00  0.00    -0.371 N 
ATOM      9  H2  UNL     1      34.578  40.506  -4.883  1.00  0.00     0.161 HD
BRANCH   8  10
HETATM   10  C5  UNL     1      35.843  41.959  -4.128  1.00  0.00     0.086 C 
BRANCH  10  11
HETATM   11  C4  UNL     1      36.879  41.232  -3.367  1.00  0.00     0.281 C 
BRANCH  11  12
HETATM   12  N1  UNL     1      36.889  41.492  -1.949  1.00  0.00    -0.060 N 
HETATM   13  C18 UNL     1      37.872  42.462  -1.524  1.00  0.00     0.238 C 
HETATM   14  C19 UNL     1      37.423  42.740  -0.083  1.00  0.00     0.030 C 
HETATM   15  C20 UNL     1      35.961  42.417  -0.049  1.00  0.00     0.030 C 
HETATM   16  C21 UNL     1      35.653  42.057  -1.474  1.00  0.00     0.238 C 
BRANCH  12  17
HETATM   17  C3  UNL     1      37.135  40.261  -1.240  1.00  0.00     0.264 C 
BRANCH  17  18
HETATM   18  C2  UNL     1      37.723  39.179  -2.042  1.00  0.00    -0.009 C 
HETATM   19  C1  UNL     1      37.851  37.950  -1.568  1.00  0.00     0.008 C 
ENDBRANCH  17  18
ENDBRANCH  12  17
ENDBRANCH  11  12
ENDBRANCH  10  11
ENDBRANCH   8  10
ENDBRANCH   7   8
BRANCH   7  20
HETATM   20  O1  UNL     1      36.121  42.183  -7.124  1.00  0.00    -0.373 OA
ATOM     21  H1  UNL     1      36.261  41.925  -8.027  1.00  0.00     0.212 HD
ENDBRANCH   7  20
ENDBRANCH   1   7
BRANCH   6  22
HETATM   22  C17 UNL     1      33.427  42.817  -8.669  1.00  0.00     0.271 C 
HETATM   23  O3  UNL     1      34.426  43.352  -9.235  1.00  0.00    -0.301 OA
ENDBRANCH   6  22
BRANCH   3  24
HETATM   24  C10 UNL     1      33.414  37.237  -7.554  1.00  0.00     0.010 C 
HETATM   25  C11 UNL     1      32.011  36.691  -7.700  1.00  0.00     0.015 C 
HETATM   26  C12 UNL     1      34.338  36.475  -8.439  1.00  0.00     0.015 C 
ENDBRANCH   3  24
BRANCH   5  27
HETATM   27  C15 UNL     1      31.965  41.043 -10.341  1.00  0.00     0.126 C 
HETATM   28  N3  UNL     1      30.711  40.925 -10.412  1.00  0.00    -0.280 N 
ATOM     29  H3  UNL     1      30.257  40.485  -9.612  1.00  0.00     0.193 HD
BRANCH  28  30
HETATM   30  O2  UNL     1      29.899  41.312 -11.418  1.00  0.00    -0.290 OA
ATOM     31  H2  UNL     1      29.342  42.081 -11.455  1.00  0.00     0.244 HD
ENDBRANCH  28  30
ENDBRANCH   5  27
TORSDOF 12
ENDMDL
MODEL 5
REMARK VINA RESULT: -7.516797362      2.089      3.944
REMARK  12 active torsions:
REMARK  status: ('A' for Active; 'I' for Inactive)
REMARK    1  A    between atoms: C2_2  and  C3_3 
REMARK    2  A    between atoms: C3_3  and  N1_4 
REMARK    3  A    between atoms: N1_4  and  C4_5 
REMARK    4  A    between atoms: C4_5  and  C5_6 
REMARK    5  A    between atoms: C5_6  and  N2_7 
REMARK    6  A    between atoms: N2_7  and  C6_9 
REMARK    7  A    between atoms: C6_9  and  O1_10 
REMARK    8  A    between atoms: C6_9  and  C7_12 
REMARK    9  A    between atoms: C9_14  and  C10_15 
REMARK   10  A    between atoms: C14_19  and  C15_20 
REMARK   11  A    between atoms: N3_21  and  O2_23 
REMARK   12  A    between atoms: C16_25  and  C17_26 
ROOT
HETATM    1  C7  UNL     1      34.114  41.825  -7.666  1.00  0.00     0.004 A 
HETATM    2  C8  UNL     1      33.929  42.761  -8.672  1.00  0.00     0.020 A 
HETATM    3  C9  UNL     1      33.504  42.348  -9.915  1.00  0.00    -0.053 A 
HETATM    4  C13 UNL     1      33.268  41.027 -10.153  1.00  0.00     0.021 A 
HETATM    5  C14 UNL     1      33.445  40.058  -9.159  1.00  0.00    -0.004 A 
HETATM    6  C16 UNL     1      33.876  40.509  -7.913  1.00  0.00     0.024 A 
ENDROOT
BRANCH   1   7
HETATM    7  C6  UNL     1      34.522  42.288  -6.305  1.00  0.00     0.252 C 
BRANCH   7   8
HETATM    8  N2  UNL     1      35.753  41.743  -5.909  1.00  0.00    -0.371 N 
ATOM      9  H2  UNL     1      36.198  41.072  -6.537  1.00  0.00     0.161 HD
BRANCH   8  10
HETATM   10  C5  UNL     1      36.410  42.050  -4.726  1.00  0.00     0.086 C 
BRANCH  10  11
HETATM   11  C4  UNL     1      35.762  41.889  -3.409  1.00  0.00     0.281 C 
BRANCH  11  12
HETATM   12  N1  UNL     1      36.566  42.287  -2.281  1.00  0.00    -0.060 N 
HETATM   13  C18 UNL     1      36.888  43.695  -2.241  1.00  0.00     0.238 C 
HETATM   14  C19 UNL     1      37.446  43.841  -0.818  1.00  0.00     0.030 C 
HETATM   15  C20 UNL     1      36.829  42.726  -0.030  1.00  0.00     0.030 C 
HETATM   16  C21 UNL     1      35.907  42.072  -1.018  1.00  0.00     0.238 C 
BRANCH  12  17
HETATM   17  C3  UNL     1      37.800  41.543  -2.288  1.00  0.00     0.264 C 
BRANCH  17  18
HETATM   18  C2  UNL     1      37.654  40.081  -2.257  1.00  0.00    -0.009 C 
HETATM   19  C1  UNL     1      38.388  39.290  -3.024  1.00  0.00     0.008 C 
ENDBRANCH  17  18
ENDBRANCH  12  17
ENDBRANCH  11  12
ENDBRANCH  10  11
ENDBRANCH   8  10
ENDBRANCH   7   8
BRANCH   7  20
HETATM   20  O1  UNL     1      34.261  43.596  -6.153  1.00  0.00    -0.373 OA
ATOM     21  H1  UNL     1      34.620  44.086  -5.423  1.00  0.00     0.212 HD
ENDBRANCH   7  20
ENDBRANCH   1   7
BRANCH   6  22
HETATM   22  C17 UNL     1      34.082  39.474  -6.918  1.00  0.00     0.271 C 
HETATM   23  O3  UNL     1      35.238  38.973  -6.786  1.00  0.00    -0.301 OA
ENDBRANCH   6  22
BRANCH   3  24
HETATM   24  C10 UNL     1      33.296  43.373 -10.987  1.00  0.00     0.010 C 
HETATM   25  C11 UNL     1      32.733  42.710 -12.224  1.00  0.00     0.015 C 
HETATM   26  C12 UNL     1      32.390  44.475 -10.558  1.00  0.00     0.015 C 
ENDBRANCH   3  24
BRANCH   5  27
HETATM   27  C15 UNL     1      33.155  38.675  -9.483  1.00  0.00     0.126 C 
HETATM   28  N3  UNL     1      33.907  37.987 -10.225  1.00  0.00    -0.280 N 
ATOM     29  H3  UNL     1      34.735  38.460 -10.586  1.00  0.00     0.193 HD
BRANCH  28  30
HETATM   30  O2  UNL     1      33.748  36.700 -10.598  1.00  0.00    -0.290 OA
ATOM     31  H2  UNL     1      34.110  35.924 -10.185  1.00  0.00     0.244 HD
ENDBRANCH  28  30
ENDBRANCH   5  27
TORSDOF 12
ENDMDL
