MODEL 1
REMARK VINA RESULT: -7.347612429      0.000      0.000
REMARK  14 active torsions:
REMARK  status: ('A' for Active; 'I' for Inactive)
REMARK    1  A    between atoms: C2_2  and  C3_3 
REMARK    2  A    between atoms: C2_2  and  C4_5 
REMARK    3  A    between atoms: C4_5  and  C5_6 
REMARK    4  A    between atoms: C6_7  and  C7_8 
REMARK    5  A    between atoms: C7_8  and  O2_9 
REMARK    6  A    between atoms: C7_8  and  C8_11 
REMARK    7  A    between atoms: C9_12  and  C10_13 
REMARK    8  A    between atoms: C11_14  and  C12_15 
REMARK    9  A    between atoms: C12_15  and  C13_16 
REMARK   10  A    between atoms: C18_21  and  C19_22 
REMARK   11  A    between atoms: C20_23  and  O3_24 
REMARK   12  A    between atoms: C20_23  and  C22_26 
REMARK   13  A    between atoms: C22_26  and  N1_27 
REMARK   14  A    between atoms: C22_26  and  O4_31 
ROOT
HETATM    1  C8  UNL     1      35.096  40.461  -7.911  1.00  0.00     0.034 C 
HETATM    2  C9  UNL     1      33.728  40.952  -8.377  1.00  0.00     0.019 C 
HETATM    3  C16 UNL     1      33.664  39.826  -9.350  1.00  0.00    -0.002 C 
HETATM    4  C17 UNL     1      32.362  39.019  -9.287  1.00  0.00     0.011 C 
HETATM    5  C18 UNL     1      34.712  39.115  -8.489  1.00  0.00     0.022 C 
ENDROOT
BRANCH   5   6
HETATM    6  C19 UNL     1      35.755  38.413  -9.237  1.00  0.00     0.015 C 
HETATM    7  C20 UNL     1      36.239  37.274  -8.794  1.00  0.00     0.098 C 
BRANCH   7   8
HETATM    8  O3  UNL     1      35.782  36.698  -7.607  1.00  0.00    -0.356 OA
HETATM    9  C21 UNL     1      34.926  35.588  -7.565  1.00  0.00     0.209 C 
ENDBRANCH   7   8
BRANCH   7  10
HETATM   10  C22 UNL     1      37.303  36.515  -9.515  1.00  0.00     0.373 C 
BRANCH  10  11
HETATM   11  N1  UNL     1      38.307  36.010  -8.601  1.00  0.00    -0.047 N 
ATOM     12  H13 UNL     1      38.899  36.761  -8.246  1.00  0.00     0.277 HD
ATOM     13  H12 UNL     1      37.892  35.708  -7.720  1.00  0.00     0.277 HD
ATOM     14  H11 UNL     1      38.861  35.268  -9.028  1.00  0.00     0.277 HD
ENDBRANCH  10  11
BRANCH  10  15
HETATM   15  O4  UNL     1      37.875  37.381 -10.456  1.00  0.00    -0.365 OA
ATOM     16  H4  UNL     1      38.669  36.970 -10.778  1.00  0.00     0.212 HD
ENDBRANCH  10  15
ENDBRANCH   7  10
ENDBRANCH   5   6
BRANCH   1  17
HETATM   17  C7  UNL     1      35.133  40.517  -6.393  1.00  0.00     0.146 C 
BRANCH  17  18
HETATM   18  C6  UNL     1      34.896  41.868  -5.873  1.00  0.00     0.001 C 
HETATM   19  C5  UNL     1      35.589  42.314  -4.859  1.00  0.00    -0.024 C 
BRANCH  19  20
HETATM   20  C4  UNL     1      36.624  41.482  -4.212  1.00  0.00     0.067 C 
BRANCH  20  21
HETATM   21  C2  UNL     1      36.899  41.929  -2.816  1.00  0.00    -0.026 C 
HETATM   22  C1  UNL     1      37.346  41.059  -1.947  1.00  0.00     0.022 C 
BRANCH  21  23
HETATM   23  C3  UNL     1      36.651  43.330  -2.493  1.00  0.00     0.265 C 
HETATM   24  O1  UNL     1      37.657  44.041  -2.209  1.00  0.00    -0.302 OA
ENDBRANCH  21  23
ENDBRANCH  20  21
ENDBRANCH  19  20
ENDBRANCH  17  18
BRANCH  17  25
HETATM   25  O2  UNL     1      34.080  39.694  -5.960  1.00  0.00    -0.391 OA
ATOM     26  H2  UNL     1      34.178  38.848  -6.381  1.00  0.00     0.210 HD
ENDBRANCH  17  25
ENDBRANCH   1  17
BRANCH   2  27
HETATM   27  C10 UNL     1      33.680  42.323  -8.892  1.00  0.00    -0.025 C 
HETATM   28  C11 UNL     1      33.270  42.655 -10.098  1.00  0.00    -0.030 C 
BRANCH  28  29
HETATM   29  C12 UNL     1      33.246  44.077 -10.567  1.00  0.00     0.030 C 
BRANCH  29  30
HETATM   30  C13 UNL     1      32.568  44.162 -11.925  1.00  0.00    -0.019 C 
HETATM   31  C14 UNL     1      33.233  45.268 -12.694  1.00  0.00     0.010 C 
HETATM   32  C15 UNL     1      32.732  42.865 -12.655  1.00  0.00     0.010 C 
ENDBRANCH  29  30
ENDBRANCH  28  29
ENDBRANCH   2  27
TORSDOF 14
ENDMDL
MODEL 2
REMARK VINA RESULT: -7.311124551      3.547      7.627
REMARK  14 active torsions:
REMARK  status: ('A' for Active; 'I' for Inactive)
REMARK    1  A    between atoms: C2_2  and  C3_3 
REMARK    2  A    between atoms: C2_2  and  C4_5 
REMARK    3  A    between atoms: C4_5  and  C5_6 
REMARK    4  A    between atoms: C6_7  and  C7_8 
REMARK    5  A    between atoms: C7_8  and  O2_9 
REMARK    6  A    between atoms: C7_8  and  C8_11 
REMARK    7  A    between atoms: C9_12  and  C10_13 
REMARK    8  A    between atoms: C11_14  and  C12_15 
REMARK    9  A    between atoms: C12_15  and  C13_16 
REMARK   10  A    between atoms: C18_21  and  C19_22 
REMARK   11  A    between atoms: C20_23  and  O3_24 
REMARK   12  A    between atoms: C20_23  and  C22_26 
REMARK   13  A    between atoms: C22_26  and  N1_27 
REMARK   14  A    between atoms: C22_26  and  O4_31 
ROOT
HETATM    1  C8  UNL     1      33.334  41.588  -8.496  1.00  0.00     0.034 C 
HETATM    2  C9  UNL     1      34.560  41.062  -7.754  1.00  0.00     0.019 C 
HETATM    3  C16 UNL     1      34.191  39.673  -8.148  1.00  0.00    -0.002 C 
HETATM    4  C17 UNL     1      35.339  38.878  -8.781  1.00  0.00     0.011 C 
HETATM    5  C18 UNL     1      33.355  40.290  -9.273  1.00  0.00     0.022 C 
ENDROOT
BRANCH   5   6
HETATM    6  C19 UNL     1      32.057  39.653  -9.502  1.00  0.00     0.015 C 
HETATM    7  C20 UNL     1      31.368  39.917 -10.589  1.00  0.00     0.098 C 
BRANCH   7   8
HETATM    8  O3  UNL     1      31.842  40.805 -11.557  1.00  0.00    -0.356 OA
HETATM    9  C21 UNL     1      32.302  40.402 -12.818  1.00  0.00     0.209 C 
ENDBRANCH   7   8
BRANCH   7  10
HETATM   10  C22 UNL     1      30.041  39.298 -10.873  1.00  0.00     0.373 C 
BRANCH  10  11
HETATM   11  N1  UNL     1      28.979  40.282 -10.847  1.00  0.00    -0.047 N 
ATOM     12  H13 UNL     1      29.161  41.009 -10.156  1.00  0.00     0.277 HD
ATOM     13  H12 UNL     1      28.984  40.859 -11.688  1.00  0.00     0.277 HD
ATOM     14  H11 UNL     1      28.069  39.846 -10.699  1.00  0.00     0.277 HD
ENDBRANCH  10  11
BRANCH  10  15
HETATM   15  O4  UNL     1      29.823  38.305  -9.908  1.00  0.00    -0.365 OA
ATOM     16  H4  UNL     1      28.893  38.112  -9.901  1.00  0.00     0.212 HD
ENDBRANCH  10  15
ENDBRANCH   7  10
ENDBRANCH   5   6
BRANCH   1  17
HETATM   17  C7  UNL     1      33.747  42.815  -9.292  1.00  0.00     0.146 C 
BRANCH  17  18
HETATM   18  C6  UNL     1      32.693  43.836  -9.341  1.00  0.00     0.001 C 
HETATM   19  C5  UNL     1      32.393  44.418 -10.471  1.00  0.00    -0.024 C 
BRANCH  19  20
HETATM   20  C4  UNL     1      33.098  44.073 -11.723  1.00  0.00     0.067 C 
BRANCH  20  21
HETATM   21  C2  UNL     1      32.871  45.094 -12.785  1.00  0.00    -0.026 C 
HETATM   22  C1  UNL     1      33.098  44.774 -14.033  1.00  0.00     0.022 C 
BRANCH  21  23
HETATM   23  C3  UNL     1      32.403  46.412 -12.368  1.00  0.00     0.265 C 
HETATM   24  O1  UNL     1      33.238  47.359 -12.414  1.00  0.00    -0.302 OA
ENDBRANCH  21  23
ENDBRANCH  20  21
ENDBRANCH  19  20
ENDBRANCH  17  18
BRANCH  17  25
HETATM   25  O2  UNL     1      34.844  43.358  -8.604  1.00  0.00    -0.391 OA
ATOM     26  H2  UNL     1      35.602  42.816  -8.787  1.00  0.00     0.210 HD
ENDBRANCH  17  25
ENDBRANCH   1  17
BRANCH   2  27
HETATM   27  C10 UNL     1      34.634  41.385  -6.327  1.00  0.00    -0.025 C 
HETATM   28  C11 UNL     1      35.747  41.637  -5.673  1.00  0.00    -0.030 C 
BRANCH  28  29
HETATM   29  C12 UNL     1      35.757  41.961  -4.211  1.00  0.00     0.030 C 
BRANCH  29  30
HETATM   30  C13 UNL     1      37.166  42.325  -3.771  1.00  0.00    -0.019 C 
HETATM   31  C14 UNL     1      37.047  43.242  -2.587  1.00  0.00     0.010 C 
HETATM   32  C15 UNL     1      37.911  41.086  -3.381  1.00  0.00     0.010 C 
ENDBRANCH  29  30
ENDBRANCH  28  29
ENDBRANCH   2  27
TORSDOF 14
ENDMDL
MODEL 3
REMARK VINA RESULT: -7.033457566      1.259      1.495
REMARK  14 active torsions:
REMARK  status: ('A' for Active; 'I' for Inactive)
REMARK    1  A    between atoms: C2_2  and  C3_3 
REMARK    2  A    between atoms: C2_2  and  C4_5 
REMARK    3  A    between atoms: C4_5  and  C5_6 
REMARK    4  A    between atoms: C6_7  and  C7_8 
REMARK    5  A    between atoms: C7_8  and  O2_9 
REMARK    6  A    between atoms: C7_8  and  C8_11 
REMARK    7  A    between atoms: C9_12  and  C10_13 
REMARK    8  A    between atoms: C11_14  and  C12_15 
REMARK    9  A    between atoms: C12_15  and  C13_16 
REMARK   10  A    between atoms: C18_21  and  C19_22 
REMARK   11  A    between atoms: C20_23  and  O3_24 
REMARK   12  A    between atoms: C20_23  and  C22_26 
REMARK   13  A    between atoms: C22_26  and  N1_27 
REMARK   14  A    between atoms: C22_26  and  O4_31 
ROOT
HETATM    1  C8  UNL     1      34.512  40.800  -8.545  1.00  0.00     0.034 C 
HETATM    2  C9  UNL     1      32.992  40.855  -8.672  1.00  0.00     0.019 C 
HETATM    3  C16 UNL     1      33.004  39.499  -9.291  1.00  0.00    -0.002 C 
HETATM    4  C17 UNL     1      32.022  38.511  -8.649  1.00  0.00     0.011 C 
HETATM    5  C18 UNL     1      34.379  39.296  -8.649  1.00  0.00     0.022 C 
ENDROOT
BRANCH   5   6
HETATM    6  C19 UNL     1      35.363  38.618  -9.494  1.00  0.00     0.015 C 
HETATM    7  C20 UNL     1      36.054  37.602  -9.028  1.00  0.00     0.098 C 
BRANCH   7   8
HETATM    8  O3  UNL     1      35.878  37.136  -7.723  1.00  0.00    -0.356 OA
HETATM    9  C21 UNL     1      36.940  36.833  -6.860  1.00  0.00     0.209 C 
ENDBRANCH   7   8
BRANCH   7  10
HETATM   10  C22 UNL     1      37.069  36.874  -9.844  1.00  0.00     0.373 C 
BRANCH  10  11
HETATM   11  N1  UNL     1      37.939  37.792 -10.551  1.00  0.00    -0.047 N 
ATOM     12  H13 UNL     1      37.557  38.737 -10.559  1.00  0.00     0.277 HD
ATOM     13  H12 UNL     1      38.796  37.972 -10.028  1.00  0.00     0.277 HD
ATOM     14  H11 UNL     1      38.140  37.463 -11.496  1.00  0.00     0.277 HD
ENDBRANCH  10  11
BRANCH  10  15
HETATM   15  O4  UNL     1      36.377  36.051 -10.742  1.00  0.00    -0.365 OA
ATOM     16  H4  UNL     1      36.101  36.592 -11.472  1.00  0.00     0.212 HD
ENDBRANCH  10  15
ENDBRANCH   7  10
ENDBRANCH   5   6
BRANCH   1  17
HETATM   17  C7  UNL     1      34.895  41.313  -7.167  1.00  0.00     0.146 C 
BRANCH  17  18
HETATM   18  C6  UNL     1      35.365  40.244  -6.278  1.00  0.00     0.001 C 
HETATM   19  C5  UNL     1      35.789  40.527  -5.075  1.00  0.00    -0.024 C 
BRANCH  19  20
HETATM   20  C4  UNL     1      35.809  41.918  -4.576  1.00  0.00     0.067 C 
BRANCH  20  21
HETATM   21  C2  UNL     1      36.823  42.103  -3.498  1.00  0.00    -0.026 C 
HETATM   22  C1  UNL     1      37.816  41.256  -3.408  1.00  0.00     0.022 C 
BRANCH  21  23
HETATM   23  C3  UNL     1      36.649  43.235  -2.594  1.00  0.00     0.265 C 
HETATM   24  O1  UNL     1      37.669  43.942  -2.356  1.00  0.00    -0.302 OA
ENDBRANCH  21  23
ENDBRANCH  20  21
ENDBRANCH  19  20
ENDBRANCH  17  18
BRANCH  17  25
HETATM   25  O2  UNL     1      35.962  42.201  -7.379  1.00  0.00    -0.391 OA
ATOM     26  H2  UNL     1      35.637  43.085  -7.255  1.00  0.00     0.210 HD
ENDBRANCH  17  25
ENDBRANCH   1  17
BRANCH   2  27
HETATM   27  C10 UNL     1      32.454  41.972  -9.453  1.00  0.00    -0.025 C 
HETATM   28  C11 UNL     1      33.106  43.083  -9.716  1.00  0.00    -0.030 C 
BRANCH  28  29
HETATM   29  C12 UNL     1      32.500  44.192 -10.521  1.00  0.00     0.030 C 
BRANCH  29  30
HETATM   30  C13 UNL     1      33.241  44.340 -11.840  1.00  0.00    -0.019 C 
HETATM   31  C14 UNL     1      32.694  43.308 -12.784  1.00  0.00     0.010 C 
HETATM   32  C15 UNL     1      33.014  45.711 -12.397  1.00  0.00     0.010 C 
ENDBRANCH  29  30
ENDBRANCH  28  29
ENDBRANCH   2  27
TORSDOF 14
ENDMDL
MODEL 4
REMARK VINA RESULT: -6.976839350      3.242      5.259
REMARK  14 active torsions:
REMARK  status: ('A' for Active; 'I' for Inactive)
REMARK    1  A    between atoms: C2_2  and  C3_3 
REMARK    2  A    between atoms: C2_2  and  C4_5 
REMARK    3  A    between atoms: C4_5  and  C5_6 
REMARK    4  A    between atoms: C6_7  and  C7_8 
REMARK    5  A    between atoms: C7_8  and  O2_9 
REMARK    6  A    between atoms: C7_8  and  C8_11 
REMARK    7  A    between atoms: C9_12  and  C10_13 
REMARK    8  A    between atoms: C11_14  and  C12_15 
REMARK    9  A    between atoms: C12_15  and  C13_16 
REMARK   10  A    between atoms: C18_21  and  C19_22 
REMARK   11  A    between atoms: C20_23  and  O3_24 
REMARK   12  A    between atoms: C20_23  and  C22_26 
REMARK   13  A    between atoms: C22_26  and  N1_27 
REMARK   14  A    between atoms: C22_26  and  O4_31 
ROOT
HETATM    1  C8  UNL     1      34.084  39.556  -8.395  1.00  0.00     0.034 C 
HETATM    2  C9  UNL     1      33.142  40.209  -9.402  1.00  0.00     0.019 C 
HETATM    3  C16 UNL     1      33.873  39.533 -10.511  1.00  0.00    -0.002 C 
HETATM    4  C17 UNL     1      32.965  38.784 -11.492  1.00  0.00     0.011 C 
HETATM    5  C18 UNL     1      34.384  38.533  -9.470  1.00  0.00     0.022 C 
ENDROOT
BRANCH   5   6
HETATM    6  C19 UNL     1      35.787  38.146  -9.619  1.00  0.00     0.015 C 
HETATM    7  C20 UNL     1      36.122  36.879  -9.710  1.00  0.00     0.098 C 
BRANCH   7   8
HETATM    8  O3  UNL     1      35.163  35.865  -9.669  1.00  0.00    -0.356 OA
HETATM    9  C21 UNL     1      35.151  34.775 -10.550  1.00  0.00     0.209 C 
ENDBRANCH   7   8
BRANCH   7  10
HETATM   10  C22 UNL     1      37.536  36.427  -9.863  1.00  0.00     0.373 C 
BRANCH  10  11
HETATM   11  N1  UNL     1      38.181  36.254  -8.578  1.00  0.00    -0.047 N 
ATOM     12  H13 UNL     1      38.968  36.893  -8.466  1.00  0.00     0.277 HD
ATOM     13  H12 UNL     1      37.593  36.595  -7.817  1.00  0.00     0.277 HD
ATOM     14  H11 UNL     1      38.462  35.286  -8.428  1.00  0.00     0.277 HD
ENDBRANCH  10  11
BRANCH  10  15
HETATM   15  O4  UNL     1      38.206  37.389 -10.631  1.00  0.00    -0.365 OA
ATOM     16  H4  UNL     1      39.084  37.066 -10.792  1.00  0.00     0.212 HD
ENDBRANCH  10  15
ENDBRANCH   7  10
ENDBRANCH   5   6
BRANCH   1  17
HETATM   17  C7  UNL     1      33.255  39.035  -7.232  1.00  0.00     0.146 C 
BRANCH  17  18
HETATM   18  C6  UNL     1      33.178  37.570  -7.207  1.00  0.00     0.001 C 
HETATM   19  C5  UNL     1      32.119  36.959  -7.669  1.00  0.00    -0.024 C 
BRANCH  19  20
HETATM   20  C4  UNL     1      30.978  37.715  -8.226  1.00  0.00     0.067 C 
BRANCH  20  21
HETATM   21  C2  UNL     1      29.833  36.820  -8.560  1.00  0.00    -0.026 C 
HETATM   22  C1  UNL     1      28.902  37.256  -9.369  1.00  0.00     0.022 C 
BRANCH  21  23
HETATM   23  C3  UNL     1      29.815  35.491  -7.959  1.00  0.00     0.265 C 
HETATM   24  O1  UNL     1      28.970  35.287  -7.041  1.00  0.00    -0.302 OA
ENDBRANCH  21  23
ENDBRANCH  20  21
ENDBRANCH  19  20
ENDBRANCH  17  18
BRANCH  17  25
HETATM   25  O2  UNL     1      33.928  39.454  -6.073  1.00  0.00    -0.391 OA
ATOM     26  H2  UNL     1      33.658  40.345  -5.883  1.00  0.00     0.210 HD
ENDBRANCH  17  25
ENDBRANCH   1  17
BRANCH   2  27
HETATM   27  C10 UNL     1      33.101  41.673  -9.385  1.00  0.00    -0.025 C 
HETATM   28  C11 UNL     1      33.148  42.436 -10.456  1.00  0.00    -0.030 C 
BRANCH  28  29
HETATM   29  C12 UNL     1      33.102  43.931 -10.373  1.00  0.00     0.030 C 
BRANCH  29  30
HETATM   30  C13 UNL     1      33.185  44.530 -11.768  1.00  0.00    -0.019 C 
HETATM   31  C14 UNL     1      32.779  43.463 -12.743  1.00  0.00     0.010 C 
HETATM   32  C15 UNL     1      32.253  45.698 -11.874  1.00  0.00     0.010 C 
ENDBRANCH  29  30
ENDBRANCH  28  29
ENDBRANCH   2  27
TORSDOF 14
ENDMDL
MODEL 5
REMARK VINA RESULT: -6.959199457      3.318      6.604
REMARK  14 active torsions:
REMARK  status: ('A' for Active; 'I' for Inactive)
REMARK    1  A    between atoms: C2_2  and  C3_3 
REMARK    2  A    between atoms: C2_2  and  C4_5 
REMARK    3  A    between atoms: C4_5  and  C5_6 
REMARK    4  A    between atoms: C6_7  and  C7_8 
REMARK    5  A    between atoms: C7_8  and  O2_9 
REMARK    6  A    between atoms: C7_8  and  C8_11 
REMARK    7  A    between atoms: C9_12  and  C10_13 
REMARK    8  A    between atoms: C11_14  and  C12_15 
REMARK    9  A    between atoms: C12_15  and  C13_16 
REMARK   10  A    between atoms: C18_21  and  C19_22 
REMARK   11  A    between atoms: C20_23  and  O3_24 
REMARK   12  A    between atoms: C20_23  and  C22_26 
REMARK   13  A    between atoms: C22_26  and  N1_27 
REMARK   14  A    between atoms: C22_26  and  O4_31 
ROOT
HETATM    1  C8  UNL     1      33.103  39.115  -7.913  1.00  0.00     0.034 C 
HETATM    2  C9  UNL     1      33.729  38.560  -9.190  1.00  0.00     0.019 C 
HETATM    3  C16 UNL     1      35.053  39.094  -8.761  1.00  0.00    -0.002 C 
HETATM    4  C17 UNL     1      36.188  38.066  -8.819  1.00  0.00     0.011 C 
HETATM    5  C18 UNL     1      34.501  39.120  -7.333  1.00  0.00     0.022 C 
ENDROOT
BRANCH   5   6
HETATM    6  C19 UNL     1      34.869  40.298  -6.547  1.00  0.00     0.015 C 
HETATM    7  C20 UNL     1      35.857  40.240  -5.683  1.00  0.00     0.098 C 
BRANCH   7   8
HETATM    8  O3  UNL     1      36.584  39.065  -5.482  1.00  0.00    -0.356 OA
HETATM    9  C21 UNL     1      37.615  38.944  -4.540  1.00  0.00     0.209 C 
ENDBRANCH   7   8
BRANCH   7  10
HETATM   10  C22 UNL     1      36.275  41.409  -4.856  1.00  0.00     0.373 C 
BRANCH  10  11
HETATM   11  N1  UNL     1      35.247  41.784  -3.907  1.00  0.00    -0.047 N 
ATOM     12  H13 UNL     1      35.547  41.618  -2.947  1.00  0.00     0.277 HD
ATOM     13  H12 UNL     1      35.131  42.797  -3.863  1.00  0.00     0.277 HD
ATOM     14  H11 UNL     1      34.364  41.316  -4.109  1.00  0.00     0.277 HD
ENDBRANCH  10  11
BRANCH  10  15
HETATM   15  O4  UNL     1      36.554  42.467  -5.732  1.00  0.00    -0.365 OA
ATOM     16  H4  UNL     1      36.090  42.298  -6.543  1.00  0.00     0.212 HD
ENDBRANCH  10  15
ENDBRANCH   7  10
ENDBRANCH   5   6
BRANCH   1  17
HETATM   17  C7  UNL     1      32.176  38.057  -7.336  1.00  0.00     0.146 C 
BRANCH  17  18
HETATM   18  C6  UNL     1      32.217  36.799  -8.092  1.00  0.00     0.001 C 
HETATM   19  C5  UNL     1      31.111  36.262  -8.535  1.00  0.00    -0.024 C 
BRANCH  19  20
HETATM   20  C4  UNL     1      29.799  36.895  -8.291  1.00  0.00     0.067 C 
BRANCH  20  21
HETATM   21  C2  UNL     1      28.685  35.908  -8.377  1.00  0.00    -0.026 C 
HETATM   22  C1  UNL     1      27.725  36.106  -9.245  1.00  0.00     0.022 C 
BRANCH  21  23
HETATM   23  C3  UNL     1      28.727  34.760  -7.478  1.00  0.00     0.265 C 
HETATM   24  O1  UNL     1      28.237  34.916  -6.323  1.00  0.00    -0.302 OA
ENDBRANCH  21  23
ENDBRANCH  20  21
ENDBRANCH  19  20
ENDBRANCH  17  18
BRANCH  17  25
HETATM   25  O2  UNL     1      32.658  37.800  -6.042  1.00  0.00    -0.391 OA
ATOM     26  H2  UNL     1      33.441  38.322  -5.912  1.00  0.00     0.210 HD
ENDBRANCH  17  25
ENDBRANCH   1  17
BRANCH   2  27
HETATM   27  C10 UNL     1      33.156  39.046 -10.448  1.00  0.00    -0.025 C 
HETATM   28  C11 UNL     1      33.192  40.297 -10.853  1.00  0.00    -0.030 C 
BRANCH  28  29
HETATM   29  C12 UNL     1      32.586  40.731 -12.153  1.00  0.00     0.030 C 
BRANCH  29  30
HETATM   30  C13 UNL     1      32.239  42.210 -12.093  1.00  0.00    -0.019 C 
HETATM   31  C14 UNL     1      33.110  42.837 -11.042  1.00  0.00     0.010 C 
HETATM   32  C15 UNL     1      32.505  42.847 -13.422  1.00  0.00     0.010 C 
ENDBRANCH  29  30
ENDBRANCH  28  29
ENDBRANCH   2  27
TORSDOF 14
ENDMDL
