MODEL 1
REMARK VINA RESULT: -7.535572855      0.000      0.000
REMARK  13 active torsions:
REMARK  status: ('A' for Active; 'I' for Inactive)
REMARK    1  A    between atoms: C1_2  and  C2_4 
REMARK    2  A    between atoms: C2_4  and  C3_5 
REMARK    3  A    between atoms: C3_5  and  C4_6 
REMARK    4  A    between atoms: C4_6  and  C5_7 
REMARK    5  A    between atoms: C6_8  and  C7_9 
REMARK    6  A    between atoms: C7_9  and  C8_10 
REMARK    7  A    between atoms: C9_11  and  C10_12 
REMARK    8  A    between atoms: C11_13  and  C12_14 
REMARK    9  A    between atoms: C12_14  and  O3_15 
REMARK   10  A    between atoms: C12_14  and  C13_17 
REMARK   11  A    between atoms: C14_18  and  C15_19 
REMARK   12  A    between atoms: C19_23  and  O4_24 
REMARK   13  A    between atoms: C20_26  and  C21_27 
ROOT
HETATM    1  C8  UNL     1      33.141  40.683  -8.990  1.00  0.00     0.013 C 
HETATM    2  C9  UNL     1      33.988  39.560  -8.346  1.00  0.00     0.015 C 
HETATM    3  C18 UNL     1      34.226  40.165  -7.001  1.00  0.00     0.041 C 
HETATM    4  C19 UNL     1      34.435  41.662  -7.276  1.00  0.00     0.133 C 
HETATM    5  C20 UNL     1      34.076  41.839  -8.757  1.00  0.00     0.120 C 
ENDROOT
BRANCH   2   6
HETATM    6  C10 UNL     1      33.349  38.258  -8.372  1.00  0.00    -0.023 C 
HETATM    7  C11 UNL     1      32.161  38.062  -7.830  1.00  0.00     0.005 C 
BRANCH   7   8
HETATM    8  C12 UNL     1      31.520  36.709  -7.870  1.00  0.00     0.163 C 
BRANCH   8   9
HETATM    9  O3  UNL     1      32.368  35.843  -8.565  1.00  0.00    -0.388 OA
ATOM     10  H3  UNL     1      32.285  36.026  -9.493  1.00  0.00     0.210 HD
ENDBRANCH   8   9
BRANCH   8  11
HETATM   11  C13 UNL     1      30.220  36.834  -8.555  1.00  0.00     0.005 C 
HETATM   12  C14 UNL     1      30.009  37.835  -9.389  1.00  0.00    -0.023 C 
BRANCH  12  13
HETATM   13  C15 UNL     1      28.715  38.011 -10.110  1.00  0.00     0.008 A 
HETATM   14  C16 UNL     1      28.492  39.439 -10.586  1.00  0.00     0.009 A 
HETATM   15  C17 UNL     1      28.647  38.313 -11.539  1.00  0.00     0.009 A 
ENDBRANCH  12  13
ENDBRANCH   8  11
ENDBRANCH   7   8
ENDBRANCH   2   6
BRANCH   1  16
HETATM   16  C7  UNL     1      32.905  40.338 -10.437  1.00  0.00     0.033 C 
BRANCH  16  17
HETATM   17  C6  UNL     1      31.653  40.802 -11.011  1.00  0.00    -0.030 C 
HETATM   18  C5  UNL     1      31.547  41.702 -11.967  1.00  0.00    -0.031 C 
BRANCH  18  19
HETATM   19  C4  UNL     1      32.695  42.387 -12.617  1.00  0.00     0.027 C 
BRANCH  19  20
HETATM   20  C3  UNL     1      32.143  43.626 -13.300  1.00  0.00     0.014 C 
BRANCH  20  21
HETATM   21  C2  UNL     1      33.143  44.741 -13.326  1.00  0.00     0.113 C 
BRANCH  21  22
HETATM   22  C1  UNL     1      32.686  45.796 -12.388  1.00  0.00     0.172 C 
HETATM   23  O1  UNL     1      31.787  45.537 -11.552  1.00  0.00    -0.648 OA
HETATM   24  O2  UNL     1      33.219  47.057 -12.405  1.00  0.00    -0.648 OA
ENDBRANCH  21  22
ENDBRANCH  20  21
ENDBRANCH  19  20
ENDBRANCH  18  19
ENDBRANCH  16  17
ENDBRANCH   1  16
BRANCH   5  25
HETATM   25  C21 UNL     1      33.518  43.166  -9.011  1.00  0.00     0.179 C 
HETATM   26  O5  UNL     1      34.065  43.953  -9.857  1.00  0.00    -0.648 OA
HETATM   27  O6  UNL     1      32.387  43.656  -8.369  1.00  0.00    -0.648 OA
ENDBRANCH   5  25
BRANCH   4  28
HETATM   28  O4  UNL     1      35.745  42.043  -7.069  1.00  0.00    -0.395 OA
ATOM     29  H4  UNL     1      36.276  41.919  -7.847  1.00  0.00     0.210 HD
ENDBRANCH   4  28
TORSDOF 13
ENDMDL
MODEL 2
REMARK VINA RESULT: -7.275541551      3.887      7.052
REMARK  13 active torsions:
REMARK  status: ('A' for Active; 'I' for Inactive)
REMARK    1  A    between atoms: C1_2  and  C2_4 
REMARK    2  A    between atoms: C2_4  and  C3_5 
REMARK    3  A    between atoms: C3_5  and  C4_6 
REMARK    4  A    between atoms: C4_6  and  C5_7 
REMARK    5  A    between atoms: C6_8  and  C7_9 
REMARK    6  A    between atoms: C7_9  and  C8_10 
REMARK    7  A    between atoms: C9_11  and  C10_12 
REMARK    8  A    between atoms: C11_13  and  C12_14 
REMARK    9  A    between atoms: C12_14  and  O3_15 
REMARK   10  A    between atoms: C12_14  and  C13_17 
REMARK   11  A    between atoms: C14_18  and  C15_19 
REMARK   12  A    between atoms: C19_23  and  O4_24 
REMARK   13  A    between atoms: C20_26  and  C21_27 
ROOT
HETATM    1  C8  UNL     1      34.750  41.179  -7.914  1.00  0.00     0.013 C 
HETATM    2  C9  UNL     1      34.744  41.097  -6.370  1.00  0.00     0.015 C 
HETATM    3  C18 UNL     1      34.861  39.618  -6.197  1.00  0.00     0.041 C 
HETATM    4  C19 UNL     1      33.998  39.023  -7.320  1.00  0.00     0.133 C 
HETATM    5  C20 UNL     1      33.624  40.222  -8.201  1.00  0.00     0.120 C 
ENDROOT
BRANCH   2   6
HETATM    6  C10 UNL     1      35.765  41.911  -5.738  1.00  0.00    -0.023 C 
HETATM    7  C11 UNL     1      36.149  41.693  -4.493  1.00  0.00     0.005 C 
BRANCH   7   8
HETATM    8  C12 UNL     1      37.205  42.546  -3.861  1.00  0.00     0.163 C 
BRANCH   8   9
HETATM    9  O3  UNL     1      38.378  41.793  -3.770  1.00  0.00    -0.388 OA
ATOM     10  H3  UNL     1      39.084  42.373  -3.506  1.00  0.00     0.210 HD
ENDBRANCH   8   9
BRANCH   8  11
HETATM   11  C13 UNL     1      36.733  42.950  -2.523  1.00  0.00     0.005 C 
HETATM   12  C14 UNL     1      37.469  42.686  -1.460  1.00  0.00    -0.023 C 
BRANCH  12  13
HETATM   13  C15 UNL     1      37.044  43.070  -0.083  1.00  0.00     0.008 A 
HETATM   14  C16 UNL     1      37.181  41.933   0.919  1.00  0.00     0.009 A 
HETATM   15  C17 UNL     1      37.987  43.173   1.030  1.00  0.00     0.009 A 
ENDBRANCH  12  13
ENDBRANCH   8  11
ENDBRANCH   7   8
ENDBRANCH   2   6
BRANCH   1  16
HETATM   16  C7  UNL     1      34.489  42.606  -8.322  1.00  0.00     0.033 C 
BRANCH  16  17
HETATM   17  C6  UNL     1      33.096  43.018  -8.357  1.00  0.00    -0.030 C 
HETATM   18  C5  UNL     1      32.531  43.690  -9.340  1.00  0.00    -0.031 C 
BRANCH  18  19
HETATM   19  C4  UNL     1      33.229  44.131 -10.576  1.00  0.00     0.027 C 
BRANCH  19  20
HETATM   20  C3  UNL     1      32.246  43.971 -11.722  1.00  0.00     0.014 C 
BRANCH  20  21
HETATM   21  C2  UNL     1      31.734  45.292 -12.207  1.00  0.00     0.113 C 
BRANCH  21  22
HETATM   22  C1  UNL     1      32.864  46.031 -12.824  1.00  0.00     0.172 C 
HETATM   23  O1  UNL     1      33.178  47.164 -12.386  1.00  0.00    -0.648 OA
HETATM   24  O2  UNL     1      33.585  45.510 -13.866  1.00  0.00    -0.648 OA
ENDBRANCH  21  22
ENDBRANCH  20  21
ENDBRANCH  19  20
ENDBRANCH  18  19
ENDBRANCH  16  17
ENDBRANCH   1  16
BRANCH   5  25
HETATM   25  C21 UNL     1      33.470  39.825  -9.598  1.00  0.00     0.179 C 
HETATM   26  O5  UNL     1      32.537  40.319 -10.319  1.00  0.00    -0.648 OA
HETATM   27  O6  UNL     1      34.302  38.905 -10.228  1.00  0.00    -0.648 OA
ENDBRANCH   5  25
BRANCH   4  28
HETATM   28  O4  UNL     1      32.851  38.435  -6.828  1.00  0.00    -0.395 OA
ATOM     29  H4  UNL     1      32.300  39.062  -6.373  1.00  0.00     0.210 HD
ENDBRANCH   4  28
TORSDOF 13
ENDMDL
MODEL 3
REMARK VINA RESULT: -7.272517069      3.269      6.451
REMARK  13 active torsions:
REMARK  status: ('A' for Active; 'I' for Inactive)
REMARK    1  A    between atoms: C1_2  and  C2_4 
REMARK    2  A    between atoms: C2_4  and  C3_5 
REMARK    3  A    between atoms: C3_5  and  C4_6 
REMARK    4  A    between atoms: C4_6  and  C5_7 
REMARK    5  A    between atoms: C6_8  and  C7_9 
REMARK    6  A    between atoms: C7_9  and  C8_10 
REMARK    7  A    between atoms: C9_11  and  C10_12 
REMARK    8  A    between atoms: C11_13  and  C12_14 
REMARK    9  A    between atoms: C12_14  and  O3_15 
REMARK   10  A    between atoms: C12_14  and  C13_17 
REMARK   11  A    between atoms: C14_18  and  C15_19 
REMARK   12  A    between atoms: C19_23  and  O4_24 
REMARK   13  A    between atoms: C20_26  and  C21_27 
ROOT
HETATM    1  C8  UNL     1      33.942  40.569  -9.154  1.00  0.00     0.013 C 
HETATM    2  C9  UNL     1      34.430  40.136  -7.751  1.00  0.00     0.015 C 
HETATM    3  C18 UNL     1      35.312  38.992  -8.135  1.00  0.00     0.041 C 
HETATM    4  C19 UNL     1      34.574  38.300  -9.290  1.00  0.00     0.133 C 
HETATM    5  C20 UNL     1      33.415  39.244  -9.635  1.00  0.00     0.120 C 
ENDROOT
BRANCH   2   6
HETATM    6  C10 UNL     1      35.043  41.207  -6.990  1.00  0.00    -0.023 C 
HETATM    7  C11 UNL     1      35.205  41.119  -5.682  1.00  0.00     0.005 C 
BRANCH   7   8
HETATM    8  C12 UNL     1      35.841  42.237  -4.916  1.00  0.00     0.163 C 
BRANCH   8   9
HETATM    9  O3  UNL     1      36.934  42.703  -5.650  1.00  0.00    -0.388 OA
ATOM     10  H3  UNL     1      37.727  42.361  -5.252  1.00  0.00     0.210 HD
ENDBRANCH   8   9
BRANCH   8  11
HETATM   11  C13 UNL     1      36.271  41.714  -3.606  1.00  0.00     0.005 C 
HETATM   12  C14 UNL     1      36.730  42.542  -2.686  1.00  0.00    -0.023 C 
BRANCH  12  13
HETATM   13  C15 UNL     1      37.179  42.070  -1.344  1.00  0.00     0.008 A 
HETATM   14  C16 UNL     1      37.659  43.203  -0.449  1.00  0.00     0.009 A 
HETATM   15  C17 UNL     1      36.459  42.398  -0.115  1.00  0.00     0.009 A 
ENDBRANCH  12  13
ENDBRANCH   8  11
ENDBRANCH   7   8
ENDBRANCH   2   6
BRANCH   1  16
HETATM   16  C7  UNL     1      32.900  41.645  -8.991  1.00  0.00     0.033 C 
BRANCH  16  17
HETATM   17  C6  UNL     1      33.356  43.013  -9.171  1.00  0.00    -0.030 C 
HETATM   18  C5  UNL     1      33.425  43.640 -10.327  1.00  0.00    -0.031 C 
BRANCH  18  19
HETATM   19  C4  UNL     1      33.043  43.050 -11.636  1.00  0.00     0.027 C 
BRANCH  19  20
HETATM   20  C3  UNL     1      32.055  44.004 -12.283  1.00  0.00     0.014 C 
BRANCH  20  21
HETATM   21  C2  UNL     1      32.171  45.390 -11.726  1.00  0.00     0.113 C 
BRANCH  21  22
HETATM   22  C1  UNL     1      32.896  46.228 -12.712  1.00  0.00     0.172 C 
HETATM   23  O1  UNL     1      33.204  47.409 -12.417  1.00  0.00    -0.648 OA
HETATM   24  O2  UNL     1      33.245  45.752 -13.948  1.00  0.00    -0.648 OA
ENDBRANCH  21  22
ENDBRANCH  20  21
ENDBRANCH  19  20
ENDBRANCH  18  19
ENDBRANCH  16  17
ENDBRANCH   1  16
BRANCH   5  25
HETATM   25  C21 UNL     1      33.078  39.173 -11.055  1.00  0.00     0.179 C 
HETATM   26  O5  UNL     1      33.850  38.574 -11.880  1.00  0.00    -0.648 OA
HETATM   27  O6  UNL     1      31.928  39.737 -11.597  1.00  0.00    -0.648 OA
ENDBRANCH   5  25
BRANCH   4  28
HETATM   28  O4  UNL     1      34.074  37.070  -8.915  1.00  0.00    -0.395 OA
ATOM     29  H4  UNL     1      33.751  37.077  -8.022  1.00  0.00     0.210 HD
ENDBRANCH   4  28
TORSDOF 13
ENDMDL
MODEL 4
REMARK VINA RESULT: -7.177075482      3.197      6.560
REMARK  13 active torsions:
REMARK  status: ('A' for Active; 'I' for Inactive)
REMARK    1  A    between atoms: C1_2  and  C2_4 
REMARK    2  A    between atoms: C2_4  and  C3_5 
REMARK    3  A    between atoms: C3_5  and  C4_6 
REMARK    4  A    between atoms: C4_6  and  C5_7 
REMARK    5  A    between atoms: C6_8  and  C7_9 
REMARK    6  A    between atoms: C7_9  and  C8_10 
REMARK    7  A    between atoms: C9_11  and  C10_12 
REMARK    8  A    between atoms: C11_13  and  C12_14 
REMARK    9  A    between atoms: C12_14  and  O3_15 
REMARK   10  A    between atoms: C12_14  and  C13_17 
REMARK   11  A    between atoms: C14_18  and  C15_19 
REMARK   12  A    between atoms: C19_23  and  O4_24 
REMARK   13  A    between atoms: C20_26  and  C21_27 
ROOT
HETATM    1  C8  UNL     1      34.184  39.934  -8.969  1.00  0.00     0.013 C 
HETATM    2  C9  UNL     1      34.346  39.833  -7.433  1.00  0.00     0.015 C 
HETATM    3  C18 UNL     1      35.178  38.594  -7.350  1.00  0.00     0.041 C 
HETATM    4  C19 UNL     1      34.621  37.674  -8.446  1.00  0.00     0.133 C 
HETATM    5  C20 UNL     1      33.643  38.555  -9.235  1.00  0.00     0.120 C 
ENDROOT
BRANCH   2   6
HETATM    6  C10 UNL     1      34.894  41.030  -6.825  1.00  0.00    -0.023 C 
HETATM    7  C11 UNL     1      35.266  41.050  -5.557  1.00  0.00     0.005 C 
BRANCH   7   8
HETATM    8  C12 UNL     1      35.829  42.297  -4.949  1.00  0.00     0.163 C 
BRANCH   8   9
HETATM    9  O3  UNL     1      36.927  42.699  -5.714  1.00  0.00    -0.388 OA
ATOM     10  H3  UNL     1      37.632  42.934  -5.121  1.00  0.00     0.210 HD
ENDBRANCH   8   9
BRANCH   8  11
HETATM   11  C13 UNL     1      36.235  41.994  -3.564  1.00  0.00     0.005 C 
HETATM   12  C14 UNL     1      36.859  42.909  -2.847  1.00  0.00    -0.023 C 
BRANCH  12  13
HETATM   13  C15 UNL     1      37.293  42.659  -1.442  1.00  0.00     0.008 A 
HETATM   14  C16 UNL     1      37.122  43.875  -0.544  1.00  0.00     0.009 A 
HETATM   15  C17 UNL     1      36.353  42.626  -0.323  1.00  0.00     0.009 A 
ENDBRANCH  12  13
ENDBRANCH   8  11
ENDBRANCH   7   8
ENDBRANCH   2   6
BRANCH   1  16
HETATM   16  C7  UNL     1      33.234  41.060  -9.280  1.00  0.00     0.033 C 
BRANCH  16  17
HETATM   17  C6  UNL     1      33.103  41.420 -10.682  1.00  0.00    -0.030 C 
HETATM   18  C5  UNL     1      33.095  42.652 -11.149  1.00  0.00    -0.031 C 
BRANCH  18  19
HETATM   19  C4  UNL     1      33.222  43.875 -10.314  1.00  0.00     0.027 C 
BRANCH  19  20
HETATM   20  C3  UNL     1      32.208  44.877 -10.838  1.00  0.00     0.014 C 
BRANCH  20  21
HETATM   21  C2  UNL     1      32.052  44.787 -12.325  1.00  0.00     0.113 C 
BRANCH  21  22
HETATM   22  C1  UNL     1      32.935  45.805 -12.947  1.00  0.00     0.172 C 
HETATM   23  O1  UNL     1      33.472  45.566 -14.056  1.00  0.00    -0.648 OA
HETATM   24  O2  UNL     1      33.185  47.009 -12.346  1.00  0.00    -0.648 OA
ENDBRANCH  21  22
ENDBRANCH  20  21
ENDBRANCH  19  20
ENDBRANCH  18  19
ENDBRANCH  16  17
ENDBRANCH   1  16
BRANCH   5  25
HETATM   25  C21 UNL     1      33.586  38.156 -10.640  1.00  0.00     0.179 C 
HETATM   26  O5  UNL     1      32.464  37.924 -11.208  1.00  0.00    -0.648 OA
HETATM   27  O6  UNL     1      34.715  38.002 -11.437  1.00  0.00    -0.648 OA
ENDBRANCH   5  25
BRANCH   4  28
HETATM   28  O4  UNL     1      33.946  36.594  -7.915  1.00  0.00    -0.395 OA
ATOM     29  H4  UNL     1      33.205  36.341  -8.454  1.00  0.00     0.210 HD
ENDBRANCH   4  28
TORSDOF 13
ENDMDL
MODEL 5
REMARK VINA RESULT: -7.124165610      1.911      6.957
REMARK  13 active torsions:
REMARK  status: ('A' for Active; 'I' for Inactive)
REMARK    1  A    between atoms: C1_2  and  C2_4 
REMARK    2  A    between atoms: C2_4  and  C3_5 
REMARK    3  A    between atoms: C3_5  and  C4_6 
REMARK    4  A    between atoms: C4_6  and  C5_7 
REMARK    5  A    between atoms: C6_8  and  C7_9 
REMARK    6  A    between atoms: C7_9  and  C8_10 
REMARK    7  A    between atoms: C9_11  and  C10_12 
REMARK    8  A    between atoms: C11_13  and  C12_14 
REMARK    9  A    between atoms: C12_14  and  O3_15 
REMARK   10  A    between atoms: C12_14  and  C13_17 
REMARK   11  A    between atoms: C14_18  and  C15_19 
REMARK   12  A    between atoms: C19_23  and  O4_24 
REMARK   13  A    between atoms: C20_26  and  C21_27 
ROOT
HETATM    1  C8  UNL     1      30.876  38.349  -9.029  1.00  0.00     0.013 C 
HETATM    2  C9  UNL     1      31.159  39.182 -10.302  1.00  0.00     0.015 C 
HETATM    3  C18 UNL     1      29.767  39.613 -10.634  1.00  0.00     0.041 C 
HETATM    4  C19 UNL     1      28.891  38.395 -10.306  1.00  0.00     0.133 C 
HETATM    5  C20 UNL     1      29.834  37.418  -9.590  1.00  0.00     0.120 C 
ENDROOT
BRANCH   2   6
HETATM    6  C10 UNL     1      32.139  40.233 -10.105  1.00  0.00    -0.023 C 
HETATM    7  C11 UNL     1      31.837  41.346  -9.461  1.00  0.00     0.005 C 
BRANCH   7   8
HETATM    8  C12 UNL     1      32.864  42.418  -9.270  1.00  0.00     0.163 C 
BRANCH   8   9
HETATM    9  O3  UNL     1      32.343  43.372  -8.392  1.00  0.00    -0.388 OA
ATOM     10  H3  UNL     1      32.355  44.216  -8.829  1.00  0.00     0.210 HD
ENDBRANCH   8   9
BRANCH   8  11
HETATM   11  C13 UNL     1      33.158  43.018 -10.585  1.00  0.00     0.005 C 
HETATM   12  C14 UNL     1      32.848  44.279 -10.816  1.00  0.00    -0.023 C 
BRANCH  12  13
HETATM   13  C15 UNL     1      33.121  44.939 -12.125  1.00  0.00     0.008 A 
HETATM   14  C16 UNL     1      31.853  45.256 -12.905  1.00  0.00     0.009 A 
HETATM   15  C17 UNL     1      32.747  46.326 -12.399  1.00  0.00     0.009 A 
ENDBRANCH  12  13
ENDBRANCH   8  11
ENDBRANCH   7   8
ENDBRANCH   2   6
BRANCH   1  16
HETATM   16  C7  UNL     1      32.155  37.682  -8.596  1.00  0.00     0.033 C 
BRANCH  16  17
HETATM   17  C6  UNL     1      32.589  37.949  -7.235  1.00  0.00    -0.030 C 
HETATM   18  C5  UNL     1      33.739  38.500  -6.903  1.00  0.00    -0.031 C 
BRANCH  18  19
HETATM   19  C4  UNL     1      34.778  38.939  -7.869  1.00  0.00     0.027 C 
BRANCH  19  20
HETATM   20  C3  UNL     1      35.068  40.400  -7.575  1.00  0.00     0.014 C 
BRANCH  20  21
HETATM   21  C2  UNL     1      35.085  40.681  -6.104  1.00  0.00     0.113 C 
BRANCH  21  22
HETATM   22  C1  UNL     1      35.433  42.110  -5.907  1.00  0.00     0.172 C 
HETATM   23  O1  UNL     1      34.608  43.000  -6.227  1.00  0.00    -0.648 OA
HETATM   24  O2  UNL     1      36.638  42.494  -5.382  1.00  0.00    -0.648 OA
ENDBRANCH  21  22
ENDBRANCH  20  21
ENDBRANCH  19  20
ENDBRANCH  18  19
ENDBRANCH  16  17
ENDBRANCH   1  16
BRANCH   5  25
HETATM   25  C21 UNL     1      29.113  36.609  -8.610  1.00  0.00     0.179 C 
HETATM   26  O5  UNL     1      29.684  36.228  -7.531  1.00  0.00    -0.648 OA
HETATM   27  O6  UNL     1      27.793  36.205  -8.774  1.00  0.00    -0.648 OA
ENDBRANCH   5  25
BRANCH   4  28
HETATM   28  O4  UNL     1      28.390  37.802 -11.446  1.00  0.00    -0.395 OA
ATOM     29  H4  UNL     1      27.523  38.126 -11.660  1.00  0.00     0.210 HD
ENDBRANCH   4  28
TORSDOF 13
ENDMDL
