MODEL 1
REMARK VINA RESULT: -7.870882761      0.000      0.000
REMARK  11 active torsions:
REMARK  status: ('A' for Active; 'I' for Inactive)
REMARK    1  A    between atoms: O1_2  and  C2_3 
REMARK    2  A    between atoms: C2_3  and  C3_4 
REMARK    3  A    between atoms: C3_4  and  N1_5 
REMARK    4  A    between atoms: N1_5  and  C4_6 
REMARK       I    between atoms: N1_5  and  C11_14 
REMARK    5  A    between atoms: C4_6  and  C5_7 
REMARK    6  A    between atoms: C5_7  and  C6_8 
REMARK       I    between atoms: C11_14  and  N2_16 
REMARK    7  A    between atoms: N2_16  and  C12_18 
REMARK    8  A    between atoms: C12_18  and  C13_19 
REMARK    9  A    between atoms: C13_19  and  N3_20 
REMARK   10  A    between atoms: N3_20  and  C14_22 
REMARK   11  A    between atoms: C14_22  and  C15_23 
ROOT
HETATM    1  N1  UNL     1      34.139  41.092  -7.698  1.00  0.00    -0.332 N 
HETATM    2  C11 UNL     1      34.937  40.794  -6.519  1.00  0.00     0.318 C 
HETATM    3  O2  UNL     1      35.051  39.571  -6.143  1.00  0.00    -0.247 OA
HETATM    4  N2  UNL     1      35.601  41.760  -5.753  1.00  0.00    -0.341 N 
ATOM      5  H2  UNL     1      35.523  42.741  -6.022  1.00  0.00     0.164 HD
ENDROOT
BRANCH   1   6
HETATM    6  C3  UNL     1      33.537  39.961  -8.329  1.00  0.00     0.153 C 
BRANCH   6   7
HETATM    7  C2  UNL     1      34.170  39.400  -9.536  1.00  0.00     0.187 C 
BRANCH   7   8
HETATM    8  O1  UNL     1      35.553  39.251  -9.436  1.00  0.00    -0.394 OA
HETATM    9  C1  UNL     1      35.796  37.895  -9.210  1.00  0.00     0.201 C 
ENDBRANCH   7   8
ENDBRANCH   6   7
ENDBRANCH   1   6
BRANCH   1  10
HETATM   10  C4  UNL     1      34.122  42.441  -8.128  1.00  0.00     0.128 C 
BRANCH  10  11
HETATM   11  C5  UNL     1      33.013  42.978  -8.911  1.00  0.00     0.025 C 
BRANCH  11  12
HETATM   12  C6  UNL     1      33.160  43.235 -10.357  1.00  0.00    -0.004 C 
HETATM   13  C7  UNL     1      32.270  42.196 -11.072  1.00  0.00     0.006 C 
HETATM   14  C8  UNL     1      32.791  41.972 -12.464  1.00  0.00     0.010 C 
HETATM   15  C9  UNL     1      32.442  43.133 -13.379  1.00  0.00     0.074 C 
HETATM   16  S1  UNL     1      32.844  44.714 -12.581  1.00  0.00    -0.169 SA
HETATM   17  C10 UNL     1      32.662  44.591 -10.783  1.00  0.00     0.078 C 
ENDBRANCH  11  12
ENDBRANCH  10  11
ENDBRANCH   1  10
BRANCH   4  18
HETATM   18  C12 UNL     1      36.389  41.415  -4.599  1.00  0.00     0.144 C 
BRANCH  18  19
HETATM   19  C13 UNL     1      36.139  42.385  -3.421  1.00  0.00     0.138 C 
BRANCH  19  20
HETATM   20  N3  UNL     1      35.107  41.876  -2.596  1.00  0.00    -0.399 N 
ATOM     21  H3  UNL     1      34.269  41.494  -3.036  1.00  0.00     0.158 HD
BRANCH  20  22
HETATM   22  C14 UNL     1      35.194  41.878  -1.208  1.00  0.00     0.088 C 
BRANCH  22  23
HETATM   23  C15 UNL     1      36.374  42.461  -0.558  1.00  0.00     0.223 C 
HETATM   24  C16 UNL     1      36.552  42.164   0.901  1.00  0.00     0.038 C 
HETATM   25  C17 UNL     1      38.048  42.440   1.216  1.00  0.00     0.004 C 
HETATM   26  C18 UNL     1      38.391  43.840   0.787  1.00  0.00     0.027 C 
HETATM   27  C19 UNL     1      37.758  44.319  -0.463  1.00  0.00     0.233 C 
HETATM   28  N4  UNL     1      36.375  43.923  -0.669  1.00  0.00    -0.066 N 
ATOM     29  H42 UNL     1      35.971  44.271  -1.539  1.00  0.00     0.278 HD
ATOM     30  H41 UNL     1      35.716  44.384  -0.042  1.00  0.00     0.278 HD
ENDBRANCH  22  23
ENDBRANCH  20  22
ENDBRANCH  19  20
ENDBRANCH  18  19
ENDBRANCH   4  18
TORSDOF 11
ENDMDL
MODEL 2
REMARK VINA RESULT: -7.694601753      1.551      1.985
REMARK  11 active torsions:
REMARK  status: ('A' for Active; 'I' for Inactive)
REMARK    1  A    between atoms: O1_2  and  C2_3 
REMARK    2  A    between atoms: C2_3  and  C3_4 
REMARK    3  A    between atoms: C3_4  and  N1_5 
REMARK    4  A    between atoms: N1_5  and  C4_6 
REMARK       I    between atoms: N1_5  and  C11_14 
REMARK    5  A    between atoms: C4_6  and  C5_7 
REMARK    6  A    between atoms: C5_7  and  C6_8 
REMARK       I    between atoms: C11_14  and  N2_16 
REMARK    7  A    between atoms: N2_16  and  C12_18 
REMARK    8  A    between atoms: C12_18  and  C13_19 
REMARK    9  A    between atoms: C13_19  and  N3_20 
REMARK   10  A    between atoms: N3_20  and  C14_22 
REMARK   11  A    between atoms: C14_22  and  C15_23 
ROOT
HETATM    1  N1  UNL     1      33.680  41.125  -8.611  1.00  0.00    -0.332 N 
HETATM    2  C11 UNL     1      34.474  40.686  -7.475  1.00  0.00     0.318 C 
HETATM    3  O2  UNL     1      34.892  39.472  -7.445  1.00  0.00    -0.247 OA
HETATM    4  N2  UNL     1      34.821  41.507  -6.394  1.00  0.00    -0.341 N 
ATOM      5  H2  UNL     1      34.497  42.474  -6.385  1.00  0.00     0.164 HD
ENDROOT
BRANCH   1   6
HETATM    6  C3  UNL     1      33.431  40.128  -9.603  1.00  0.00     0.153 C 
BRANCH   6   7
HETATM    7  C2  UNL     1      32.078  39.552  -9.708  1.00  0.00     0.187 C 
BRANCH   7   8
HETATM    8  O1  UNL     1      31.776  38.626  -8.710  1.00  0.00    -0.394 OA
HETATM    9  C1  UNL     1      30.584  38.002  -9.088  1.00  0.00     0.201 C 
ENDBRANCH   7   8
ENDBRANCH   6   7
ENDBRANCH   1   6
BRANCH   1  10
HETATM   10  C4  UNL     1      33.324  42.496  -8.646  1.00  0.00     0.128 C 
BRANCH  10  11
HETATM   11  C5  UNL     1      33.675  43.347  -9.778  1.00  0.00     0.025 C 
BRANCH  11  12
HETATM   12  C6  UNL     1      32.646  43.805 -10.731  1.00  0.00    -0.004 C 
HETATM   13  C7  UNL     1      33.321  44.879 -11.610  1.00  0.00     0.006 C 
HETATM   14  C8  UNL     1      32.269  45.800 -12.163  1.00  0.00     0.010 C 
HETATM   15  C9  UNL     1      31.493  45.141 -13.290  1.00  0.00     0.074 C 
HETATM   16  S1  UNL     1      30.970  43.469 -12.808  1.00  0.00    -0.169 SA
HETATM   17  C10 UNL     1      32.164  42.727 -11.665  1.00  0.00     0.078 C 
ENDBRANCH  11  12
ENDBRANCH  10  11
ENDBRANCH   1  10
BRANCH   4  18
HETATM   18  C12 UNL     1      35.619  41.029  -5.295  1.00  0.00     0.144 C 
BRANCH  18  19
HETATM   19  C13 UNL     1      35.975  42.165  -4.308  1.00  0.00     0.138 C 
BRANCH  19  20
HETATM   20  N3  UNL     1      35.227  42.012  -3.116  1.00  0.00    -0.399 N 
ATOM     21  H3  UNL     1      34.219  42.172  -3.144  1.00  0.00     0.158 HD
BRANCH  20  22
HETATM   22  C14 UNL     1      35.814  41.653  -1.908  1.00  0.00     0.088 C 
BRANCH  22  23
HETATM   23  C15 UNL     1      36.629  42.634  -1.180  1.00  0.00     0.223 C 
HETATM   24  C16 UNL     1      36.778  42.420   0.296  1.00  0.00     0.038 C 
HETATM   25  C17 UNL     1      38.029  43.235   0.725  1.00  0.00     0.004 C 
HETATM   26  C18 UNL     1      37.859  44.663   0.285  1.00  0.00     0.027 C 
HETATM   27  C19 UNL     1      37.204  44.875  -1.026  1.00  0.00     0.233 C 
HETATM   28  N4  UNL     1      36.093  43.990  -1.333  1.00  0.00    -0.066 N 
ATOM     29  H42 UNL     1      35.666  44.165  -2.243  1.00  0.00     0.278 HD
ATOM     30  H41 UNL     1      35.258  44.168  -0.775  1.00  0.00     0.278 HD
ENDBRANCH  22  23
ENDBRANCH  20  22
ENDBRANCH  19  20
ENDBRANCH  18  19
ENDBRANCH   4  18
TORSDOF 11
ENDMDL
MODEL 3
REMARK VINA RESULT: -7.659477554      1.035      1.217
REMARK  11 active torsions:
REMARK  status: ('A' for Active; 'I' for Inactive)
REMARK    1  A    between atoms: O1_2  and  C2_3 
REMARK    2  A    between atoms: C2_3  and  C3_4 
REMARK    3  A    between atoms: C3_4  and  N1_5 
REMARK    4  A    between atoms: N1_5  and  C4_6 
REMARK       I    between atoms: N1_5  and  C11_14 
REMARK    5  A    between atoms: C4_6  and  C5_7 
REMARK    6  A    between atoms: C5_7  and  C6_8 
REMARK       I    between atoms: C11_14  and  N2_16 
REMARK    7  A    between atoms: N2_16  and  C12_18 
REMARK    8  A    between atoms: C12_18  and  C13_19 
REMARK    9  A    between atoms: C13_19  and  N3_20 
REMARK   10  A    between atoms: N3_20  and  C14_22 
REMARK   11  A    between atoms: C14_22  and  C15_23 
ROOT
HETATM    1  N1  UNL     1      34.127  41.133  -8.316  1.00  0.00    -0.332 N 
HETATM    2  C11 UNL     1      34.890  40.707  -7.153  1.00  0.00     0.318 C 
HETATM    3  O2  UNL     1      35.212  39.469  -7.044  1.00  0.00    -0.247 OA
HETATM    4  N2  UNL     1      35.306  41.566  -6.128  1.00  0.00    -0.341 N 
ATOM      5  H2  UNL     1      35.060  42.554  -6.182  1.00  0.00     0.164 HD
ENDROOT
BRANCH   1   6
HETATM    6  C3  UNL     1      33.794  40.096  -9.240  1.00  0.00     0.153 C 
BRANCH   6   7
HETATM    7  C2  UNL     1      32.527  39.365  -9.063  1.00  0.00     0.187 C 
BRANCH   7   8
HETATM    8  O1  UNL     1      32.688  38.004  -8.802  1.00  0.00    -0.394 OA
HETATM    9  C1  UNL     1      32.085  37.758  -7.566  1.00  0.00     0.201 C 
ENDBRANCH   7   8
ENDBRANCH   6   7
ENDBRANCH   1   6
BRANCH   1  10
HETATM   10  C4  UNL     1      33.879  42.522  -8.439  1.00  0.00     0.128 C 
BRANCH  10  11
HETATM   11  C5  UNL     1      32.770  43.031  -9.240  1.00  0.00     0.025 C 
BRANCH  11  12
HETATM   12  C6  UNL     1      32.973  43.444 -10.642  1.00  0.00    -0.004 C 
HETATM   13  C7  UNL     1      32.184  42.439 -11.506  1.00  0.00     0.006 C 
HETATM   14  C8  UNL     1      32.786  42.389 -12.883  1.00  0.00     0.010 C 
HETATM   15  C9  UNL     1      32.415  43.618 -13.694  1.00  0.00     0.074 C 
HETATM   16  S1  UNL     1      32.682  45.127 -12.720  1.00  0.00    -0.169 SA
HETATM   17  C10 UNL     1      32.419  44.809 -10.956  1.00  0.00     0.078 C 
ENDBRANCH  11  12
ENDBRANCH  10  11
ENDBRANCH   1  10
BRANCH   4  18
HETATM   18  C12 UNL     1      36.071  41.099  -5.001  1.00  0.00     0.144 C 
BRANCH  18  19
HETATM   19  C13 UNL     1      36.103  42.141  -3.858  1.00  0.00     0.138 C 
BRANCH  19  20
HETATM   20  N3  UNL     1      35.089  41.846  -2.916  1.00  0.00    -0.399 N 
ATOM     21  H3  UNL     1      34.145  41.655  -3.253  1.00  0.00     0.158 HD
BRANCH  20  22
HETATM   22  C14 UNL     1      35.332  41.806  -1.548  1.00  0.00     0.088 C 
BRANCH  22  23
HETATM   23  C15 UNL     1      36.352  42.689  -0.968  1.00  0.00     0.223 C 
HETATM   24  C16 UNL     1      36.659  42.496   0.487  1.00  0.00     0.038 C 
HETATM   25  C17 UNL     1      38.048  43.149   0.723  1.00  0.00     0.004 C 
HETATM   26  C18 UNL     1      38.010  44.575   0.247  1.00  0.00     0.027 C 
HETATM   27  C19 UNL     1      37.226  44.836  -0.982  1.00  0.00     0.233 C 
HETATM   28  N4  UNL     1      35.980  44.100  -1.112  1.00  0.00    -0.066 N 
ATOM     29  H42 UNL     1      35.467  44.306  -1.970  1.00  0.00     0.278 HD
ATOM     30  H41 UNL     1      35.252  44.402  -0.465  1.00  0.00     0.278 HD
ENDBRANCH  22  23
ENDBRANCH  20  22
ENDBRANCH  19  20
ENDBRANCH  18  19
ENDBRANCH   4  18
TORSDOF 11
ENDMDL
MODEL 4
REMARK VINA RESULT: -7.558318689      2.968      4.342
REMARK  11 active torsions:
REMARK  status: ('A' for Active; 'I' for Inactive)
REMARK    1  A    between atoms: O1_2  and  C2_3 
REMARK    2  A    between atoms: C2_3  and  C3_4 
REMARK    3  A    between atoms: C3_4  and  N1_5 
REMARK    4  A    between atoms: N1_5  and  C4_6 
REMARK       I    between atoms: N1_5  and  C11_14 
REMARK    5  A    between atoms: C4_6  and  C5_7 
REMARK    6  A    between atoms: C5_7  and  C6_8 
REMARK       I    between atoms: C11_14  and  N2_16 
REMARK    7  A    between atoms: N2_16  and  C12_18 
REMARK    8  A    between atoms: C12_18  and  C13_19 
REMARK    9  A    between atoms: C13_19  and  N3_20 
REMARK   10  A    between atoms: N3_20  and  C14_22 
REMARK   11  A    between atoms: C14_22  and  C15_23 
ROOT
HETATM    1  N1  UNL     1      33.825  40.970  -8.141  1.00  0.00    -0.332 N 
HETATM    2  C11 UNL     1      34.485  41.826  -7.167  1.00  0.00     0.318 C 
HETATM    3  O2  UNL     1      34.296  43.095  -7.229  1.00  0.00    -0.247 OA
HETATM    4  N2  UNL     1      35.324  41.357  -6.148  1.00  0.00    -0.341 N 
ATOM      5  H2  UNL     1      35.500  40.355  -6.077  1.00  0.00     0.164 HD
ENDROOT
BRANCH   1   6
HETATM    6  C3  UNL     1      33.019  41.651  -9.103  1.00  0.00     0.153 C 
BRANCH   6   7
HETATM    7  C2  UNL     1      33.153  41.290 -10.526  1.00  0.00     0.187 C 
BRANCH   7   8
HETATM    8  O1  UNL     1      33.195  42.385 -11.389  1.00  0.00    -0.394 OA
HETATM    9  C1  UNL     1      33.242  43.528 -10.586  1.00  0.00     0.201 C 
ENDBRANCH   7   8
ENDBRANCH   6   7
ENDBRANCH   1   6
BRANCH   1  10
HETATM   10  C4  UNL     1      33.988  39.574  -7.972  1.00  0.00     0.128 C 
BRANCH  10  11
HETATM   11  C5  UNL     1      33.273  38.844  -6.930  1.00  0.00     0.025 C 
BRANCH  11  12
HETATM   12  C6  UNL     1      32.389  37.710  -7.267  1.00  0.00    -0.004 C 
HETATM   13  C7  UNL     1      31.616  38.130  -8.535  1.00  0.00     0.006 C 
HETATM   14  C8  UNL     1      30.324  37.364  -8.603  1.00  0.00     0.010 C 
HETATM   15  C9  UNL     1      30.555  35.925  -9.030  1.00  0.00     0.074 C 
HETATM   16  S1  UNL     1      31.913  35.189  -8.074  1.00  0.00    -0.169 SA
HETATM   17  C10 UNL     1      33.133  36.448  -7.616  1.00  0.00     0.078 C 
ENDBRANCH  11  12
ENDBRANCH  10  11
ENDBRANCH   1  10
BRANCH   4  18
HETATM   18  C12 UNL     1      35.946  42.243  -5.199  1.00  0.00     0.144 C 
BRANCH  18  19
HETATM   19  C13 UNL     1      36.265  41.525  -3.867  1.00  0.00     0.138 C 
BRANCH  19  20
HETATM   20  N3  UNL     1      35.212  41.741  -2.946  1.00  0.00    -0.399 N 
ATOM     21  H3  UNL     1      34.269  41.894  -3.304  1.00  0.00     0.158 HD
BRANCH  20  22
HETATM   22  C14 UNL     1      35.415  41.751  -1.570  1.00  0.00     0.088 C 
BRANCH  22  23
HETATM   23  C15 UNL     1      36.399  42.676  -0.992  1.00  0.00     0.223 C 
HETATM   24  C16 UNL     1      36.674  42.532   0.475  1.00  0.00     0.038 C 
HETATM   25  C17 UNL     1      38.040  43.228   0.726  1.00  0.00     0.004 C 
HETATM   26  C18 UNL     1      37.977  44.638   0.208  1.00  0.00     0.027 C 
HETATM   27  C19 UNL     1      37.217  44.845  -1.046  1.00  0.00     0.233 C 
HETATM   28  N4  UNL     1      35.994  44.073  -1.185  1.00  0.00    -0.066 N 
ATOM     29  H42 UNL     1      35.497  44.241  -2.060  1.00  0.00     0.278 HD
ATOM     30  H41 UNL     1      35.243  44.374  -0.564  1.00  0.00     0.278 HD
ENDBRANCH  22  23
ENDBRANCH  20  22
ENDBRANCH  19  20
ENDBRANCH  18  19
ENDBRANCH   4  18
TORSDOF 11
ENDMDL
MODEL 5
REMARK VINA RESULT: -7.551386539      1.786      2.322
REMARK  11 active torsions:
REMARK  status: ('A' for Active; 'I' for Inactive)
REMARK    1  A    between atoms: O1_2  and  C2_3 
REMARK    2  A    between atoms: C2_3  and  C3_4 
REMARK    3  A    between atoms: C3_4  and  N1_5 
REMARK    4  A    between atoms: N1_5  and  C4_6 
REMARK       I    between atoms: N1_5  and  C11_14 
REMARK    5  A    between atoms: C4_6  and  C5_7 
REMARK    6  A    between atoms: C5_7  and  C6_8 
REMARK       I    between atoms: C11_14  and  N2_16 
REMARK    7  A    between atoms: N2_16  and  C12_18 
REMARK    8  A    between atoms: C12_18  and  C13_19 
REMARK    9  A    between atoms: C13_19  and  N3_20 
REMARK   10  A    between atoms: N3_20  and  C14_22 
REMARK   11  A    between atoms: C14_22  and  C15_23 
ROOT
HETATM    1  N1  UNL     1      33.396  39.798  -8.524  1.00  0.00    -0.332 N 
HETATM    2  C11 UNL     1      34.197  39.737  -7.312  1.00  0.00     0.318 C 
HETATM    3  O2  UNL     1      34.396  38.595  -6.758  1.00  0.00    -0.247 OA
HETATM    4  N2  UNL     1      34.777  40.853  -6.695  1.00  0.00    -0.341 N 
ATOM      5  H2  UNL     1      34.631  41.775  -7.106  1.00  0.00     0.164 HD
ENDROOT
BRANCH   1   6
HETATM    6  C3  UNL     1      32.888  38.545  -8.983  1.00  0.00     0.153 C 
BRANCH   6   7
HETATM    7  C2  UNL     1      31.450  38.260  -8.828  1.00  0.00     0.187 C 
BRANCH   7   8
HETATM    8  O1  UNL     1      31.154  37.378  -7.788  1.00  0.00    -0.394 OA
HETATM    9  C1  UNL     1      29.942  36.765  -8.115  1.00  0.00     0.201 C 
ENDBRANCH   7   8
ENDBRANCH   6   7
ENDBRANCH   1   6
BRANCH   1  10
HETATM   10  C4  UNL     1      33.285  41.064  -9.148  1.00  0.00     0.128 C 
BRANCH  10  11
HETATM   11  C5  UNL     1      33.200  41.193 -10.600  1.00  0.00     0.025 C 
BRANCH  11  12
HETATM   12  C6  UNL     1      32.540  42.358 -11.221  1.00  0.00    -0.004 C 
HETATM   13  C7  UNL     1      33.237  43.608 -10.642  1.00  0.00     0.006 C 
HETATM   14  C8  UNL     1      32.298  44.779 -10.718  1.00  0.00     0.010 C 
HETATM   15  C9  UNL     1      32.184  45.306 -12.138  1.00  0.00     0.074 C 
HETATM   16  S1  UNL     1      31.912  43.940 -13.304  1.00  0.00    -0.169 SA
HETATM   17  C10 UNL     1      32.711  42.424 -12.716  1.00  0.00     0.078 C 
ENDBRANCH  11  12
ENDBRANCH  10  11
ENDBRANCH   1  10
BRANCH   4  18
HETATM   18  C12 UNL     1      35.573  40.740  -5.500  1.00  0.00     0.144 C 
BRANCH  18  19
HETATM   19  C13 UNL     1      35.791  42.114  -4.825  1.00  0.00     0.138 C 
BRANCH  19  20
HETATM   20  N3  UNL     1      35.320  42.069  -3.490  1.00  0.00    -0.399 N 
ATOM     21  H3  UNL     1      34.372  42.390  -3.292  1.00  0.00     0.158 HD
BRANCH  20  22
HETATM   22  C14 UNL     1      36.102  41.602  -2.440  1.00  0.00     0.088 C 
BRANCH  22  23
HETATM   23  C15 UNL     1      36.762  42.563  -1.547  1.00  0.00     0.223 C 
HETATM   24  C16 UNL     1      36.756  42.233  -0.084  1.00  0.00     0.038 C 
HETATM   25  C17 UNL     1      37.893  43.080   0.551  1.00  0.00     0.004 C 
HETATM   26  C18 UNL     1      37.681  44.528   0.206  1.00  0.00     0.027 C 
HETATM   27  C19 UNL     1      37.166  44.812  -1.153  1.00  0.00     0.233 C 
HETATM   28  N4  UNL     1      36.158  43.894  -1.657  1.00  0.00    -0.066 N 
ATOM     29  H42 UNL     1      35.827  44.121  -2.595  1.00  0.00     0.278 HD
ATOM     30  H41 UNL     1      35.255  43.977  -1.191  1.00  0.00     0.278 HD
ENDBRANCH  22  23
ENDBRANCH  20  22
ENDBRANCH  19  20
ENDBRANCH  18  19
ENDBRANCH   4  18
TORSDOF 11
ENDMDL
