MODEL 1
REMARK VINA RESULT: -8.871224565      0.000      0.000
REMARK  8 active torsions:
REMARK  status: ('A' for Active; 'I' for Inactive)
REMARK    1  A    between atoms: O1_2  and  C2_3 
REMARK    2  A    between atoms: C3_4  and  C4_5 
REMARK    3  A    between atoms: N1_6  and  N2_8 
REMARK       I    between atoms: C5_10  and  N4_12 
REMARK    4  A    between atoms: C8_17  and  C9_18 
REMARK    5  A    between atoms: C12_21  and  C13_22 
REMARK    6  A    between atoms: C13_22  and  N6_23 
REMARK       I    between atoms: N6_23  and  C14_25 
REMARK    7  A    between atoms: C17_30  and  C18_31 
REMARK    8  A    between atoms: C18_31  and  C19_32 
ROOT
HETATM    1  C2  UNL     1      34.910  40.540  -6.367  1.00  0.00     0.105 A 
HETATM    2  C3  UNL     1      34.867  41.847  -5.940  1.00  0.00     0.084 A 
HETATM    3  N5  UNL     1      34.316  42.580  -6.921  1.00  0.00    -0.352 N 
ATOM      4  H5  UNL     1      34.160  43.587  -6.876  1.00  0.00     0.166 HD
HETATM    5  C8  UNL     1      33.990  41.786  -7.996  1.00  0.00     0.052 A 
HETATM    6  C17 UNL     1      34.351  40.523  -7.672  1.00  0.00     0.009 A 
ENDROOT
BRANCH   5   7
HETATM    7  C9  UNL     1      33.421  42.355  -9.205  1.00  0.00    -0.009 A 
HETATM    8  C10 UNL     1      32.628  43.516  -9.113  1.00  0.00     0.014 A 
HETATM    9  C11 UNL     1      32.010  44.110 -10.182  1.00  0.00     0.013 A 
HETATM   10  C12 UNL     1      32.164  43.548 -11.431  1.00  0.00    -0.021 A 
HETATM   11  C15 UNL     1      32.933  42.415 -11.542  1.00  0.00     0.013 A 
HETATM   12  C16 UNL     1      33.560  41.816 -10.447  1.00  0.00     0.014 A 
BRANCH  10  13
HETATM   13  C13 UNL     1      31.526  44.151 -12.578  1.00  0.00     0.103 C 
BRANCH  13  14
HETATM   14  N6  UNL     1      31.734  45.381 -12.853  1.00  0.00    -0.321 N 
HETATM   15  C14 UNL     1      33.037  45.935 -12.970  1.00  0.00     0.332 C 
HETATM   16  N7  UNL     1      33.309  47.220 -12.433  1.00  0.00    -0.040 NA
HETATM   17  O2  UNL     1      33.958  45.276 -13.558  1.00  0.00    -0.251 OA
ATOM     18  H6  UNL     1      30.930  45.992 -12.993  1.00  0.00     0.169 HD
ENDBRANCH  13  14
ENDBRANCH  10  13
ENDBRANCH   5   7
BRANCH   6  19
HETATM   19  C18 UNL     1      34.243  39.300  -8.476  1.00  0.00     0.071 C 
BRANCH  19  20
HETATM   20  C19 UNL     1      33.224  38.339  -8.007  1.00  0.00    -0.020 C 
HETATM   21  C20 UNL     1      32.011  38.186  -8.482  1.00  0.00    -0.091 C 
HETATM   22  C21 UNL     1      31.054  37.178  -7.933  1.00  0.00     0.042 C 
HETATM   23  C22 UNL     1      31.516  39.025  -9.601  1.00  0.00     0.042 C 
ENDBRANCH  19  20
ENDBRANCH   6  19
BRANCH   2  24
HETATM   24  C4  UNL     1      35.332  42.367  -4.648  1.00  0.00     0.139 C 
HETATM   25  N1  UNL     1      35.177  41.688  -3.555  1.00  0.00    -0.307 N 
ATOM     26  H1  UNL     1      34.725  40.774  -3.576  1.00  0.00     0.186 HD
BRANCH  25  27
HETATM   27  N2  UNL     1      35.631  42.217  -2.359  1.00  0.00    -0.274 N 
HETATM   28  C5  UNL     1      36.690  41.775  -1.797  1.00  0.00     0.204 C 
HETATM   29  N3  UNL     1      37.433  40.719  -2.392  1.00  0.00    -0.062 NA
HETATM   30  N4  UNL     1      37.164  42.313  -0.568  1.00  0.00    -0.363 N 
HETATM   31  C6  UNL     1      36.895  41.634   0.685  1.00  0.00     0.152 C 
HETATM   32  C7  UNL     1      37.921  43.549  -0.561  1.00  0.00     0.152 C 
ATOM     33  H2  UNL     1      35.109  42.975  -1.918  1.00  0.00     0.189 HD
ENDBRANCH  25  27
ENDBRANCH   2  24
BRANCH   1  34
HETATM   34  O1  UNL     1      35.390  39.422  -5.704  1.00  0.00    -0.353 OA
HETATM   35  C1  UNL     1      36.825  39.324  -5.684  1.00  0.00     0.210 C 
ENDBRANCH   1  34
TORSDOF 8
ENDMDL
MODEL 2
REMARK VINA RESULT: -7.689497918      1.179      2.130
REMARK  8 active torsions:
REMARK  status: ('A' for Active; 'I' for Inactive)
REMARK    1  A    between atoms: O1_2  and  C2_3 
REMARK    2  A    between atoms: C3_4  and  C4_5 
REMARK    3  A    between atoms: N1_6  and  N2_8 
REMARK       I    between atoms: C5_10  and  N4_12 
REMARK    4  A    between atoms: C8_17  and  C9_18 
REMARK    5  A    between atoms: C12_21  and  C13_22 
REMARK    6  A    between atoms: C13_22  and  N6_23 
REMARK       I    between atoms: N6_23  and  C14_25 
REMARK    7  A    between atoms: C17_30  and  C18_31 
REMARK    8  A    between atoms: C18_31  and  C19_32 
ROOT
HETATM    1  C2  UNL     1      35.304  40.244  -6.256  1.00  0.00     0.105 A 
HETATM    2  C3  UNL     1      35.439  41.543  -5.825  1.00  0.00     0.084 A 
HETATM    3  N5  UNL     1      34.784  42.332  -6.692  1.00  0.00    -0.352 N 
ATOM      4  H5  UNL     1      34.717  43.347  -6.618  1.00  0.00     0.166 HD
HETATM    5  C8  UNL     1      34.213  41.582  -7.695  1.00  0.00     0.052 A 
HETATM    6  C17 UNL     1      34.526  40.290  -7.442  1.00  0.00     0.009 A 
ENDROOT
BRANCH   5   7
HETATM    7  C9  UNL     1      33.486  42.213  -8.783  1.00  0.00    -0.009 A 
HETATM    8  C10 UNL     1      33.635  41.713 -10.092  1.00  0.00     0.014 A 
HETATM    9  C11 UNL     1      33.030  42.258 -11.194  1.00  0.00     0.013 A 
HETATM   10  C12 UNL     1      32.222  43.363 -11.028  1.00  0.00    -0.021 A 
HETATM   11  C15 UNL     1      32.065  43.866  -9.759  1.00  0.00     0.013 A 
HETATM   12  C16 UNL     1      32.686  43.305  -8.640  1.00  0.00     0.014 A 
BRANCH  10  13
HETATM   13  C13 UNL     1      31.570  43.960 -12.170  1.00  0.00     0.103 C 
BRANCH  13  14
HETATM   14  N6  UNL     1      31.714  45.207 -12.408  1.00  0.00    -0.321 N 
HETATM   15  C14 UNL     1      32.963  45.785 -12.757  1.00  0.00     0.332 C 
HETATM   16  N7  UNL     1      33.335  47.042 -12.213  1.00  0.00    -0.040 NA
HETATM   17  O2  UNL     1      33.746  45.175 -13.558  1.00  0.00    -0.251 OA
ATOM     18  H6  UNL     1      30.896  45.813 -12.345  1.00  0.00     0.169 HD
ENDBRANCH  13  14
ENDBRANCH  10  13
ENDBRANCH   5   7
BRANCH   6  19
HETATM   19  C18 UNL     1      34.183  39.092  -8.217  1.00  0.00     0.071 C 
BRANCH  19  20
HETATM   20  C19 UNL     1      35.238  38.631  -9.143  1.00  0.00    -0.020 C 
HETATM   21  C20 UNL     1      35.867  37.481  -9.108  1.00  0.00    -0.091 C 
HETATM   22  C21 UNL     1      36.923  37.111 -10.098  1.00  0.00     0.042 C 
HETATM   23  C22 UNL     1      35.563  36.474  -8.060  1.00  0.00     0.042 C 
ENDBRANCH  19  20
ENDBRANCH   6  19
BRANCH   2  24
HETATM   24  C4  UNL     1      36.163  42.005  -4.635  1.00  0.00     0.139 C 
HETATM   25  N1  UNL     1      36.134  41.332  -3.527  1.00  0.00    -0.307 N 
ATOM     26  H1  UNL     1      35.603  40.463  -3.466  1.00  0.00     0.186 HD
BRANCH  25  27
HETATM   27  N2  UNL     1      36.831  41.805  -2.429  1.00  0.00    -0.274 N 
HETATM   28  C5  UNL     1      36.245  42.467  -1.505  1.00  0.00     0.204 C 
HETATM   29  N3  UNL     1      34.852  42.736  -1.586  1.00  0.00    -0.062 NA
HETATM   30  N4  UNL     1      36.954  42.958  -0.373  1.00  0.00    -0.363 N 
HETATM   31  C6  UNL     1      37.382  44.342  -0.315  1.00  0.00     0.152 C 
HETATM   32  C7  UNL     1      37.254  42.071   0.734  1.00  0.00     0.152 C 
ATOM     33  H2  UNL     1      37.832  41.622  -2.355  1.00  0.00     0.189 HD
ENDBRANCH  25  27
ENDBRANCH   2  24
BRANCH   1  34
HETATM   34  O1  UNL     1      35.804  39.082  -5.691  1.00  0.00    -0.353 OA
HETATM   35  C1  UNL     1      37.235  38.958  -5.774  1.00  0.00     0.210 C 
ENDBRANCH   1  34
TORSDOF 8
ENDMDL
MODEL 3
REMARK VINA RESULT: -7.636253252      4.760      8.961
REMARK  8 active torsions:
REMARK  status: ('A' for Active; 'I' for Inactive)
REMARK    1  A    between atoms: O1_2  and  C2_3 
REMARK    2  A    between atoms: C3_4  and  C4_5 
REMARK    3  A    between atoms: N1_6  and  N2_8 
REMARK       I    between atoms: C5_10  and  N4_12 
REMARK    4  A    between atoms: C8_17  and  C9_18 
REMARK    5  A    between atoms: C12_21  and  C13_22 
REMARK    6  A    between atoms: C13_22  and  N6_23 
REMARK       I    between atoms: N6_23  and  C14_25 
REMARK    7  A    between atoms: C17_30  and  C18_31 
REMARK    8  A    between atoms: C18_31  and  C19_32 
ROOT
HETATM    1  C2  UNL     1      33.295  38.995 -11.440  1.00  0.00     0.105 A 
HETATM    2  C3  UNL     1      34.222  38.096 -10.965  1.00  0.00     0.084 A 
HETATM    3  N5  UNL     1      34.682  38.565  -9.793  1.00  0.00    -0.352 N 
ATOM      4  H5  UNL     1      35.382  38.099  -9.216  1.00  0.00     0.166 HD
HETATM    5  C8  UNL     1      34.079  39.760  -9.478  1.00  0.00     0.052 A 
HETATM    6  C17 UNL     1      33.220  40.042 -10.485  1.00  0.00     0.009 A 
ENDROOT
BRANCH   5   7
HETATM    7  C9  UNL     1      34.444  40.492  -8.277  1.00  0.00    -0.009 A 
HETATM    8  C10 UNL     1      35.197  39.845  -7.279  1.00  0.00     0.014 A 
HETATM    9  C11 UNL     1      35.558  40.427  -6.092  1.00  0.00     0.013 A 
HETATM   10  C12 UNL     1      35.168  41.726  -5.846  1.00  0.00    -0.021 A 
HETATM   11  C15 UNL     1      34.431  42.375  -6.808  1.00  0.00     0.013 A 
HETATM   12  C16 UNL     1      34.067  41.773  -8.015  1.00  0.00     0.014 A 
BRANCH  10  13
HETATM   13  C13 UNL     1      35.533  42.368  -4.605  1.00  0.00     0.103 C 
BRANCH  13  14
HETATM   14  N6  UNL     1      36.277  41.758  -3.765  1.00  0.00    -0.321 N 
HETATM   15  C14 UNL     1      37.512  42.285  -3.303  1.00  0.00     0.332 C 
HETATM   16  N7  UNL     1      38.631  41.427  -3.143  1.00  0.00    -0.040 NA
HETATM   17  O2  UNL     1      37.613  43.528  -3.033  1.00  0.00    -0.251 OA
ATOM     18  H6  UNL     1      35.970  40.852  -3.410  1.00  0.00     0.169 HD
ENDBRANCH  13  14
ENDBRANCH  10  13
ENDBRANCH   5   7
BRANCH   6  19
HETATM   19  C18 UNL     1      32.348  41.211 -10.652  1.00  0.00     0.071 C 
BRANCH  19  20
HETATM   20  C19 UNL     1      32.910  42.286 -11.495  1.00  0.00    -0.020 C 
HETATM   21  C20 UNL     1      32.845  43.577 -11.269  1.00  0.00    -0.091 C 
HETATM   22  C21 UNL     1      33.450  44.585 -12.190  1.00  0.00     0.042 C 
HETATM   23  C22 UNL     1      32.148  44.110 -10.073  1.00  0.00     0.042 C 
ENDBRANCH  19  20
ENDBRANCH   6  19
BRANCH   2  24
HETATM   24  C4  UNL     1      34.644  36.845 -11.605  1.00  0.00     0.139 C 
HETATM   25  N1  UNL     1      35.801  36.317 -11.352  1.00  0.00    -0.307 N 
ATOM     26  H1  UNL     1      36.440  36.768 -10.698  1.00  0.00     0.186 HD
BRANCH  25  27
HETATM   27  N2  UNL     1      36.158  35.136 -11.980  1.00  0.00    -0.274 N 
HETATM   28  C5  UNL     1      37.237  34.522 -11.675  1.00  0.00     0.204 C 
HETATM   29  N3  UNL     1      38.104  35.044 -10.676  1.00  0.00    -0.062 NA
HETATM   30  N4  UNL     1      37.612  33.308 -12.315  1.00  0.00    -0.363 N 
HETATM   31  C6  UNL     1      38.586  33.312 -13.390  1.00  0.00     0.152 C 
HETATM   32  C7  UNL     1      37.020  32.054 -11.893  1.00  0.00     0.152 C 
ATOM     33  H2  UNL     1      35.548  34.748 -12.700  1.00  0.00     0.189 HD
ENDBRANCH  25  27
ENDBRANCH   2  24
BRANCH   1  34
HETATM   34  O1  UNL     1      32.552  38.945 -12.609  1.00  0.00    -0.353 OA
HETATM   35  C1  UNL     1      31.355  38.154 -12.509  1.00  0.00     0.210 C 
ENDBRANCH   1  34
TORSDOF 8
ENDMDL
MODEL 4
REMARK VINA RESULT: -7.592793862      4.427      6.483
REMARK  8 active torsions:
REMARK  status: ('A' for Active; 'I' for Inactive)
REMARK    1  A    between atoms: O1_2  and  C2_3 
REMARK    2  A    between atoms: C3_4  and  C4_5 
REMARK    3  A    between atoms: N1_6  and  N2_8 
REMARK       I    between atoms: C5_10  and  N4_12 
REMARK    4  A    between atoms: C8_17  and  C9_18 
REMARK    5  A    between atoms: C12_21  and  C13_22 
REMARK    6  A    between atoms: C13_22  and  N6_23 
REMARK       I    between atoms: N6_23  and  C14_25 
REMARK    7  A    between atoms: C17_30  and  C18_31 
REMARK    8  A    between atoms: C18_31  and  C19_32 
ROOT
HETATM    1  C2  UNL     1      33.860  41.205  -8.158  1.00  0.00     0.105 A 
HETATM    2  C3  UNL     1      34.696  40.947  -7.097  1.00  0.00     0.084 A 
HETATM    3  N5  UNL     1      35.380  39.826  -7.379  1.00  0.00    -0.352 N 
ATOM      4  H5  UNL     1      36.075  39.400  -6.766  1.00  0.00     0.166 HD
HETATM    5  C8  UNL     1      35.015  39.332  -8.610  1.00  0.00     0.052 A 
HETATM    6  C17 UNL     1      34.076  40.170  -9.105  1.00  0.00     0.009 A 
ENDROOT
BRANCH   5   7
HETATM    7  C9  UNL     1      35.584  38.097  -9.122  1.00  0.00    -0.009 A 
HETATM    8  C10 UNL     1      36.688  38.156  -9.995  1.00  0.00     0.014 A 
HETATM    9  C11 UNL     1      37.274  37.058 -10.566  1.00  0.00     0.013 A 
HETATM   10  C12 UNL     1      36.763  35.810 -10.279  1.00  0.00    -0.021 A 
HETATM   11  C15 UNL     1      35.686  35.731  -9.430  1.00  0.00     0.013 A 
HETATM   12  C16 UNL     1      35.094  36.856  -8.852  1.00  0.00     0.014 A 
BRANCH  10  13
HETATM   13  C13 UNL     1      37.359  34.632 -10.866  1.00  0.00     0.103 C 
BRANCH  13  14
HETATM   14  N6  UNL     1      38.096  34.739 -11.903  1.00  0.00    -0.321 N 
HETATM   15  C14 UNL     1      38.096  33.780 -12.951  1.00  0.00     0.332 C 
HETATM   16  N7  UNL     1      39.320  33.395 -13.557  1.00  0.00    -0.040 NA
HETATM   17  O2  UNL     1      36.995  33.268 -13.346  1.00  0.00    -0.251 OA
ATOM     18  H6  UNL     1      38.713  35.547 -11.982  1.00  0.00     0.169 HD
ENDBRANCH  13  14
ENDBRANCH  10  13
ENDBRANCH   5   7
BRANCH   6  19
HETATM   19  C18 UNL     1      33.343  40.085 -10.374  1.00  0.00     0.071 C 
BRANCH  19  20
HETATM   20  C19 UNL     1      32.510  38.874 -10.527  1.00  0.00    -0.020 C 
HETATM   21  C20 UNL     1      32.680  37.908 -11.398  1.00  0.00    -0.091 C 
HETATM   22  C21 UNL     1      31.776  36.721 -11.468  1.00  0.00     0.042 C 
HETATM   23  C22 UNL     1      33.792  37.951 -12.380  1.00  0.00     0.042 C 
ENDBRANCH  19  20
ENDBRANCH   6  19
BRANCH   2  24
HETATM   24  C4  UNL     1      34.832  41.741  -5.870  1.00  0.00     0.139 C 
HETATM   25  N1  UNL     1      35.199  41.194  -4.754  1.00  0.00    -0.307 N 
ATOM     26  H1  UNL     1      35.401  40.195  -4.711  1.00  0.00     0.186 HD
BRANCH  25  27
HETATM   27  N2  UNL     1      35.315  41.981  -3.620  1.00  0.00    -0.274 N 
HETATM   28  C5  UNL     1      36.360  41.938  -2.886  1.00  0.00     0.204 C 
HETATM   29  N3  UNL     1      37.438  41.073  -3.218  1.00  0.00    -0.062 NA
HETATM   30  N4  UNL     1      36.487  42.743  -1.719  1.00  0.00    -0.363 N 
HETATM   31  C6  UNL     1      36.230  42.184  -0.406  1.00  0.00     0.152 C 
HETATM   32  C7  UNL     1      36.875  44.135  -1.838  1.00  0.00     0.152 C 
ATOM     33  H2  UNL     1      34.550  42.607  -3.367  1.00  0.00     0.189 HD
ENDBRANCH  25  27
ENDBRANCH   2  24
BRANCH   1  34
HETATM   34  O1  UNL     1      32.962  42.248  -8.327  1.00  0.00    -0.353 OA
HETATM   35  C1  UNL     1      33.297  43.140  -9.406  1.00  0.00     0.210 C 
ENDBRANCH   1  34
TORSDOF 8
ENDMDL
MODEL 5
REMARK VINA RESULT: -7.570192767      4.472      5.799
REMARK  8 active torsions:
REMARK  status: ('A' for Active; 'I' for Inactive)
REMARK    1  A    between atoms: O1_2  and  C2_3 
REMARK    2  A    between atoms: C3_4  and  C4_5 
REMARK    3  A    between atoms: N1_6  and  N2_8 
REMARK       I    between atoms: C5_10  and  N4_12 
REMARK    4  A    between atoms: C8_17  and  C9_18 
REMARK    5  A    between atoms: C12_21  and  C13_22 
REMARK    6  A    between atoms: C13_22  and  N6_23 
REMARK       I    between atoms: N6_23  and  C14_25 
REMARK    7  A    between atoms: C17_30  and  C18_31 
REMARK    8  A    between atoms: C18_31  and  C19_32 
ROOT
HETATM    1  C2  UNL     1      35.300  37.161  -7.833  1.00  0.00     0.105 A 
HETATM    2  C3  UNL     1      36.187  37.357  -8.865  1.00  0.00     0.084 A 
HETATM    3  N5  UNL     1      35.748  38.400  -9.589  1.00  0.00    -0.352 N 
ATOM      4  H5  UNL     1      36.214  38.769 -10.418  1.00  0.00     0.166 HD
HETATM    5  C8  UNL     1      34.584  38.904  -9.056  1.00  0.00     0.052 A 
HETATM    6  C17 UNL     1      34.292  38.149  -7.972  1.00  0.00     0.009 A 
ENDROOT
BRANCH   5   7
HETATM    7  C9  UNL     1      33.886  40.010  -9.688  1.00  0.00    -0.009 A 
HETATM    8  C10 UNL     1      33.353  39.841 -10.981  1.00  0.00     0.014 A 
HETATM    9  C11 UNL     1      32.715  40.829 -11.683  1.00  0.00     0.013 A 
HETATM   10  C12 UNL     1      32.579  42.072 -11.102  1.00  0.00    -0.021 A 
HETATM   11  C15 UNL     1      33.093  42.258  -9.842  1.00  0.00     0.013 A 
HETATM   12  C16 UNL     1      33.742  41.245  -9.133  1.00  0.00     0.014 A 
BRANCH  10  13
HETATM   13  C13 UNL     1      31.911  43.134 -11.817  1.00  0.00     0.103 C 
BRANCH  13  14
HETATM   14  N6  UNL     1      32.130  44.353 -11.502  1.00  0.00    -0.321 N 
HETATM   15  C14 UNL     1      32.397  45.362 -12.464  1.00  0.00     0.332 C 
HETATM   16  N7  UNL     1      33.393  46.339 -12.206  1.00  0.00    -0.040 NA
HETATM   17  O2  UNL     1      31.741  45.388 -13.558  1.00  0.00    -0.251 OA
ATOM     18  H6  UNL     1      32.113  44.612 -10.515  1.00  0.00     0.169 HD
ENDBRANCH  13  14
ENDBRANCH  10  13
ENDBRANCH   5   7
BRANCH   6  19
HETATM   19  C18 UNL     1      33.145  38.251  -7.062  1.00  0.00     0.071 C 
BRANCH  19  20
HETATM   20  C19 UNL     1      32.147  37.169  -7.201  1.00  0.00    -0.020 C 
HETATM   21  C20 UNL     1      31.126  37.143  -8.023  1.00  0.00    -0.091 C 
HETATM   22  C21 UNL     1      30.173  35.995  -8.085  1.00  0.00     0.042 C 
HETATM   23  C22 UNL     1      30.855  38.276  -8.943  1.00  0.00     0.042 C 
ENDBRANCH  19  20
ENDBRANCH   6  19
BRANCH   2  24
HETATM   24  C4  UNL     1      37.401  36.580  -9.144  1.00  0.00     0.139 C 
HETATM   25  N1  UNL     1      38.195  36.209  -8.190  1.00  0.00    -0.307 N 
ATOM     26  H1  UNL     1      37.987  36.454  -7.222  1.00  0.00     0.186 HD
BRANCH  25  27
HETATM   27  N2  UNL     1      39.329  35.477  -8.498  1.00  0.00    -0.274 N 
HETATM   28  C5  UNL     1      39.861  34.686  -7.647  1.00  0.00     0.204 C 
HETATM   29  N3  UNL     1      39.297  34.539  -6.350  1.00  0.00    -0.062 NA
HETATM   30  N4  UNL     1      41.027  33.931  -7.955  1.00  0.00    -0.363 N 
HETATM   31  C6  UNL     1      42.333  34.377  -7.512  1.00  0.00     0.152 C 
HETATM   32  C7  UNL     1      40.914  32.704  -8.719  1.00  0.00     0.152 C 
ATOM     33  H2  UNL     1      39.748  35.571  -9.424  1.00  0.00     0.189 HD
ENDBRANCH  25  27
ENDBRANCH   2  24
BRANCH   1  34
HETATM   34  O1  UNL     1      35.330  36.206  -6.828  1.00  0.00    -0.353 OA
HETATM   35  C1  UNL     1      34.905  34.898  -7.249  1.00  0.00     0.210 C 
ENDBRANCH   1  34
TORSDOF 8
ENDMDL
