MODEL 1
REMARK VINA RESULT: -7.165257474      0.000      0.000
REMARK  8 active torsions:
REMARK  status: ('A' for Active; 'I' for Inactive)
REMARK    1  A    between atoms: C2_2  and  N1_3 
REMARK       I    between atoms: N1_3  and  C3_5 
REMARK    2  A    between atoms: C3_5  and  C4_7 
REMARK    3  A    between atoms: C5_8  and  C6_9 
REMARK    4  A    between atoms: C11_14  and  C12_15 
REMARK    5  A    between atoms: C12_15  and  C13_16 
REMARK    6  A    between atoms: C13_16  and  C14_17 
REMARK    7  A    between atoms: C14_17  and  C15_18 
REMARK    8  A    between atoms: C15_18  and  N2_19 
ROOT
HETATM    1  C4  UNL     1      31.666  39.007  -9.307  1.00  0.00     0.022 C 
HETATM    2  C5  UNL     1      31.422  40.341  -9.748  1.00  0.00    -0.043 C 
HETATM    3  C16 UNL     1      29.971  40.316 -10.287  1.00  0.00     0.045 C 
HETATM    4  C17 UNL     1      29.559  38.903 -10.420  1.00  0.00     0.001 C 
HETATM    5  C18 UNL     1      29.686  38.296 -11.800  1.00  0.00     0.025 C 
HETATM    6  C19 UNL     1      30.922  37.546 -11.291  1.00  0.00     0.102 C 
HETATM    7  C20 UNL     1      30.719  36.110 -11.507  1.00  0.00     0.064 C 
HETATM    8  N3  UNL     1      30.566  34.972 -11.672  1.00  0.00    -0.197 NA
HETATM    9  C21 UNL     1      30.661  38.047  -9.934  1.00  0.00     0.046 C 
ENDROOT
BRANCH   1  10
HETATM   10  C3  UNL     1      32.992  38.406  -9.201  1.00  0.00     0.249 C 
HETATM   11  N1  UNL     1      33.178  37.335  -8.296  1.00  0.00    -0.339 N 
ATOM     12  H1  UNL     1      32.381  37.016  -7.746  1.00  0.00     0.164 HD
HETATM   13  O1  UNL     1      33.963  38.774  -9.854  1.00  0.00    -0.268 OA
BRANCH  11  14
HETATM   14  C2  UNL     1      34.443  36.676  -8.119  1.00  0.00     0.112 C 
HETATM   15  C1  UNL     1      34.321  35.411  -7.294  1.00  0.00     0.049 C 
HETATM   16  C22 UNL     1      35.095  36.291  -9.423  1.00  0.00     0.060 C 
HETATM   17  C23 UNL     1      36.539  36.106  -9.001  1.00  0.00     0.125 C 
HETATM   18  N4  UNL     1      36.697  37.207  -8.043  1.00  0.00    -0.359 N 
HETATM   19  C24 UNL     1      35.435  37.542  -7.501  1.00  0.00     0.245 C 
ATOM     20  H4  UNL     1      37.580  37.661  -7.805  1.00  0.00     0.162 HD
HETATM   21  O2  UNL     1      35.225  38.423  -6.647  1.00  0.00    -0.271 OA
ENDBRANCH  11  14
ENDBRANCH   1  10
BRANCH   2  22
HETATM   22  C6  UNL     1      32.226  41.233 -10.566  1.00  0.00    -0.069 C 
HETATM   23  C7  UNL     1      32.723  40.889 -11.905  1.00  0.00     0.035 C 
HETATM   24  C8  UNL     1      32.814  42.156 -12.758  1.00  0.00     0.004 C 
HETATM   25  C9  UNL     1      32.721  43.414 -11.992  1.00  0.00     0.001 C 
HETATM   26  C10 UNL     1      33.343  43.436 -10.643  1.00  0.00     0.009 C 
HETATM   27  C11 UNL     1      33.305  42.065  -9.928  1.00  0.00     0.015 C 
BRANCH  27  28
HETATM   28  C12 UNL     1      33.129  42.289  -8.457  1.00  0.00     0.009 C 
BRANCH  28  29
HETATM   29  C13 UNL     1      34.304  41.689  -7.743  1.00  0.00     0.002 C 
BRANCH  29  30
HETATM   30  C14 UNL     1      34.449  42.399  -6.413  1.00  0.00     0.027 C 
BRANCH  30  31
HETATM   31  C15 UNL     1      35.593  41.835  -5.603  1.00  0.00     0.229 C 
BRANCH  31  32
HETATM   32  N2  UNL     1      35.206  41.737  -4.212  1.00  0.00    -0.079 N 
ATOM     33  H23 UNL     1      36.008  41.587  -3.599  1.00  0.00     0.274 HD
ATOM     34  H22 UNL     1      34.898  42.634  -3.835  1.00  0.00     0.274 HD
ATOM     35  H21 UNL     1      34.498  41.011  -4.101  1.00  0.00     0.274 HD
ENDBRANCH  31  32
ENDBRANCH  30  31
ENDBRANCH  29  30
ENDBRANCH  28  29
ENDBRANCH  27  28
ENDBRANCH   2  22
TORSDOF 8
ENDMDL
MODEL 2
REMARK VINA RESULT: -7.012063897      0.969      1.229
REMARK  8 active torsions:
REMARK  status: ('A' for Active; 'I' for Inactive)
REMARK    1  A    between atoms: C2_2  and  N1_3 
REMARK       I    between atoms: N1_3  and  C3_5 
REMARK    2  A    between atoms: C3_5  and  C4_7 
REMARK    3  A    between atoms: C5_8  and  C6_9 
REMARK    4  A    between atoms: C11_14  and  C12_15 
REMARK    5  A    between atoms: C12_15  and  C13_16 
REMARK    6  A    between atoms: C13_16  and  C14_17 
REMARK    7  A    between atoms: C14_17  and  C15_18 
REMARK    8  A    between atoms: C15_18  and  N2_19 
ROOT
HETATM    1  C4  UNL     1      32.078  39.020  -9.196  1.00  0.00     0.022 C 
HETATM    2  C5  UNL     1      31.700  40.337  -9.589  1.00  0.00    -0.043 C 
HETATM    3  C16 UNL     1      30.223  40.204 -10.034  1.00  0.00     0.045 C 
HETATM    4  C17 UNL     1      29.917  38.765 -10.174  1.00  0.00     0.001 C 
HETATM    5  C18 UNL     1      30.002  38.196 -11.573  1.00  0.00     0.025 C 
HETATM    6  C19 UNL     1      31.324  37.540 -11.163  1.00  0.00     0.102 C 
HETATM    7  C20 UNL     1      31.223  36.096 -11.399  1.00  0.00     0.064 C 
HETATM    8  N3  UNL     1      31.151  34.953 -11.581  1.00  0.00    -0.197 NA
HETATM    9  C21 UNL     1      31.114  37.992  -9.779  1.00  0.00     0.046 C 
ENDROOT
BRANCH   1  10
HETATM   10  C3  UNL     1      33.451  38.526  -9.189  1.00  0.00     0.249 C 
HETATM   11  N1  UNL     1      33.752  37.373  -8.426  1.00  0.00    -0.339 N 
ATOM     12  H1  UNL     1      33.000  36.922  -7.905  1.00  0.00     0.164 HD
HETATM   13  O1  UNL     1      34.370  39.052  -9.809  1.00  0.00    -0.268 OA
BRANCH  11  14
HETATM   14  C2  UNL     1      35.071  36.808  -8.355  1.00  0.00     0.112 C 
HETATM   15  C1  UNL     1      35.638  36.494  -9.725  1.00  0.00     0.049 C 
HETATM   16  C22 UNL     1      36.062  37.712  -7.664  1.00  0.00     0.060 C 
HETATM   17  C23 UNL     1      37.156  36.734  -7.285  1.00  0.00     0.125 C 
HETATM   18  N4  UNL     1      36.364  35.563  -6.890  1.00  0.00    -0.359 N 
HETATM   19  C24 UNL     1      35.113  35.601  -7.546  1.00  0.00     0.245 C 
ATOM     20  H4  UNL     1      36.669  34.835  -6.243  1.00  0.00     0.162 HD
HETATM   21  O2  UNL     1      34.214  34.744  -7.439  1.00  0.00    -0.271 OA
ENDBRANCH  11  14
ENDBRANCH   1  10
BRANCH   2  22
HETATM   22  C6  UNL     1      32.375  41.307 -10.434  1.00  0.00    -0.069 C 
HETATM   23  C7  UNL     1      32.839  41.018 -11.798  1.00  0.00     0.035 C 
HETATM   24  C8  UNL     1      32.768  42.292 -12.642  1.00  0.00     0.004 C 
HETATM   25  C9  UNL     1      32.590  43.532 -11.862  1.00  0.00     0.001 C 
HETATM   26  C10 UNL     1      33.269  43.608 -10.543  1.00  0.00     0.009 C 
HETATM   27  C11 UNL     1      33.396  42.236  -9.839  1.00  0.00     0.015 C 
BRANCH  27  28
HETATM   28  C12 UNL     1      33.268  42.435  -8.360  1.00  0.00     0.009 C 
BRANCH  28  29
HETATM   29  C13 UNL     1      34.498  41.884  -7.700  1.00  0.00     0.002 C 
BRANCH  29  30
HETATM   30  C14 UNL     1      34.550  42.430  -6.288  1.00  0.00     0.027 C 
BRANCH  30  31
HETATM   31  C15 UNL     1      35.628  41.757  -5.471  1.00  0.00     0.229 C 
BRANCH  31  32
HETATM   32  N2  UNL     1      35.235  41.719  -4.078  1.00  0.00    -0.079 N 
ATOM     33  H23 UNL     1      34.229  41.590  -3.967  1.00  0.00     0.274 HD
ATOM     34  H22 UNL     1      35.546  40.866  -3.614  1.00  0.00     0.274 HD
ATOM     35  H21 UNL     1      35.569  42.558  -3.603  1.00  0.00     0.274 HD
ENDBRANCH  31  32
ENDBRANCH  30  31
ENDBRANCH  29  30
ENDBRANCH  28  29
ENDBRANCH  27  28
ENDBRANCH   2  22
TORSDOF 8
ENDMDL
MODEL 3
REMARK VINA RESULT: -6.729198192      1.688      2.392
REMARK  8 active torsions:
REMARK  status: ('A' for Active; 'I' for Inactive)
REMARK    1  A    between atoms: C2_2  and  N1_3 
REMARK       I    between atoms: N1_3  and  C3_5 
REMARK    2  A    between atoms: C3_5  and  C4_7 
REMARK    3  A    between atoms: C5_8  and  C6_9 
REMARK    4  A    between atoms: C11_14  and  C12_15 
REMARK    5  A    between atoms: C12_15  and  C13_16 
REMARK    6  A    between atoms: C13_16  and  C14_17 
REMARK    7  A    between atoms: C14_17  and  C15_18 
REMARK    8  A    between atoms: C15_18  and  N2_19 
ROOT
HETATM    1  C4  UNL     1      32.024  38.231  -7.996  1.00  0.00     0.022 C 
HETATM    2  C5  UNL     1      31.587  39.020  -9.100  1.00  0.00    -0.043 C 
HETATM    3  C16 UNL     1      30.263  38.357  -9.554  1.00  0.00     0.045 C 
HETATM    4  C17 UNL     1      30.164  37.039  -8.894  1.00  0.00     0.001 C 
HETATM    5  C18 UNL     1      30.609  35.846  -9.712  1.00  0.00     0.025 C 
HETATM    6  C19 UNL     1      31.882  35.811  -8.860  1.00  0.00     0.102 C 
HETATM    7  C20 UNL     1      32.002  34.481  -8.254  1.00  0.00     0.064 C 
HETATM    8  N3  UNL     1      32.104  33.432  -7.768  1.00  0.00    -0.197 NA
HETATM    9  C21 UNL     1      31.332  36.873  -8.004  1.00  0.00     0.046 C 
ENDROOT
BRANCH   1  10
HETATM   10  C3  UNL     1      33.413  38.125  -7.560  1.00  0.00     0.249 C 
HETATM   11  N1  UNL     1      34.345  37.496  -8.419  1.00  0.00    -0.339 N 
ATOM     12  H1  UNL     1      34.018  37.136  -9.314  1.00  0.00     0.164 HD
HETATM   13  O1  UNL     1      33.828  38.553  -6.487  1.00  0.00    -0.268 OA
BRANCH  11  14
HETATM   14  C2  UNL     1      35.734  37.342  -8.082  1.00  0.00     0.112 C 
HETATM   15  C1  UNL     1      36.213  38.407  -7.116  1.00  0.00     0.049 C 
HETATM   16  C22 UNL     1      36.044  36.006  -7.455  1.00  0.00     0.060 C 
HETATM   17  C23 UNL     1      37.542  35.908  -7.668  1.00  0.00     0.125 C 
HETATM   18  N4  UNL     1      37.675  36.483  -9.012  1.00  0.00    -0.359 N 
HETATM   19  C24 UNL     1      36.592  37.359  -9.256  1.00  0.00     0.245 C 
ATOM     20  H4  UNL     1      38.431  36.283  -9.668  1.00  0.00     0.162 HD
HETATM   21  O2  UNL     1      36.417  38.020 -10.297  1.00  0.00    -0.271 OA
ENDBRANCH  11  14
ENDBRANCH   1  10
BRANCH   2  22
HETATM   22  C6  UNL     1      32.308  39.509 -10.263  1.00  0.00    -0.069 C 
HETATM   23  C7  UNL     1      32.996  38.636 -11.223  1.00  0.00     0.035 C 
HETATM   24  C8  UNL     1      32.958  39.274 -12.613  1.00  0.00     0.004 C 
HETATM   25  C9  UNL     1      32.569  40.697 -12.620  1.00  0.00     0.001 C 
HETATM   26  C10 UNL     1      33.029  41.533 -11.481  1.00  0.00     0.009 C 
HETATM   27  C11 UNL     1      33.152  40.748 -10.154  1.00  0.00     0.015 C 
BRANCH  27  28
HETATM   28  C12 UNL     1      32.784  41.653  -9.019  1.00  0.00     0.009 C 
BRANCH  28  29
HETATM   29  C13 UNL     1      34.047  42.163  -8.391  1.00  0.00     0.002 C 
BRANCH  29  30
HETATM   30  C14 UNL     1      33.872  42.110  -6.888  1.00  0.00     0.027 C 
BRANCH  30  31
HETATM   31  C15 UNL     1      35.198  41.973  -6.176  1.00  0.00     0.229 C 
BRANCH  31  32
HETATM   32  N2  UNL     1      35.061  41.070  -5.054  1.00  0.00    -0.079 N 
ATOM     33  H23 UNL     1      35.383  40.128  -5.277  1.00  0.00     0.274 HD
ATOM     34  H22 UNL     1      35.725  41.281  -4.308  1.00  0.00     0.274 HD
ATOM     35  H21 UNL     1      34.096  41.077  -4.722  1.00  0.00     0.274 HD
ENDBRANCH  31  32
ENDBRANCH  30  31
ENDBRANCH  29  30
ENDBRANCH  28  29
ENDBRANCH  27  28
ENDBRANCH   2  22
TORSDOF 8
ENDMDL
MODEL 4
REMARK VINA RESULT: -6.447182175      9.499     11.864
REMARK  8 active torsions:
REMARK  status: ('A' for Active; 'I' for Inactive)
REMARK    1  A    between atoms: C2_2  and  N1_3 
REMARK       I    between atoms: N1_3  and  C3_5 
REMARK    2  A    between atoms: C3_5  and  C4_7 
REMARK    3  A    between atoms: C5_8  and  C6_9 
REMARK    4  A    between atoms: C11_14  and  C12_15 
REMARK    5  A    between atoms: C12_15  and  C13_16 
REMARK    6  A    between atoms: C13_16  and  C14_17 
REMARK    7  A    between atoms: C14_17  and  C15_18 
REMARK    8  A    between atoms: C15_18  and  N2_19 
ROOT
HETATM    1  C4  UNL     1      41.410  35.168  -3.549  1.00  0.00     0.022 C 
HETATM    2  C5  UNL     1      40.094  35.700  -3.406  1.00  0.00    -0.043 C 
HETATM    3  C16 UNL     1      39.385  35.351  -4.738  1.00  0.00     0.045 C 
HETATM    4  C17 UNL     1      40.416  34.914  -5.702  1.00  0.00     0.001 C 
HETATM    5  C18 UNL     1      40.911  35.964  -6.673  1.00  0.00     0.025 C 
HETATM    6  C19 UNL     1      42.195  36.044  -5.839  1.00  0.00     0.102 C 
HETATM    7  C20 UNL     1      43.339  35.782  -6.717  1.00  0.00     0.064 C 
HETATM    8  N3  UNL     1      44.252  35.573  -7.403  1.00  0.00    -0.197 NA
HETATM    9  C21 UNL     1      41.726  34.916  -5.019  1.00  0.00     0.046 C 
ENDROOT
BRANCH   1  10
HETATM   10  C3  UNL     1      42.577  35.658  -2.823  1.00  0.00     0.249 C 
HETATM   11  N1  UNL     1      43.072  36.948  -3.128  1.00  0.00    -0.339 N 
ATOM     12  H1  UNL     1      42.597  37.496  -3.845  1.00  0.00     0.164 HD
HETATM   13  O1  UNL     1      43.162  35.015  -1.956  1.00  0.00    -0.268 OA
BRANCH  11  14
HETATM   14  C2  UNL     1      44.214  37.520  -2.470  1.00  0.00     0.112 C 
HETATM   15  C1  UNL     1      44.228  37.226  -0.983  1.00  0.00     0.049 C 
HETATM   16  C22 UNL     1      45.525  37.027  -3.030  1.00  0.00     0.060 C 
HETATM   17  C23 UNL     1      46.485  38.099  -2.553  1.00  0.00     0.125 C 
HETATM   18  N4  UNL     1      45.668  39.307  -2.725  1.00  0.00    -0.359 N 
HETATM   19  C24 UNL     1      44.299  38.959  -2.661  1.00  0.00     0.245 C 
ATOM     20  H4  UNL     1      46.030  40.249  -2.868  1.00  0.00     0.162 HD
HETATM   21  O2  UNL     1      43.346  39.755  -2.753  1.00  0.00    -0.271 OA
ENDBRANCH  11  14
ENDBRANCH   1  10
BRANCH   2  22
HETATM   22  C6  UNL     1      39.640  37.000  -2.943  1.00  0.00    -0.069 C 
HETATM   23  C7  UNL     1      40.186  38.276  -3.425  1.00  0.00     0.035 C 
HETATM   24  C8  UNL     1      39.092  39.344  -3.393  1.00  0.00     0.004 C 
HETATM   25  C9  UNL     1      37.899  38.973  -2.608  1.00  0.00     0.001 C 
HETATM   26  C10 UNL     1      38.118  38.163  -1.382  1.00  0.00     0.009 C 
HETATM   27  C11 UNL     1      39.331  37.209  -1.486  1.00  0.00     0.015 C 
BRANCH  27  28
HETATM   28  C12 UNL     1      39.028  35.952  -0.729  1.00  0.00     0.009 C 
BRANCH  28  29
HETATM   29  C13 UNL     1      40.143  35.705   0.243  1.00  0.00     0.002 C 
BRANCH  29  30
HETATM   30  C14 UNL     1      40.445  34.220   0.233  1.00  0.00     0.027 C 
BRANCH  30  31
HETATM   31  C15 UNL     1      41.605  33.882   1.141  1.00  0.00     0.229 C 
BRANCH  31  32
HETATM   32  N2  UNL     1      42.556  34.974   1.147  1.00  0.00    -0.079 N 
ATOM     33  H23 UNL     1      43.482  34.675   1.453  1.00  0.00     0.274 HD
ATOM     34  H22 UNL     1      42.802  35.274   0.203  1.00  0.00     0.274 HD
ATOM     35  H21 UNL     1      42.194  35.742   1.712  1.00  0.00     0.274 HD
ENDBRANCH  31  32
ENDBRANCH  30  31
ENDBRANCH  29  30
ENDBRANCH  28  29
ENDBRANCH  27  28
ENDBRANCH   2  22
TORSDOF 8
ENDMDL
MODEL 5
REMARK VINA RESULT: -6.337650489      2.394      3.425
REMARK  8 active torsions:
REMARK  status: ('A' for Active; 'I' for Inactive)
REMARK    1  A    between atoms: C2_2  and  N1_3 
REMARK       I    between atoms: N1_3  and  C3_5 
REMARK    2  A    between atoms: C3_5  and  C4_7 
REMARK    3  A    between atoms: C5_8  and  C6_9 
REMARK    4  A    between atoms: C11_14  and  C12_15 
REMARK    5  A    between atoms: C12_15  and  C13_16 
REMARK    6  A    between atoms: C13_16  and  C14_17 
REMARK    7  A    between atoms: C14_17  and  C15_18 
REMARK    8  A    between atoms: C15_18  and  N2_19 
ROOT
HETATM    1  C4  UNL     1      32.107  38.974  -8.513  1.00  0.00     0.022 C 
HETATM    2  C5  UNL     1      31.645  39.610  -9.703  1.00  0.00    -0.043 C 
HETATM    3  C16 UNL     1      30.256  38.981  -9.969  1.00  0.00     0.045 C 
HETATM    4  C17 UNL     1      30.120  37.792  -9.101  1.00  0.00     0.001 C 
HETATM    5  C18 UNL     1      30.434  36.458  -9.742  1.00  0.00     0.025 C 
HETATM    6  C19 UNL     1      31.758  36.465  -8.969  1.00  0.00     0.102 C 
HETATM    7  C20 UNL     1      31.836  35.241  -8.166  1.00  0.00     0.064 C 
HETATM    8  N3  UNL     1      31.907  34.276  -7.526  1.00  0.00    -0.197 NA
HETATM    9  C21 UNL     1      31.334  37.684  -8.264  1.00  0.00     0.046 C 
ENDROOT
BRANCH   1  10
HETATM   10  C3  UNL     1      33.513  38.838  -8.147  1.00  0.00     0.249 C 
HETATM   11  N1  UNL     1      34.131  37.573  -8.291  1.00  0.00    -0.339 N 
ATOM     12  H1  UNL     1      33.574  36.796  -8.646  1.00  0.00     0.164 HD
HETATM   13  O1  UNL     1      34.201  39.760  -7.719  1.00  0.00    -0.268 OA
BRANCH  11  14
HETATM   14  C2  UNL     1      35.508  37.337  -7.958  1.00  0.00     0.112 C 
HETATM   15  C1  UNL     1      36.020  38.301  -6.907  1.00  0.00     0.049 C 
HETATM   16  C22 UNL     1      35.759  35.943  -7.437  1.00  0.00     0.060 C 
HETATM   17  C23 UNL     1      37.253  35.801  -7.647  1.00  0.00     0.125 C 
HETATM   18  N4  UNL     1      37.423  36.476  -8.940  1.00  0.00    -0.359 N 
HETATM   19  C24 UNL     1      36.379  37.411  -9.121  1.00  0.00     0.245 C 
ATOM     20  H4  UNL     1      38.177  36.298  -9.604  1.00  0.00     0.162 HD
HETATM   21  O2  UNL     1      36.241  38.159 -10.107  1.00  0.00    -0.271 OA
ENDBRANCH  11  14
ENDBRANCH   1  10
BRANCH   2  22
HETATM   22  C6  UNL     1      32.314  39.859 -10.969  1.00  0.00    -0.069 C 
HETATM   23  C7  UNL     1      33.103  38.850 -11.688  1.00  0.00     0.035 C 
HETATM   24  C8  UNL     1      33.003  39.099 -13.193  1.00  0.00     0.004 C 
HETATM   25  C9  UNL     1      32.455  40.420 -13.557  1.00  0.00     0.001 C 
HETATM   26  C10 UNL     1      32.811  41.568 -12.683  1.00  0.00     0.009 C 
HETATM   27  C11 UNL     1      33.012  41.170 -11.202  1.00  0.00     0.015 C 
BRANCH  27  28
HETATM   28  C12 UNL     1      32.537  42.291 -10.329  1.00  0.00     0.009 C 
BRANCH  28  29
HETATM   29  C13 UNL     1      33.301  43.530 -10.691  1.00  0.00     0.002 C 
BRANCH  29  30
HETATM   30  C14 UNL     1      32.297  44.604 -11.055  1.00  0.00     0.027 C 
BRANCH  30  31
HETATM   31  C15 UNL     1      32.692  45.329 -12.321  1.00  0.00     0.229 C 
BRANCH  31  32
HETATM   32  N2  UNL     1      32.487  46.752 -12.153  1.00  0.00    -0.079 N 
ATOM     33  H23 UNL     1      32.732  47.277 -12.993  1.00  0.00     0.274 HD
ATOM     34  H22 UNL     1      31.497  46.995 -12.110  1.00  0.00     0.274 HD
ATOM     35  H21 UNL     1      32.998  47.080 -11.334  1.00  0.00     0.274 HD
ENDBRANCH  31  32
ENDBRANCH  30  31
ENDBRANCH  29  30
ENDBRANCH  28  29
ENDBRANCH  27  28
ENDBRANCH   2  22
TORSDOF 8
ENDMDL
