MODEL 1
REMARK VINA RESULT: -7.402091832      0.000      0.000
REMARK  11 active torsions:
REMARK  status: ('A' for Active; 'I' for Inactive)
REMARK    1  A    between atoms: C2_2  and  C3_3 
REMARK    2  A    between atoms: C3_3  and  N1_4 
REMARK    3  A    between atoms: N1_4  and  C4_5 
REMARK    4  A    between atoms: N1_4  and  C6_7 
REMARK    5  A    between atoms: C6_7  and  O1_8 
REMARK    6  A    between atoms: C6_7  and  N2_10 
REMARK    7  A    between atoms: N2_10  and  C7_11 
REMARK    8  A    between atoms: N2_10  and  C11_15 
REMARK    9  A    between atoms: C7_11  and  C8_12 
REMARK   10  A    between atoms: C8_12  and  C9_13 
REMARK   11  A    between atoms: C13_17  and  C14_18 
ROOT
HETATM    1  C11 UNL     1      35.848  41.407  -4.994  1.00  0.00     0.111 A 
HETATM    2  C12 UNL     1      35.911  40.401  -5.927  1.00  0.00     0.062 A 
HETATM    3  C13 UNL     1      34.995  40.691  -6.945  1.00  0.00    -0.009 A 
HETATM    4  C19 UNL     1      34.394  41.881  -6.596  1.00  0.00     0.017 A 
HETATM    5  C20 UNL     1      33.344  42.615  -7.390  1.00  0.00     0.069 C 
HETATM    6  N5  UNL     1      34.931  42.274  -5.427  1.00  0.00    -0.345 N 
ATOM      7  H5  UNL     1      34.670  43.128  -4.934  1.00  0.00     0.167 HD
ENDROOT
BRANCH   1   8
HETATM    8  N2  UNL     1      36.645  41.499  -3.752  1.00  0.00    -0.299 N 
BRANCH   8   9
HETATM    9  C6  UNL     1      36.076  42.042  -2.619  1.00  0.00     0.223 C 
BRANCH   9  10
HETATM   10  N1  UNL     1      36.571  42.845  -1.623  1.00  0.00    -0.344 N 
BRANCH  10  11
HETATM   11  C3  UNL     1      37.438  42.584  -0.514  1.00  0.00     0.153 C 
BRANCH  11  12
HETATM   12  C2  UNL     1      36.626  41.970   0.567  1.00  0.00    -0.017 C 
HETATM   13  C1  UNL     1      36.979  42.097   1.824  1.00  0.00     0.008 C 
ENDBRANCH  11  12
ENDBRANCH  10  11
BRANCH  10  14
HETATM   14  C4  UNL     1      36.127  44.283  -1.688  1.00  0.00     0.122 C 
HETATM   15  C5  UNL     1      37.210  45.101  -1.035  1.00  0.00     0.026 C 
ENDBRANCH  10  14
ENDBRANCH   9  10
BRANCH   9  16
HETATM   16  O1  UNL     1      34.806  41.720  -2.470  1.00  0.00    -0.332 OA
ATOM     17  H1  UNL     1      34.645  41.082  -1.785  1.00  0.00     0.221 HD
ENDBRANCH   9  16
ENDBRANCH   8   9
BRANCH   8  18
HETATM   18  C7  UNL     1      37.961  41.008  -3.901  1.00  0.00     0.134 C 
BRANCH  18  19
HETATM   19  C8  UNL     1      38.166  39.724  -3.081  1.00  0.00     0.020 C 
BRANCH  19  20
HETATM   20  C9  UNL     1      39.300  38.964  -3.724  1.00  0.00    -0.003 C 
HETATM   21  C10 UNL     1      38.753  38.181  -4.905  1.00  0.00     0.005 C 
ENDBRANCH  19  20
ENDBRANCH  18  19
ENDBRANCH   8  18
ENDBRANCH   1   8
BRANCH   3  22
HETATM   22  C14 UNL     1      34.782  39.886  -8.134  1.00  0.00     0.036 C 
HETATM   23  C15 UNL     1      33.992  38.844  -8.240  1.00  0.00     0.101 A 
HETATM   24  C16 UNL     1      33.218  38.368  -7.120  1.00  0.00     0.263 A 
HETATM   25  C18 UNL     1      33.855  38.140  -9.507  1.00  0.00     0.263 A 
HETATM   26  O2  UNL     1      33.242  38.876  -5.975  1.00  0.00    -0.267 OA
HETATM   27  N3  UNL     1      32.344  37.230  -7.270  1.00  0.00    -0.299 N 
HETATM   28  C17 UNL     1      32.232  36.568  -8.514  1.00  0.00     0.181 A 
ATOM     29  H3  UNL     1      31.801  36.901  -6.472  1.00  0.00     0.171 HD
HETATM   30  S1  UNL     1      31.236  35.274  -8.679  1.00  0.00    -0.040 SA
HETATM   31  N4  UNL     1      32.975  37.005  -9.635  1.00  0.00    -0.299 N 
ATOM     32  H4  UNL     1      32.888  36.521 -10.529  1.00  0.00     0.171 HD
HETATM   33  O3  UNL     1      34.504  38.518 -10.497  1.00  0.00    -0.267 OA
ENDBRANCH   3  22
TORSDOF 11
ENDMDL
MODEL 2
REMARK VINA RESULT: -7.337181403      4.312      7.174
REMARK  11 active torsions:
REMARK  status: ('A' for Active; 'I' for Inactive)
REMARK    1  A    between atoms: C2_2  and  C3_3 
REMARK    2  A    between atoms: C3_3  and  N1_4 
REMARK    3  A    between atoms: N1_4  and  C4_5 
REMARK    4  A    between atoms: N1_4  and  C6_7 
REMARK    5  A    between atoms: C6_7  and  O1_8 
REMARK    6  A    between atoms: C6_7  and  N2_10 
REMARK    7  A    between atoms: N2_10  and  C7_11 
REMARK    8  A    between atoms: N2_10  and  C11_15 
REMARK    9  A    between atoms: C7_11  and  C8_12 
REMARK   10  A    between atoms: C8_12  and  C9_13 
REMARK   11  A    between atoms: C13_17  and  C14_18 
ROOT
HETATM    1  C11 UNL     1      37.325  40.319  -3.763  1.00  0.00     0.111 A 
HETATM    2  C12 UNL     1      38.018  39.692  -2.756  1.00  0.00     0.062 A 
HETATM    3  C13 UNL     1      38.484  38.466  -3.246  1.00  0.00    -0.009 A 
HETATM    4  C19 UNL     1      38.056  38.383  -4.552  1.00  0.00     0.017 A 
HETATM    5  C20 UNL     1      38.326  37.250  -5.508  1.00  0.00     0.069 C 
HETATM    6  N5  UNL     1      37.369  39.508  -4.821  1.00  0.00    -0.345 N 
ATOM      7  H5  UNL     1      36.935  39.714  -5.721  1.00  0.00     0.167 HD
ENDROOT
BRANCH   1   8
HETATM    8  N2  UNL     1      36.660  41.637  -3.677  1.00  0.00    -0.299 N 
BRANCH   8   9
HETATM    9  C6  UNL     1      36.154  42.065  -2.468  1.00  0.00     0.223 C 
BRANCH   9  10
HETATM   10  N1  UNL     1      36.658  42.877  -1.484  1.00  0.00    -0.344 N 
BRANCH  10  11
HETATM   11  C3  UNL     1      37.533  42.625  -0.378  1.00  0.00     0.153 C 
BRANCH  11  12
HETATM   12  C2  UNL     1      36.725  42.035   0.718  1.00  0.00    -0.017 C 
HETATM   13  C1  UNL     1      37.119  42.129   1.966  1.00  0.00     0.008 C 
ENDBRANCH  11  12
ENDBRANCH  10  11
BRANCH  10  14
HETATM   14  C4  UNL     1      36.218  44.316  -1.561  1.00  0.00     0.122 C 
HETATM   15  C5  UNL     1      37.319  45.140  -0.947  1.00  0.00     0.026 C 
ENDBRANCH  10  14
ENDBRANCH   9  10
BRANCH   9  16
HETATM   16  O1  UNL     1      34.949  41.596  -2.214  1.00  0.00    -0.332 OA
ATOM     17  H1  UNL     1      34.346  41.657  -2.946  1.00  0.00     0.221 HD
ENDBRANCH   9  16
ENDBRANCH   8   9
BRANCH   8  18
HETATM   18  C7  UNL     1      36.613  42.315  -4.916  1.00  0.00     0.134 C 
BRANCH  18  19
HETATM   19  C8  UNL     1      35.180  42.351  -5.470  1.00  0.00     0.020 C 
BRANCH  19  20
HETATM   20  C9  UNL     1      35.213  41.690  -6.827  1.00  0.00    -0.003 C 
HETATM   21  C10 UNL     1      34.091  42.261  -7.674  1.00  0.00     0.005 C 
ENDBRANCH  19  20
ENDBRANCH  18  19
ENDBRANCH   8  18
ENDBRANCH   1   8
BRANCH   3  22
HETATM   22  C14 UNL     1      39.290  37.519  -2.497  1.00  0.00     0.036 C 
HETATM   23  C15 UNL     1      40.600  37.478  -2.445  1.00  0.00     0.101 A 
HETATM   24  C16 UNL     1      41.413  38.423  -3.173  1.00  0.00     0.263 A 
HETATM   25  C18 UNL     1      41.283  36.484  -1.631  1.00  0.00     0.263 A 
HETATM   26  O2  UNL     1      40.959  39.326  -3.912  1.00  0.00    -0.267 OA
HETATM   27  N3  UNL     1      42.852  38.366  -3.083  1.00  0.00    -0.299 N 
HETATM   28  C17 UNL     1      43.485  37.389  -2.283  1.00  0.00     0.181 A 
ATOM     29  H3  UNL     1      43.417  39.038  -3.602  1.00  0.00     0.171 HD
HETATM   30  S1  UNL     1      45.123  37.328  -2.185  1.00  0.00    -0.040 SA
HETATM   31  N4  UNL     1      42.723  36.446  -1.554  1.00  0.00    -0.299 N 
ATOM     32  H4  UNL     1      43.188  35.743  -0.980  1.00  0.00     0.171 HD
HETATM   33  O3  UNL     1      40.621  35.652  -0.988  1.00  0.00    -0.267 OA
ENDBRANCH   3  22
TORSDOF 11
ENDMDL
MODEL 3
REMARK VINA RESULT: -7.334747533      4.043      6.753
REMARK  11 active torsions:
REMARK  status: ('A' for Active; 'I' for Inactive)
REMARK    1  A    between atoms: C2_2  and  C3_3 
REMARK    2  A    between atoms: C3_3  and  N1_4 
REMARK    3  A    between atoms: N1_4  and  C4_5 
REMARK    4  A    between atoms: N1_4  and  C6_7 
REMARK    5  A    between atoms: C6_7  and  O1_8 
REMARK    6  A    between atoms: C6_7  and  N2_10 
REMARK    7  A    between atoms: N2_10  and  C7_11 
REMARK    8  A    between atoms: N2_10  and  C11_15 
REMARK    9  A    between atoms: C7_11  and  C8_12 
REMARK   10  A    between atoms: C8_12  and  C9_13 
REMARK   11  A    between atoms: C13_17  and  C14_18 
ROOT
HETATM    1  C11 UNL     1      37.358  40.563  -4.034  1.00  0.00     0.111 A 
HETATM    2  C12 UNL     1      38.553  40.307  -3.407  1.00  0.00     0.062 A 
HETATM    3  C13 UNL     1      39.031  39.074  -3.867  1.00  0.00    -0.009 A 
HETATM    4  C19 UNL     1      38.102  38.612  -4.772  1.00  0.00     0.017 A 
HETATM    5  C20 UNL     1      38.181  37.326  -5.554  1.00  0.00     0.069 C 
HETATM    6  N5  UNL     1      37.121  39.530  -4.843  1.00  0.00    -0.345 N 
ATOM      7  H5  UNL     1      36.298  39.446  -5.441  1.00  0.00     0.167 HD
ENDROOT
BRANCH   1   8
HETATM    8  N2  UNL     1      36.508  41.758  -3.840  1.00  0.00    -0.299 N 
BRANCH   8   9
HETATM    9  C6  UNL     1      36.068  42.079  -2.572  1.00  0.00     0.223 C 
BRANCH   9  10
HETATM   10  N1  UNL     1      36.616  42.823  -1.559  1.00  0.00    -0.344 N 
BRANCH  10  11
HETATM   11  C3  UNL     1      37.541  42.498  -0.515  1.00  0.00     0.153 C 
BRANCH  11  12
HETATM   12  C2  UNL     1      36.766  41.958   0.630  1.00  0.00    -0.017 C 
HETATM   13  C1  UNL     1      37.148  42.185   1.865  1.00  0.00     0.008 C 
ENDBRANCH  11  12
ENDBRANCH  10  11
BRANCH  10  14
HETATM   14  C4  UNL     1      36.172  44.262  -1.516  1.00  0.00     0.122 C 
HETATM   15  C5  UNL     1      37.350  45.065  -1.031  1.00  0.00     0.026 C 
ENDBRANCH  10  14
ENDBRANCH   9  10
BRANCH   9  16
HETATM   16  O1  UNL     1      34.888  41.565  -2.286  1.00  0.00    -0.332 OA
ATOM     17  H1  UNL     1      34.154  42.083  -2.595  1.00  0.00     0.221 HD
ENDBRANCH   9  16
ENDBRANCH   8   9
BRANCH   8  18
HETATM   18  C7  UNL     1      36.228  42.440  -5.045  1.00  0.00     0.134 C 
BRANCH  18  19
HETATM   19  C8  UNL     1      34.874  42.002  -5.624  1.00  0.00     0.020 C 
BRANCH  19  20
HETATM   20  C9  UNL     1      35.014  42.002  -7.127  1.00  0.00    -0.003 C 
HETATM   21  C10 UNL     1      33.675  42.368  -7.741  1.00  0.00     0.005 C 
ENDBRANCH  19  20
ENDBRANCH  18  19
ENDBRANCH   8  18
ENDBRANCH   1   8
BRANCH   3  22
HETATM   22  C14 UNL     1      40.285  38.462  -3.468  1.00  0.00     0.036 C 
HETATM   23  C15 UNL     1      40.454  37.579  -2.512  1.00  0.00     0.101 A 
HETATM   24  C16 UNL     1      39.346  37.108  -1.717  1.00  0.00     0.263 A 
HETATM   25  C18 UNL     1      41.771  37.026  -2.232  1.00  0.00     0.263 A 
HETATM   26  O2  UNL     1      38.163  37.499  -1.847  1.00  0.00    -0.267 OA
HETATM   27  N3  UNL     1      39.557  36.123  -0.684  1.00  0.00    -0.299 N 
HETATM   28  C17 UNL     1      40.848  35.605  -0.438  1.00  0.00     0.181 A 
ATOM     29  H3  UNL     1      38.767  35.797  -0.128  1.00  0.00     0.171 HD
HETATM   30  S1  UNL     1      41.084  34.485   0.739  1.00  0.00    -0.040 SA
HETATM   31  N4  UNL     1      41.960  36.042  -1.196  1.00  0.00    -0.299 N 
ATOM     32  H4  UNL     1      42.889  35.663  -1.010  1.00  0.00     0.171 HD
HETATM   33  O3  UNL     1      42.752  37.404  -2.894  1.00  0.00    -0.267 OA
ENDBRANCH   3  22
TORSDOF 11
ENDMDL
MODEL 4
REMARK VINA RESULT: -7.273234194      4.152      6.464
REMARK  11 active torsions:
REMARK  status: ('A' for Active; 'I' for Inactive)
REMARK    1  A    between atoms: C2_2  and  C3_3 
REMARK    2  A    between atoms: C3_3  and  N1_4 
REMARK    3  A    between atoms: N1_4  and  C4_5 
REMARK    4  A    between atoms: N1_4  and  C6_7 
REMARK    5  A    between atoms: C6_7  and  O1_8 
REMARK    6  A    between atoms: C6_7  and  N2_10 
REMARK    7  A    between atoms: N2_10  and  C7_11 
REMARK    8  A    between atoms: N2_10  and  C11_15 
REMARK    9  A    between atoms: C7_11  and  C8_12 
REMARK   10  A    between atoms: C8_12  and  C9_13 
REMARK   11  A    between atoms: C13_17  and  C14_18 
ROOT
HETATM    1  C11 UNL     1      37.397  40.360  -3.417  1.00  0.00     0.111 A 
HETATM    2  C12 UNL     1      38.085  39.804  -4.468  1.00  0.00     0.062 A 
HETATM    3  C13 UNL     1      38.577  38.560  -4.058  1.00  0.00    -0.009 A 
HETATM    4  C19 UNL     1      38.169  38.393  -2.753  1.00  0.00     0.017 A 
HETATM    5  C20 UNL     1      38.440  37.195  -1.880  1.00  0.00     0.069 C 
HETATM    6  N5  UNL     1      37.467  39.489  -2.409  1.00  0.00    -0.345 N 
ATOM      7  H5  UNL     1      37.044  39.635  -1.493  1.00  0.00     0.167 HD
ENDROOT
BRANCH   1   8
HETATM    8  N2  UNL     1      36.716  41.673  -3.414  1.00  0.00    -0.299 N 
BRANCH   8   9
HETATM    9  C6  UNL     1      36.177  42.156  -2.240  1.00  0.00     0.223 C 
BRANCH   9  10
HETATM   10  N1  UNL     1      36.651  43.021  -1.287  1.00  0.00    -0.344 N 
BRANCH  10  11
HETATM   11  C3  UNL     1      37.490  42.830  -0.142  1.00  0.00     0.153 C 
BRANCH  11  12
HETATM   12  C2  UNL     1      36.734  42.026   0.850  1.00  0.00    -0.017 C 
HETATM   13  C1  UNL     1      37.026  42.090   2.128  1.00  0.00     0.008 C 
ENDBRANCH  11  12
ENDBRANCH  10  11
BRANCH  10  14
HETATM   14  C4  UNL     1      36.213  44.452  -1.455  1.00  0.00     0.122 C 
HETATM   15  C5  UNL     1      37.291  45.309  -0.844  1.00  0.00     0.026 C 
ENDBRANCH  10  14
ENDBRANCH   9  10
BRANCH   9  16
HETATM   16  O1  UNL     1      34.970  41.688  -1.992  1.00  0.00    -0.332 OA
ATOM     17  H1  UNL     1      34.499  41.400  -2.764  1.00  0.00     0.221 HD
ENDBRANCH   9  16
ENDBRANCH   8   9
BRANCH   8  18
HETATM   18  C7  UNL     1      36.691  42.286  -4.687  1.00  0.00     0.134 C 
BRANCH  18  19
HETATM   19  C8  UNL     1      35.283  42.224  -5.300  1.00  0.00     0.020 C 
BRANCH  19  20
HETATM   20  C9  UNL     1      35.400  41.468  -6.601  1.00  0.00    -0.003 C 
HETATM   21  C10 UNL     1      34.917  40.045  -6.383  1.00  0.00     0.005 C 
ENDBRANCH  19  20
ENDBRANCH  18  19
ENDBRANCH   8  18
ENDBRANCH   1   8
BRANCH   3  22
HETATM   22  C14 UNL     1      39.332  37.643  -4.892  1.00  0.00     0.036 C 
HETATM   23  C15 UNL     1      40.639  37.559  -4.975  1.00  0.00     0.101 A 
HETATM   24  C16 UNL     1      41.500  38.423  -4.206  1.00  0.00     0.263 A 
HETATM   25  C18 UNL     1      41.268  36.571  -5.840  1.00  0.00     0.263 A 
HETATM   26  O2  UNL     1      41.095  39.316  -3.427  1.00  0.00    -0.267 OA
HETATM   27  N3  UNL     1      42.934  38.297  -4.303  1.00  0.00    -0.299 N 
HETATM   28  C17 UNL     1      43.514  37.326  -5.152  1.00  0.00     0.181 A 
ATOM     29  H3  UNL     1      43.534  38.913  -3.755  1.00  0.00     0.171 HD
HETATM   30  S1  UNL     1      45.147  37.187  -5.260  1.00  0.00    -0.040 SA
HETATM   31  N4  UNL     1      42.703  36.461  -5.922  1.00  0.00    -0.299 N 
ATOM     32  H4  UNL     1      43.131  35.764  -6.532  1.00  0.00     0.171 HD
HETATM   33  O3  UNL     1      40.563  35.806  -6.520  1.00  0.00    -0.267 OA
ENDBRANCH   3  22
TORSDOF 11
ENDMDL
MODEL 5
REMARK VINA RESULT: -7.220140454      4.128      6.956
REMARK  11 active torsions:
REMARK  status: ('A' for Active; 'I' for Inactive)
REMARK    1  A    between atoms: C2_2  and  C3_3 
REMARK    2  A    between atoms: C3_3  and  N1_4 
REMARK    3  A    between atoms: N1_4  and  C4_5 
REMARK    4  A    between atoms: N1_4  and  C6_7 
REMARK    5  A    between atoms: C6_7  and  O1_8 
REMARK    6  A    between atoms: C6_7  and  N2_10 
REMARK    7  A    between atoms: N2_10  and  C7_11 
REMARK    8  A    between atoms: N2_10  and  C11_15 
REMARK    9  A    between atoms: C7_11  and  C8_12 
REMARK   10  A    between atoms: C8_12  and  C9_13 
REMARK   11  A    between atoms: C13_17  and  C14_18 
ROOT
HETATM    1  C11 UNL     1      37.451  40.460  -3.963  1.00  0.00     0.111 A 
HETATM    2  C12 UNL     1      38.662  40.202  -3.370  1.00  0.00     0.062 A 
HETATM    3  C13 UNL     1      39.142  38.986  -3.869  1.00  0.00    -0.009 A 
HETATM    4  C19 UNL     1      38.197  38.535  -4.763  1.00  0.00     0.017 A 
HETATM    5  C20 UNL     1      38.272  37.267  -5.575  1.00  0.00     0.069 C 
HETATM    6  N5  UNL     1      37.205  39.443  -4.790  1.00  0.00    -0.345 N 
ATOM      7  H5  UNL     1      36.369  39.363  -5.370  1.00  0.00     0.167 HD
ENDROOT
BRANCH   1   8
HETATM    8  N2  UNL     1      36.592  41.640  -3.722  1.00  0.00    -0.299 N 
BRANCH   8   9
HETATM    9  C6  UNL     1      36.109  41.880  -2.453  1.00  0.00     0.223 C 
BRANCH   9  10
HETATM   10  N1  UNL     1      36.685  42.399  -1.321  1.00  0.00    -0.344 N 
BRANCH  10  11
HETATM   11  C3  UNL     1      37.844  43.214  -1.115  1.00  0.00     0.153 C 
BRANCH  11  12
HETATM   12  C2  UNL     1      37.491  44.610  -1.478  1.00  0.00    -0.017 C 
HETATM   13  C1  UNL     1      37.483  45.557  -0.570  1.00  0.00     0.008 C 
ENDBRANCH  11  12
ENDBRANCH  10  11
BRANCH  10  14
HETATM   14  C4  UNL     1      35.980  42.054  -0.035  1.00  0.00     0.122 C 
HETATM   15  C5  UNL     1      37.027  42.061   1.048  1.00  0.00     0.026 C 
ENDBRANCH  10  14
ENDBRANCH   9  10
BRANCH   9  16
HETATM   16  O1  UNL     1      34.843  41.542  -2.307  1.00  0.00    -0.332 OA
ATOM     17  H1  UNL     1      34.422  41.260  -3.110  1.00  0.00     0.221 HD
ENDBRANCH   9  16
ENDBRANCH   8   9
BRANCH   8  18
HETATM   18  C7  UNL     1      36.354  42.399  -4.890  1.00  0.00     0.134 C 
BRANCH  18  19
HETATM   19  C8  UNL     1      34.996  42.038  -5.513  1.00  0.00     0.020 C 
BRANCH  19  20
HETATM   20  C9  UNL     1      35.199  41.969  -7.007  1.00  0.00    -0.003 C 
HETATM   21  C10 UNL     1      33.890  42.318  -7.693  1.00  0.00     0.005 C 
ENDBRANCH  19  20
ENDBRANCH  18  19
ENDBRANCH   8  18
ENDBRANCH   1   8
BRANCH   3  22
HETATM   22  C14 UNL     1      40.411  38.378  -3.512  1.00  0.00     0.036 C 
HETATM   23  C15 UNL     1      40.621  37.521  -2.542  1.00  0.00     0.101 A 
HETATM   24  C16 UNL     1      39.551  37.077  -1.683  1.00  0.00     0.263 A 
HETATM   25  C18 UNL     1      41.949  36.969  -2.310  1.00  0.00     0.263 A 
HETATM   26  O2  UNL     1      38.365  37.471  -1.768  1.00  0.00    -0.267 OA
HETATM   27  N3  UNL     1      39.807  36.120  -0.635  1.00  0.00    -0.299 N 
HETATM   28  C17 UNL     1      41.107  35.602  -0.436  1.00  0.00     0.181 A 
ATOM     29  H3  UNL     1      39.043  35.813  -0.033  1.00  0.00     0.171 HD
HETATM   30  S1  UNL     1      41.393  34.513   0.759  1.00  0.00    -0.040 SA
HETATM   31  N4  UNL     1      42.183  36.012  -1.257  1.00  0.00    -0.299 N 
ATOM     32  H4  UNL     1      43.118  35.634  -1.105  1.00  0.00     0.171 HD
HETATM   33  O3  UNL     1      42.899  37.324  -3.027  1.00  0.00    -0.267 OA
ENDBRANCH   3  22
TORSDOF 11
ENDMDL
