MODEL 1
REMARK VINA RESULT: -9.049896675      0.000      0.000
REMARK  9 active torsions:
REMARK  status: ('A' for Active; 'I' for Inactive)
REMARK    1  A    between atoms: C2_2  and  C3_4 
REMARK    2  A    between atoms: C3_4  and  C4_5 
REMARK    3  A    between atoms: C3_4  and  N1_8 
REMARK    4  A    between atoms: N1_8  and  C6_11 
REMARK    5  A    between atoms: C7_14  and  N4_15 
REMARK    6  A    between atoms: N5_18  and  C10_19 
REMARK    7  A    between atoms: C11_22  and  N7_23 
REMARK    8  A    between atoms: C12_28  and  N9_29 
REMARK    9  A    between atoms: C16_39  and  N12_40 
ROOT
HETATM    1  N1  UNL     1      34.065  26.671  15.745  1.00  0.00    -0.094 N 
HETATM    2  C5  UNL     1      34.457  28.067  15.735  1.00  0.00     0.200 C 
HETATM    3  N2  UNL     1      34.777  29.183  15.710  1.00  0.00    -0.171 NA
ENDROOT
BRANCH   1   4
HETATM    4  C3  UNL     1      32.796  26.428  15.178  1.00  0.00     0.288 C 
BRANCH   4   5
HETATM    5  C2  UNL     1      31.793  27.471  15.125  1.00  0.00     0.158 C 
HETATM    6  C1  UNL     1      31.539  28.496  14.105  1.00  0.00     0.094 C 
HETATM    7  O1  UNL     1      31.002  27.522  16.106  1.00  0.00    -0.295 OA
ENDBRANCH   4   5
BRANCH   4   8
HETATM    8  C4  UNL     1      32.979  25.762  13.826  1.00  0.00     0.206 C 
HETATM    9  O2  UNL     1      32.083  25.018  13.366  1.00  0.00    -0.646 OA
HETATM   10  O3  UNL     1      34.119  25.950  13.066  1.00  0.00    -0.646 OA
ENDBRANCH   4   8
ENDBRANCH   1   4
BRANCH   1  11
HETATM   11  C6  UNL     1      35.011  25.833  16.318  1.00  0.00     0.724 A 
HETATM   12  N3  UNL     1      36.319  26.116  16.313  1.00  0.00    -0.020 N 
HETATM   13  C7  UNL     1      37.234  25.313  16.892  1.00  0.00     0.709 A 
ATOM     14  H3  UNL     1      36.636  26.971  15.855  1.00  0.00     0.203 HD
HETATM   15  N11 UNL     1      36.787  24.201  17.487  1.00  0.00    -0.022 N 
HETATM   16  C16 UNL     1      35.485  23.863  17.524  1.00  0.00     0.705 A 
ATOM     17  H11 UNL     1      37.464  23.580  17.931  1.00  0.00     0.203 HD
HETATM   18  N13 UNL     1      34.627  24.703  16.929  1.00  0.00    -0.021 N 
ATOM     19  H13 UNL     1      33.634  24.472  16.942  1.00  0.00     0.203 HD
BRANCH  13  20
HETATM   20  N4  UNL     1      38.621  25.593  16.900  1.00  0.00    -0.213 N 
HETATM   21  C8  UNL     1      39.423  25.128  17.999  1.00  0.00     0.161 C 
HETATM   22  C9  UNL     1      40.780  25.728  18.098  1.00  0.00     0.162 C 
HETATM   23  N5  UNL     1      40.884  27.044  17.514  1.00  0.00    -0.209 N 
HETATM   24  C13 UNL     1      40.004  27.515  16.467  1.00  0.00     0.116 C 
HETATM   25  C14 UNL     1      38.971  28.478  17.010  1.00  0.00     0.034 C 
HETATM   26  C15 UNL     1      39.268  26.336  15.829  1.00  0.00     0.166 C 
BRANCH  23  27
HETATM   27  C10 UNL     1      41.903  27.907  18.001  1.00  0.00     0.709 A 
HETATM   28  N6  UNL     1      41.706  29.239  18.143  1.00  0.00    -0.022 N 
HETATM   29  C11 UNL     1      42.654  30.065  18.599  1.00  0.00     0.705 A 
ATOM     30  H6  UNL     1      40.798  29.629  17.891  1.00  0.00     0.203 HD
HETATM   31  N8  UNL     1      43.848  29.561  18.930  1.00  0.00    -0.022 N 
HETATM   32  C12 UNL     1      44.068  28.236  18.797  1.00  0.00     0.705 A 
ATOM     33  H8  UNL     1      44.585  30.172  19.280  1.00  0.00     0.203 HD
HETATM   34  N10 UNL     1      43.109  27.422  18.340  1.00  0.00    -0.022 N 
ATOM     35  H10 UNL     1      43.295  26.423  18.247  1.00  0.00     0.203 HD
BRANCH  29  36
HETATM   36  N7  UNL     1      42.462  31.327  18.731  1.00  0.00    -0.234 N 
ATOM     37  H72 UNL     1      43.230  31.962  18.513  1.00  0.00     0.174 HD
ATOM     38  H71 UNL     1      41.573  31.716  19.046  1.00  0.00     0.174 HD
ENDBRANCH  29  36
BRANCH  32  39
HETATM   39  N9  UNL     1      45.215  27.746  19.115  1.00  0.00    -0.234 N 
ATOM     40  H92 UNL     1      45.488  26.833  18.754  1.00  0.00     0.174 HD
ATOM     41  H91 UNL     1      45.838  28.277  19.725  1.00  0.00     0.174 HD
ENDBRANCH  32  39
ENDBRANCH  23  27
ENDBRANCH  13  20
BRANCH  16  42
HETATM   42  N12 UNL     1      35.112  22.770  18.116  1.00  0.00    -0.234 N 
ATOM     43 2H12 UNL     1      35.118  22.655  19.129  1.00  0.00     0.174 HD
ATOM     44 1H12 UNL     1      34.795  21.973  17.566  1.00  0.00     0.174 HD
ENDBRANCH  16  42
ENDBRANCH   1  11
TORSDOF 9
ENDMDL
MODEL 2
REMARK VINA RESULT: -9.043202343      3.502      9.176
REMARK  9 active torsions:
REMARK  status: ('A' for Active; 'I' for Inactive)
REMARK    1  A    between atoms: C2_2  and  C3_4 
REMARK    2  A    between atoms: C3_4  and  C4_5 
REMARK    3  A    between atoms: C3_4  and  N1_8 
REMARK    4  A    between atoms: N1_8  and  C6_11 
REMARK    5  A    between atoms: C7_14  and  N4_15 
REMARK    6  A    between atoms: N5_18  and  C10_19 
REMARK    7  A    between atoms: C11_22  and  N7_23 
REMARK    8  A    between atoms: C12_28  and  N9_29 
REMARK    9  A    between atoms: C16_39  and  N12_40 
ROOT
HETATM    1  N1  UNL     1      43.113  27.319  18.071  1.00  0.00    -0.094 N 
HETATM    2  C5  UNL     1      44.321  27.699  18.779  1.00  0.00     0.200 C 
HETATM    3  N2  UNL     1      45.280  27.997  19.362  1.00  0.00    -0.171 NA
ENDROOT
BRANCH   1   4
HETATM    4  C3  UNL     1      43.091  25.969  17.662  1.00  0.00     0.288 C 
BRANCH   4   5
HETATM    5  C2  UNL     1      43.371  24.902  18.600  1.00  0.00     0.158 C 
HETATM    6  C1  UNL     1      44.280  23.755  18.492  1.00  0.00     0.094 C 
HETATM    7  O1  UNL     1      42.739  24.951  19.690  1.00  0.00    -0.295 OA
ENDBRANCH   4   5
BRANCH   4   8
HETATM    8  C4  UNL     1      41.808  25.709  16.891  1.00  0.00     0.206 C 
HETATM    9  O2  UNL     1      41.805  25.769  15.641  1.00  0.00    -0.646 OA
HETATM   10  O3  UNL     1      40.621  25.402  17.529  1.00  0.00    -0.646 OA
ENDBRANCH   4   8
ENDBRANCH   1   4
BRANCH   1  11
HETATM   11  C6  UNL     1      42.207  28.359  17.921  1.00  0.00     0.724 A 
HETATM   12  N3  UNL     1      41.112  28.253  17.159  1.00  0.00    -0.020 N 
HETATM   13  C7  UNL     1      40.220  29.256  17.033  1.00  0.00     0.709 A 
ATOM     14  H3  UNL     1      40.946  27.382  16.655  1.00  0.00     0.203 HD
HETATM   15  N11 UNL     1      40.465  30.385  17.708  1.00  0.00    -0.022 N 
HETATM   16  C16 UNL     1      41.549  30.550  18.490  1.00  0.00     0.705 A 
ATOM     17  H11 UNL     1      39.802  31.156  17.627  1.00  0.00     0.203 HD
HETATM   18  N13 UNL     1      42.397  29.516  18.571  1.00  0.00    -0.021 N 
ATOM     19  H13 UNL     1      43.227  29.614  19.156  1.00  0.00     0.203 HD
BRANCH  13  20
HETATM   20  N4  UNL     1      39.055  29.167  16.235  1.00  0.00    -0.213 N 
HETATM   21  C8  UNL     1      38.077  30.217  16.303  1.00  0.00     0.161 C 
HETATM   22  C9  UNL     1      36.757  29.902  15.695  1.00  0.00     0.162 C 
HETATM   23  N5  UNL     1      36.439  28.494  15.681  1.00  0.00    -0.209 N 
HETATM   24  C13 UNL     1      37.448  27.457  15.701  1.00  0.00     0.116 C 
HETATM   25  C14 UNL     1      37.553  26.820  17.069  1.00  0.00     0.034 C 
HETATM   26  C15 UNL     1      38.813  28.044  15.341  1.00  0.00     0.166 C 
BRANCH  23  27
HETATM   27  C10 UNL     1      35.067  28.124  15.646  1.00  0.00     0.709 A 
HETATM   28  N6  UNL     1      34.622  27.094  14.888  1.00  0.00    -0.022 N 
HETATM   29  C11 UNL     1      33.335  26.733  14.843  1.00  0.00     0.705 A 
ATOM     30  H6  UNL     1      35.296  26.572  14.327  1.00  0.00     0.203 HD
HETATM   31  N8  UNL     1      32.446  27.414  15.575  1.00  0.00    -0.022 N 
HETATM   32  C12 UNL     1      32.866  28.444  16.338  1.00  0.00     0.705 A 
ATOM     33  H8  UNL     1      31.460  27.156  15.557  1.00  0.00     0.203 HD
HETATM   34  N10 UNL     1      34.158  28.793  16.373  1.00  0.00    -0.022 N 
ATOM     35  H10 UNL     1      34.454  29.575  16.957  1.00  0.00     0.203 HD
BRANCH  29  36
HETATM   36  N7  UNL     1      32.919  25.756  14.123  1.00  0.00    -0.234 N 
ATOM     37  H72 UNL     1      33.092  25.782  13.118  1.00  0.00     0.174 HD
ATOM     38  H71 UNL     1      32.422  24.957  14.518  1.00  0.00     0.174 HD
ENDBRANCH  29  36
BRANCH  32  39
HETATM   39  N9  UNL     1      32.013  29.102  17.044  1.00  0.00    -0.234 N 
ATOM     40  H92 UNL     1      31.230  28.609  17.472  1.00  0.00     0.174 HD
ATOM     41  H91 UNL     1      32.130  30.107  17.167  1.00  0.00     0.174 HD
ENDBRANCH  32  39
ENDBRANCH  23  27
ENDBRANCH  13  20
BRANCH  16  42
HETATM   42  N12 UNL     1      41.733  31.670  19.120  1.00  0.00    -0.234 N 
ATOM     43 2H12 UNL     1      41.924  32.552  18.644  1.00  0.00     0.174 HD
ATOM     44 1H12 UNL     1      41.690  31.698  20.138  1.00  0.00     0.174 HD
ENDBRANCH  16  42
ENDBRANCH   1  11
TORSDOF 9
ENDMDL
MODEL 3
REMARK VINA RESULT: -8.986592350      3.499      9.106
REMARK  9 active torsions:
REMARK  status: ('A' for Active; 'I' for Inactive)
REMARK    1  A    between atoms: C2_2  and  C3_4 
REMARK    2  A    between atoms: C3_4  and  C4_5 
REMARK    3  A    between atoms: C3_4  and  N1_8 
REMARK    4  A    between atoms: N1_8  and  C6_11 
REMARK    5  A    between atoms: C7_14  and  N4_15 
REMARK    6  A    between atoms: N5_18  and  C10_19 
REMARK    7  A    between atoms: C11_22  and  N7_23 
REMARK    8  A    between atoms: C12_28  and  N9_29 
REMARK    9  A    between atoms: C16_39  and  N12_40 
ROOT
HETATM    1  N1  UNL     1      43.111  27.320  18.068  1.00  0.00    -0.094 N 
HETATM    2  C5  UNL     1      44.317  27.701  18.779  1.00  0.00     0.200 C 
HETATM    3  N2  UNL     1      45.274  27.999  19.364  1.00  0.00    -0.171 NA
ENDROOT
BRANCH   1   4
HETATM    4  C3  UNL     1      43.090  25.970  17.659  1.00  0.00     0.288 C 
BRANCH   4   5
HETATM    5  C2  UNL     1      43.365  24.903  18.598  1.00  0.00     0.158 C 
HETATM    6  C1  UNL     1      44.275  23.756  18.495  1.00  0.00     0.094 C 
HETATM    7  O1  UNL     1      42.727  24.953  19.686  1.00  0.00    -0.295 OA
ENDBRANCH   4   5
BRANCH   4   8
HETATM    8  C4  UNL     1      41.811  25.711  16.882  1.00  0.00     0.206 C 
HETATM    9  O2  UNL     1      41.813  25.771  15.632  1.00  0.00    -0.646 OA
HETATM   10  O3  UNL     1      40.620  25.405  17.515  1.00  0.00    -0.646 OA
ENDBRANCH   4   8
ENDBRANCH   1   4
BRANCH   1  11
HETATM   11  C6  UNL     1      42.206  28.360  17.916  1.00  0.00     0.724 A 
HETATM   12  N3  UNL     1      41.110  28.253  17.153  1.00  0.00    -0.020 N 
HETATM   13  C7  UNL     1      40.218  29.256  17.025  1.00  0.00     0.709 A 
ATOM     14  H3  UNL     1      40.944  27.381  16.651  1.00  0.00     0.203 HD
HETATM   15  N11 UNL     1      40.464  30.386  17.698  1.00  0.00    -0.022 N 
HETATM   16  C16 UNL     1      41.547  30.553  18.479  1.00  0.00     0.705 A 
ATOM     17  H11 UNL     1      39.801  31.157  17.615  1.00  0.00     0.203 HD
HETATM   18  N13 UNL     1      42.396  29.519  18.563  1.00  0.00    -0.021 N 
ATOM     19  H13 UNL     1      43.226  29.617  19.148  1.00  0.00     0.203 HD
BRANCH  13  20
HETATM   20  N4  UNL     1      39.054  29.165  16.227  1.00  0.00    -0.213 N 
HETATM   21  C8  UNL     1      38.080  30.220  16.287  1.00  0.00     0.161 C 
HETATM   22  C9  UNL     1      36.759  29.905  15.681  1.00  0.00     0.162 C 
HETATM   23  N5  UNL     1      36.436  28.498  15.676  1.00  0.00    -0.209 N 
HETATM   24  C13 UNL     1      37.440  27.458  15.704  1.00  0.00     0.116 C 
HETATM   25  C14 UNL     1      37.543  26.830  17.077  1.00  0.00     0.034 C 
HETATM   26  C15 UNL     1      38.809  28.037  15.341  1.00  0.00     0.166 C 
BRANCH  23  27
HETATM   27  C10 UNL     1      35.062  28.133  15.643  1.00  0.00     0.709 A 
HETATM   28  N6  UNL     1      34.126  28.805  16.355  1.00  0.00    -0.022 N 
HETATM   29  C11 UNL     1      32.830  28.475  16.335  1.00  0.00     0.705 A 
ATOM     30  H6  UNL     1      34.421  29.595  16.929  1.00  0.00     0.203 HD
HETATM   31  N8  UNL     1      32.436  27.440  15.585  1.00  0.00    -0.022 N 
HETATM   32  C12 UNL     1      33.352  26.755  14.868  1.00  0.00     0.705 A 
ATOM     33  H8  UNL     1      31.454  27.170  15.555  1.00  0.00     0.203 HD
HETATM   34  N10 UNL     1      34.646  27.098  14.897  1.00  0.00    -0.022 N 
ATOM     35  H10 UNL     1      35.322  26.568  14.347  1.00  0.00     0.203 HD
BRANCH  29  36
HETATM   36  N7  UNL     1      31.946  29.115  17.011  1.00  0.00    -0.234 N 
ATOM     37  H72 UNL     1      32.209  29.496  17.920  1.00  0.00     0.174 HD
ATOM     38  H71 UNL     1      30.994  29.255  16.673  1.00  0.00     0.174 HD
ENDBRANCH  29  36
BRANCH  32  39
HETATM   39  N9  UNL     1      32.977  25.759  14.144  1.00  0.00    -0.234 N 
ATOM     40  H92 UNL     1      32.010  25.705  13.827  1.00  0.00     0.174 HD
ATOM     41  H91 UNL     1      33.652  25.035  13.896  1.00  0.00     0.174 HD
ENDBRANCH  32  39
ENDBRANCH  23  27
ENDBRANCH  13  20
BRANCH  16  42
HETATM   42  N12 UNL     1      41.732  31.674  19.107  1.00  0.00    -0.234 N 
ATOM     43 2H12 UNL     1      40.984  32.346  19.279  1.00  0.00     0.174 HD
ATOM     44 1H12 UNL     1      42.658  31.919  19.455  1.00  0.00     0.174 HD
ENDBRANCH  16  42
ENDBRANCH   1  11
TORSDOF 9
ENDMDL
MODEL 4
REMARK VINA RESULT: -8.843564267      3.832      8.700
REMARK  9 active torsions:
REMARK  status: ('A' for Active; 'I' for Inactive)
REMARK    1  A    between atoms: C2_2  and  C3_4 
REMARK    2  A    between atoms: C3_4  and  C4_5 
REMARK    3  A    between atoms: C3_4  and  N1_8 
REMARK    4  A    between atoms: N1_8  and  C6_11 
REMARK    5  A    between atoms: C7_14  and  N4_15 
REMARK    6  A    between atoms: N5_18  and  C10_19 
REMARK    7  A    between atoms: C11_22  and  N7_23 
REMARK    8  A    between atoms: C12_28  and  N9_29 
REMARK    9  A    between atoms: C16_39  and  N12_40 
ROOT
HETATM    1  N1  UNL     1      41.198  25.209  16.336  1.00  0.00    -0.094 N 
HETATM    2  C5  UNL     1      41.564  25.098  14.938  1.00  0.00     0.200 C 
HETATM    3  N2  UNL     1      41.850  25.026  13.815  1.00  0.00    -0.171 NA
ENDROOT
BRANCH   1   4
HETATM    4  C3  UNL     1      42.144  25.900  17.123  1.00  0.00     0.288 C 
BRANCH   4   5
HETATM    5  C2  UNL     1      41.918  27.272  17.526  1.00  0.00     0.158 C 
HETATM    6  C1  UNL     1      42.786  28.206  18.253  1.00  0.00     0.094 C 
HETATM    7  O1  UNL     1      40.798  27.758  17.209  1.00  0.00    -0.295 OA
ENDBRANCH   4   5
BRANCH   4   8
HETATM    8  C4  UNL     1      42.531  25.029  18.306  1.00  0.00     0.206 C 
HETATM    9  O2  UNL     1      43.492  24.232  18.210  1.00  0.00    -0.646 OA
HETATM   10  O3  UNL     1      41.851  25.084  19.508  1.00  0.00    -0.646 OA
ENDBRANCH   4   8
ENDBRANCH   1   4
BRANCH   1  11
HETATM   11  C6  UNL     1      39.986  24.607  16.642  1.00  0.00     0.724 A 
HETATM   12  N3  UNL     1      38.862  25.310  16.833  1.00  0.00    -0.020 N 
HETATM   13  C7  UNL     1      37.680  24.721  17.106  1.00  0.00     0.709 A 
ATOM     14  H3  UNL     1      38.901  26.327  16.769  1.00  0.00     0.203 HD
HETATM   15  N11 UNL     1      37.662  23.386  17.181  1.00  0.00    -0.022 N 
HETATM   16  C16 UNL     1      38.758  22.626  16.999  1.00  0.00     0.705 A 
ATOM     17  H11 UNL     1      36.777  22.921  17.386  1.00  0.00     0.203 HD
HETATM   18  N13 UNL     1      39.902  23.272  16.732  1.00  0.00    -0.021 N 
ATOM     19  H13 UNL     1      40.748  22.722  16.591  1.00  0.00     0.203 HD
BRANCH  13  20
HETATM   20  N4  UNL     1      36.480  25.443  17.310  1.00  0.00    -0.213 N 
HETATM   21  C8  UNL     1      35.233  24.731  17.344  1.00  0.00     0.161 C 
HETATM   22  C9  UNL     1      34.012  25.575  17.237  1.00  0.00     0.162 C 
HETATM   23  N5  UNL     1      34.220  26.820  16.538  1.00  0.00    -0.209 N 
HETATM   24  C13 UNL     1      35.510  27.470  16.448  1.00  0.00     0.116 C 
HETATM   25  C14 UNL     1      36.127  27.277  15.080  1.00  0.00     0.034 C 
HETATM   26  C15 UNL     1      36.466  26.887  17.489  1.00  0.00     0.166 C 
BRANCH  23  27
HETATM   27  C10 UNL     1      33.095  27.426  15.914  1.00  0.00     0.709 A 
HETATM   28  N6  UNL     1      33.136  28.693  15.439  1.00  0.00    -0.022 N 
HETATM   29  C11 UNL     1      32.088  29.278  14.849  1.00  0.00     0.705 A 
ATOM     30  H6  UNL     1      34.002  29.224  15.535  1.00  0.00     0.203 HD
HETATM   31  N8  UNL     1      30.949  28.588  14.721  1.00  0.00    -0.022 N 
HETATM   32  C12 UNL     1      30.884  27.324  15.188  1.00  0.00     0.705 A 
ATOM     33  H8  UNL     1      30.137  29.014  14.275  1.00  0.00     0.203 HD
HETATM   34  N10 UNL     1      31.943  26.751  15.775  1.00  0.00    -0.022 N 
ATOM     35  H10 UNL     1      31.873  25.794  16.120  1.00  0.00     0.203 HD
BRANCH  29  36
HETATM   36  N7  UNL     1      32.132  30.480  14.401  1.00  0.00    -0.234 N 
ATOM     37  H72 UNL     1      33.044  30.901  14.225  1.00  0.00     0.174 HD
ATOM     38  H71 UNL     1      31.290  31.026  14.214  1.00  0.00     0.174 HD
ENDBRANCH  29  36
BRANCH  32  39
HETATM   39  N9  UNL     1      29.790  26.656  15.066  1.00  0.00    -0.234 N 
ATOM     40  H92 UNL     1      29.342  26.590  14.153  1.00  0.00     0.174 HD
ATOM     41  H91 UNL     1      29.384  26.201  15.883  1.00  0.00     0.174 HD
ENDBRANCH  32  39
ENDBRANCH  23  27
ENDBRANCH  13  20
BRANCH  16  42
HETATM   42  N12 UNL     1      38.677  21.334  17.086  1.00  0.00    -0.234 N 
ATOM     43 2H12 UNL     1      38.075  20.857  17.757  1.00  0.00     0.174 HD
ATOM     44 1H12 UNL     1      39.231  20.744  16.467  1.00  0.00     0.174 HD
ENDBRANCH  16  42
ENDBRANCH   1  11
TORSDOF 9
ENDMDL
MODEL 5
REMARK VINA RESULT: -8.821819069      3.817      8.738
REMARK  9 active torsions:
REMARK  status: ('A' for Active; 'I' for Inactive)
REMARK    1  A    between atoms: C2_2  and  C3_4 
REMARK    2  A    between atoms: C3_4  and  C4_5 
REMARK    3  A    between atoms: C3_4  and  N1_8 
REMARK    4  A    between atoms: N1_8  and  C6_11 
REMARK    5  A    between atoms: C7_14  and  N4_15 
REMARK    6  A    between atoms: N5_18  and  C10_19 
REMARK    7  A    between atoms: C11_22  and  N7_23 
REMARK    8  A    between atoms: C12_28  and  N9_29 
REMARK    9  A    between atoms: C16_39  and  N12_40 
ROOT
HETATM    1  N1  UNL     1      41.126  25.258  16.313  1.00  0.00    -0.094 N 
HETATM    2  C5  UNL     1      41.468  25.160  14.907  1.00  0.00     0.200 C 
HETATM    3  N2  UNL     1      41.734  25.099  13.779  1.00  0.00    -0.171 NA
ENDROOT
BRANCH   1   4
HETATM    4  C3  UNL     1      42.086  25.940  17.090  1.00  0.00     0.288 C 
BRANCH   4   5
HETATM    5  C2  UNL     1      41.855  27.299  17.534  1.00  0.00     0.158 C 
HETATM    6  C1  UNL     1      42.754  28.247  18.203  1.00  0.00     0.094 C 
HETATM    7  O1  UNL     1      40.699  27.757  17.319  1.00  0.00    -0.295 OA
ENDBRANCH   4   5
BRANCH   4   8
HETATM    8  C4  UNL     1      42.516  25.045  18.238  1.00  0.00     0.206 C 
HETATM    9  O2  UNL     1      43.421  24.198  18.068  1.00  0.00    -0.646 OA
HETATM   10  O3  UNL     1      41.936  25.132  19.491  1.00  0.00    -0.646 OA
ENDBRANCH   4   8
ENDBRANCH   1   4
BRANCH   1  11
HETATM   11  C6  UNL     1      39.918  24.654  16.634  1.00  0.00     0.724 A 
HETATM   12  N3  UNL     1      38.792  25.353  16.821  1.00  0.00    -0.020 N 
HETATM   13  C7  UNL     1      37.615  24.763  17.109  1.00  0.00     0.709 A 
ATOM     14  H3  UNL     1      38.825  26.370  16.743  1.00  0.00     0.203 HD
HETATM   15  N11 UNL     1      37.604  23.428  17.202  1.00  0.00    -0.022 N 
HETATM   16  C16 UNL     1      38.702  22.672  17.024  1.00  0.00     0.705 A 
ATOM     17  H11 UNL     1      36.722  22.962  17.418  1.00  0.00     0.203 HD
HETATM   18  N13 UNL     1      39.841  23.320  16.742  1.00  0.00    -0.021 N 
ATOM     19  H13 UNL     1      40.690  22.772  16.603  1.00  0.00     0.203 HD
BRANCH  13  20
HETATM   20  N4  UNL     1      36.412  25.481  17.310  1.00  0.00    -0.213 N 
HETATM   21  C8  UNL     1      35.166  24.766  17.335  1.00  0.00     0.161 C 
HETATM   22  C9  UNL     1      33.944  25.607  17.226  1.00  0.00     0.162 C 
HETATM   23  N5  UNL     1      34.152  26.856  16.532  1.00  0.00    -0.209 N 
HETATM   24  C13 UNL     1      35.441  27.509  16.451  1.00  0.00     0.116 C 
HETATM   25  C14 UNL     1      36.065  27.322  15.085  1.00  0.00     0.034 C 
HETATM   26  C15 UNL     1      36.394  26.924  17.494  1.00  0.00     0.166 C 
BRANCH  23  27
HETATM   27  C10 UNL     1      33.029  27.461  15.905  1.00  0.00     0.709 A 
HETATM   28  N6  UNL     1      31.848  26.813  15.772  1.00  0.00    -0.022 N 
HETATM   29  C11 UNL     1      30.782  27.367  15.185  1.00  0.00     0.705 A 
ATOM     30  H6  UNL     1      31.767  25.863  16.136  1.00  0.00     0.203 HD
HETATM   31  N8  UNL     1      30.880  28.613  14.706  1.00  0.00    -0.022 N 
HETATM   32  C12 UNL     1      32.048  29.278  14.826  1.00  0.00     0.705 A 
ATOM     33  H8  UNL     1      30.081  29.055  14.255  1.00  0.00     0.203 HD
HETATM   34  N10 UNL     1      33.106  28.710  15.418  1.00  0.00    -0.022 N 
ATOM     35  H10 UNL     1      33.980  29.230  15.499  1.00  0.00     0.203 HD
BRANCH  29  36
HETATM   36  N7  UNL     1      29.664  26.749  15.062  1.00  0.00    -0.234 N 
ATOM     37  H72 UNL     1      29.678  25.763  14.805  1.00  0.00     0.174 HD
ATOM     38  H71 UNL     1      28.765  27.208  15.212  1.00  0.00     0.174 HD
ENDBRANCH  29  36
BRANCH  32  39
HETATM   39  N9  UNL     1      32.148  30.477  14.367  1.00  0.00    -0.234 N 
ATOM     40  H92 UNL     1      31.410  31.152  14.565  1.00  0.00     0.174 HD
ATOM     41  H91 UNL     1      32.962  30.737  13.811  1.00  0.00     0.174 HD
ENDBRANCH  32  39
ENDBRANCH  23  27
ENDBRANCH  13  20
BRANCH  16  42
HETATM   42  N12 UNL     1      38.629  21.381  17.129  1.00  0.00    -0.234 N 
ATOM     43 2H12 UNL     1      37.745  20.877  17.206  1.00  0.00     0.174 HD
ATOM     44 1H12 UNL     1      39.479  20.818  17.137  1.00  0.00     0.174 HD
ENDBRANCH  16  42
ENDBRANCH   1  11
TORSDOF 9
ENDMDL
