MODEL 1
REMARK VINA RESULT: -8.483641683      0.000      0.000
REMARK  8 active torsions:
REMARK  status: ('A' for Active; 'I' for Inactive)
REMARK    1  A    between atoms: C4_6  and  S1_7 
REMARK    2  A    between atoms: S1_7  and  N2_8 
REMARK    3  A    between atoms: N2_8  and  N3_9 
REMARK    4  A    between atoms: C6_13  and  C7_14 
REMARK       I    between atoms: C7_14  and  N4_16 
REMARK    5  A    between atoms: N4_16  and  N5_18 
REMARK    6  A    between atoms: N5_18  and  C8_20 
REMARK    7  A    between atoms: C10_22  and  C11_23 
REMARK       I    between atoms: C11_23  and  N6_25 
REMARK    8  A    between atoms: N6_25  and  C12_27 
ROOT
HETATM    1  C1  UNL     1      43.989  24.490  18.347  1.00  0.00     0.164 C 
HETATM    2  N1  UNL     1      43.310  25.761  18.215  1.00  0.00    -0.270 N 
HETATM    3  C2  UNL     1      42.148  25.859  17.527  1.00  0.00     0.266 A 
HETATM    4  O1  UNL     1      41.658  24.797  17.010  1.00  0.00    -0.267 OA
HETATM    5  C3  UNL     1      41.505  27.065  17.380  1.00  0.00     0.095 A 
HETATM    6  C4  UNL     1      40.334  27.190  16.675  1.00  0.00     0.041 A 
HETATM    7  C5  UNL     1      39.698  28.425  16.524  1.00  0.00     0.056 A 
HETATM    8  C6  UNL     1      40.239  29.551  17.084  1.00  0.00     0.105 A 
HETATM    9  N8  UNL     1      41.390  29.419  17.776  1.00  0.00    -0.337 N 
ATOM     10  H8  UNL     1      41.804  30.249  18.199  1.00  0.00     0.167 HD
HETATM   11  C14 UNL     1      42.017  28.233  17.932  1.00  0.00     0.129 A 
HETATM   12  N9  UNL     1      43.175  28.098  18.612  1.00  0.00    -0.289 N 
HETATM   13  C15 UNL     1      43.746  29.297  19.206  1.00  0.00     0.163 C 
HETATM   14  C16 UNL     1      43.791  26.896  18.740  1.00  0.00     0.332 A 
HETATM   15  O5  UNL     1      44.870  26.868  19.394  1.00  0.00    -0.246 OA
ENDROOT
BRANCH   8  16
HETATM   16  C7  UNL     1      39.624  30.890  16.930  1.00  0.00     0.286 C 
HETATM   17  O2  UNL     1      39.323  31.237  15.753  1.00  0.00    -0.264 OA
HETATM   18  N4  UNL     1      39.378  31.742  18.006  1.00  0.00    -0.263 N 
ATOM     19  H4  UNL     1      39.654  31.412  18.931  1.00  0.00     0.190 HD
BRANCH  18  20
HETATM   20  N5  UNL     1      38.808  32.965  17.938  1.00  0.00    -0.283 N 
ATOM     21  H5  UNL     1      37.789  32.991  17.893  1.00  0.00     0.188 HD
BRANCH  20  22
HETATM   22  C8  UNL     1      39.466  34.204  17.924  1.00  0.00     0.120 A 
HETATM   23  C9  UNL     1      40.871  34.346  17.983  1.00  0.00     0.068 A 
HETATM   24  C10 UNL     1      41.183  35.705  17.985  1.00  0.00     0.051 A 
HETATM   25  C13 UNL     1      39.992  36.370  17.926  1.00  0.00     0.106 A 
HETATM   26  N7  UNL     1      39.008  35.446  17.894  1.00  0.00    -0.350 N 
ATOM     27  H7  UNL     1      38.016  35.681  17.850  1.00  0.00     0.166 HD
BRANCH  24  28
HETATM   28  C11 UNL     1      42.537  36.210  18.092  1.00  0.00     0.259 C 
HETATM   29  O3  UNL     1      43.052  36.804  17.130  1.00  0.00    -0.267 OA
HETATM   30  N6  UNL     1      43.250  36.023  19.284  1.00  0.00    -0.301 N 
ATOM     31  H6  UNL     1      42.823  35.497  20.046  1.00  0.00     0.171 HD
BRANCH  30  32
HETATM   32  C12 UNL     1      44.549  36.552  19.445  1.00  0.00     0.355 C 
HETATM   33  O4  UNL     1      44.653  37.631  20.118  1.00  0.00    -0.283 OA
ENDBRANCH  30  32
ENDBRANCH  24  28
ENDBRANCH  20  22
ENDBRANCH  18  20
ENDBRANCH   8  16
BRANCH   6  34
HETATM   34  S1  UNL     1      39.666  25.684  15.969  1.00  0.00    -0.000 SA
BRANCH  34  35
HETATM   35  N2  UNL     1      40.121  25.693  14.267  1.00  0.00    -0.068 NA
BRANCH  35  36
HETATM   36  N3  UNL     1      41.340  25.098  14.015  1.00  0.00    -0.337 N 
ATOM     37  H32 UNL     1      41.427  24.253  13.450  1.00  0.00     0.173 HD
ATOM     38  H31 UNL     1      42.129  25.582  14.443  1.00  0.00     0.173 HD
ENDBRANCH  35  36
ENDBRANCH  34  35
ENDBRANCH   6  34
TORSDOF 8
ENDMDL
MODEL 2
REMARK VINA RESULT: -8.468640638      5.257      9.052
REMARK  8 active torsions:
REMARK  status: ('A' for Active; 'I' for Inactive)
REMARK    1  A    between atoms: C4_6  and  S1_7 
REMARK    2  A    between atoms: S1_7  and  N2_8 
REMARK    3  A    between atoms: N2_8  and  N3_9 
REMARK    4  A    between atoms: C6_13  and  C7_14 
REMARK       I    between atoms: C7_14  and  N4_16 
REMARK    5  A    between atoms: N4_16  and  N5_18 
REMARK    6  A    between atoms: N5_18  and  C8_20 
REMARK    7  A    between atoms: C10_22  and  C11_23 
REMARK       I    between atoms: C11_23  and  N6_25 
REMARK    8  A    between atoms: N6_25  and  C12_27 
ROOT
HETATM    1  C1  UNL     1      45.184  28.023  19.289  1.00  0.00     0.164 C 
HETATM    2  N1  UNL     1      43.931  27.659  18.664  1.00  0.00    -0.270 N 
HETATM    3  C2  UNL     1      42.990  28.596  18.397  1.00  0.00     0.266 A 
HETATM    4  O1  UNL     1      43.244  29.812  18.699  1.00  0.00    -0.267 OA
HETATM    5  C3  UNL     1      41.789  28.257  17.820  1.00  0.00     0.095 A 
HETATM    6  C4  UNL     1      40.816  29.188  17.555  1.00  0.00     0.041 A 
HETATM    7  C5  UNL     1      39.596  28.827  16.979  1.00  0.00     0.056 A 
HETATM    8  C6  UNL     1      39.342  27.519  16.665  1.00  0.00     0.105 A 
HETATM    9  N8  UNL     1      40.305  26.611  16.928  1.00  0.00    -0.337 N 
ATOM     10  H8  UNL     1      40.130  25.633  16.699  1.00  0.00     0.167 HD
HETATM   11  C14 UNL     1      41.491  26.943  17.484  1.00  0.00     0.129 A 
HETATM   12  N9  UNL     1      42.451  26.037  17.762  1.00  0.00    -0.289 N 
HETATM   13  C15 UNL     1      42.178  24.648  17.425  1.00  0.00     0.163 C 
HETATM   14  C16 UNL     1      43.627  26.396  18.334  1.00  0.00     0.332 A 
HETATM   15  O5  UNL     1      44.465  25.479  18.555  1.00  0.00    -0.246 OA
ENDROOT
BRANCH   8  16
HETATM   16  C7  UNL     1      38.055  27.076  16.081  1.00  0.00     0.286 C 
HETATM   17  O2  UNL     1      37.863  27.361  14.864  1.00  0.00    -0.264 OA
HETATM   18  N4  UNL     1      37.089  26.379  16.807  1.00  0.00    -0.263 N 
ATOM     19  H4  UNL     1      37.296  26.189  17.788  1.00  0.00     0.190 HD
BRANCH  18  20
HETATM   20  N5  UNL     1      35.905  25.933  16.333  1.00  0.00    -0.283 N 
ATOM     21  H5  UNL     1      35.894  24.987  15.954  1.00  0.00     0.188 HD
BRANCH  20  22
HETATM   22  C8  UNL     1      34.689  26.633  16.307  1.00  0.00     0.120 A 
HETATM   23  C9  UNL     1      33.512  26.134  15.705  1.00  0.00     0.068 A 
HETATM   24  C10 UNL     1      32.507  27.094  15.829  1.00  0.00     0.051 A 
HETATM   25  C13 UNL     1      33.066  28.148  16.492  1.00  0.00     0.106 A 
HETATM   26  N7  UNL     1      34.352  27.834  16.752  1.00  0.00    -0.350 N 
ATOM     27  H7  UNL     1      34.997  28.455  17.241  1.00  0.00     0.166 HD
BRANCH  24  28
HETATM   28  C11 UNL     1      31.179  26.930  15.274  1.00  0.00     0.259 C 
HETATM   29  O3  UNL     1      30.209  27.485  15.817  1.00  0.00    -0.267 OA
HETATM   30  N6  UNL     1      31.004  26.147  14.124  1.00  0.00    -0.301 N 
ATOM     31  H6  UNL     1      31.806  25.667  13.717  1.00  0.00     0.171 HD
BRANCH  30  32
HETATM   32  C12 UNL     1      29.734  26.013  13.522  1.00  0.00     0.355 C 
HETATM   33  O4  UNL     1      29.584  25.045  12.704  1.00  0.00    -0.283 OA
ENDBRANCH  30  32
ENDBRANCH  24  28
ENDBRANCH  20  22
ENDBRANCH  18  20
ENDBRANCH   8  16
BRANCH   6  34
HETATM   34  S1  UNL     1      41.202  30.886  17.980  1.00  0.00    -0.000 SA
BRANCH  34  35
HETATM   35  N2  UNL     1      39.989  31.389  19.154  1.00  0.00    -0.068 NA
BRANCH  35  36
HETATM   36  N3  UNL     1      39.239  32.474  18.747  1.00  0.00    -0.337 N 
ATOM     37  H32 UNL     1      38.761  32.498  17.846  1.00  0.00     0.173 HD
ATOM     38  H31 UNL     1      39.214  33.234  19.427  1.00  0.00     0.173 HD
ENDBRANCH  35  36
ENDBRANCH  34  35
ENDBRANCH   6  34
TORSDOF 8
ENDMDL
MODEL 3
REMARK VINA RESULT: -8.393423389      2.130      3.612
REMARK  8 active torsions:
REMARK  status: ('A' for Active; 'I' for Inactive)
REMARK    1  A    between atoms: C4_6  and  S1_7 
REMARK    2  A    between atoms: S1_7  and  N2_8 
REMARK    3  A    between atoms: N2_8  and  N3_9 
REMARK    4  A    between atoms: C6_13  and  C7_14 
REMARK       I    between atoms: C7_14  and  N4_16 
REMARK    5  A    between atoms: N4_16  and  N5_18 
REMARK    6  A    between atoms: N5_18  and  C8_20 
REMARK    7  A    between atoms: C10_22  and  C11_23 
REMARK       I    between atoms: C11_23  and  N6_25 
REMARK    8  A    between atoms: N6_25  and  C12_27 
ROOT
HETATM    1  C1  UNL     1      39.524  22.723  16.943  1.00  0.00     0.164 C 
HETATM    2  N1  UNL     1      39.472  24.166  17.025  1.00  0.00    -0.270 N 
HETATM    3  C2  UNL     1      40.603  24.894  17.186  1.00  0.00     0.266 A 
HETATM    4  O1  UNL     1      41.719  24.273  17.248  1.00  0.00    -0.267 OA
HETATM    5  C3  UNL     1      40.562  26.265  17.284  1.00  0.00     0.095 A 
HETATM    6  C4  UNL     1      41.695  27.020  17.462  1.00  0.00     0.041 A 
HETATM    7  C5  UNL     1      41.636  28.411  17.572  1.00  0.00     0.056 A 
HETATM    8  C6  UNL     1      40.431  29.058  17.504  1.00  0.00     0.105 A 
HETATM    9  N8  UNL     1      39.323  28.307  17.328  1.00  0.00    -0.337 N 
ATOM     10  H8  UNL     1      38.419  28.776  17.276  1.00  0.00     0.167 HD
HETATM   11  C14 UNL     1      39.362  26.961  17.219  1.00  0.00     0.129 A 
HETATM   12  N9  UNL     1      38.257  26.206  17.057  1.00  0.00    -0.289 N 
HETATM   13  C15 UNL     1      36.978  26.896  16.984  1.00  0.00     0.163 C 
HETATM   14  C16 UNL     1      38.323  24.853  16.965  1.00  0.00     0.332 A 
HETATM   15  O5  UNL     1      37.236  24.231  16.814  1.00  0.00    -0.246 OA
ENDROOT
BRANCH   8  16
HETATM   16  C7  UNL     1      40.307  30.528  17.645  1.00  0.00     0.286 C 
HETATM   17  O2  UNL     1      40.027  31.170  16.592  1.00  0.00    -0.264 OA
HETATM   18  N4  UNL     1      40.483  31.194  18.857  1.00  0.00    -0.263 N 
ATOM     19  H4  UNL     1      40.719  30.623  19.669  1.00  0.00     0.190 HD
BRANCH  18  20
HETATM   20  N5  UNL     1      40.369  32.525  19.057  1.00  0.00    -0.283 N 
ATOM     21  H5  UNL     1      39.650  32.827  19.715  1.00  0.00     0.188 HD
BRANCH  20  22
HETATM   22  C8  UNL     1      41.133  33.537  18.457  1.00  0.00     0.120 A 
HETATM   23  C9  UNL     1      41.822  34.534  19.184  1.00  0.00     0.068 A 
HETATM   24  C10 UNL     1      42.445  35.394  18.281  1.00  0.00     0.051 A 
HETATM   25  C13 UNL     1      42.141  34.926  17.035  1.00  0.00     0.106 A 
HETATM   26  N7  UNL     1      41.365  33.832  17.187  1.00  0.00    -0.350 N 
ATOM     27  H7  UNL     1      40.996  33.290  16.406  1.00  0.00     0.166 HD
BRANCH  24  28
HETATM   28  C11 UNL     1      43.198  36.564  18.687  1.00  0.00     0.259 C 
HETATM   29  O3  UNL     1      43.042  37.639  18.084  1.00  0.00    -0.267 OA
HETATM   30  N6  UNL     1      44.094  36.469  19.760  1.00  0.00    -0.301 N 
ATOM     31  H6  UNL     1      44.237  35.567  20.216  1.00  0.00     0.171 HD
BRANCH  30  32
HETATM   32  C12 UNL     1      44.801  37.601  20.221  1.00  0.00     0.355 C 
HETATM   33  O4  UNL     1      46.010  37.724  19.830  1.00  0.00    -0.283 OA
ENDBRANCH  30  32
ENDBRANCH  24  28
ENDBRANCH  20  22
ENDBRANCH  18  20
ENDBRANCH   8  16
BRANCH   6  34
HETATM   34  S1  UNL     1      43.245  26.125  17.537  1.00  0.00    -0.000 SA
BRANCH  34  35
HETATM   35  N2  UNL     1      44.022  26.607  19.043  1.00  0.00    -0.068 NA
BRANCH  35  36
HETATM   36  N3  UNL     1      44.879  27.679  18.907  1.00  0.00    -0.337 N 
ATOM     37  H32 UNL     1      44.875  28.278  18.081  1.00  0.00     0.173 HD
ATOM     38  H31 UNL     1      45.506  27.807  19.701  1.00  0.00     0.173 HD
ENDBRANCH  35  36
ENDBRANCH  34  35
ENDBRANCH   6  34
TORSDOF 8
ENDMDL
MODEL 4
REMARK VINA RESULT: -8.382526248      4.100      9.701
REMARK  8 active torsions:
REMARK  status: ('A' for Active; 'I' for Inactive)
REMARK    1  A    between atoms: C4_6  and  S1_7 
REMARK    2  A    between atoms: S1_7  and  N2_8 
REMARK    3  A    between atoms: N2_8  and  N3_9 
REMARK    4  A    between atoms: C6_13  and  C7_14 
REMARK       I    between atoms: C7_14  and  N4_16 
REMARK    5  A    between atoms: N4_16  and  N5_18 
REMARK    6  A    between atoms: N5_18  and  C8_20 
REMARK    7  A    between atoms: C10_22  and  C11_23 
REMARK       I    between atoms: C11_23  and  N6_25 
REMARK    8  A    between atoms: N6_25  and  C12_27 
ROOT
HETATM    1  C1  UNL     1      42.249  34.161  17.625  1.00  0.00     0.164 C 
HETATM    2  N1  UNL     1      41.312  33.104  17.313  1.00  0.00    -0.270 N 
HETATM    3  C2  UNL     1      41.600  31.813  17.603  1.00  0.00     0.266 A 
HETATM    4  O1  UNL     1      42.714  31.553  18.172  1.00  0.00    -0.267 OA
HETATM    5  C3  UNL     1      40.723  30.799  17.294  1.00  0.00     0.095 A 
HETATM    6  C4  UNL     1      41.002  29.482  17.565  1.00  0.00     0.041 A 
HETATM    7  C5  UNL     1      40.106  28.463  17.234  1.00  0.00     0.056 A 
HETATM    8  C6  UNL     1      38.918  28.760  16.623  1.00  0.00     0.105 A 
HETATM    9  N8  UNL     1      38.653  30.057  16.361  1.00  0.00    -0.337 N 
ATOM     10  H8  UNL     1      37.771  30.293  15.907  1.00  0.00     0.167 HD
HETATM   11  C14 UNL     1      39.506  31.055  16.675  1.00  0.00     0.129 A 
HETATM   12  N9  UNL     1      39.252  32.352  16.403  1.00  0.00    -0.289 N 
HETATM   13  C15 UNL     1      37.987  32.664  15.755  1.00  0.00     0.163 C 
HETATM   14  C16 UNL     1      40.134  33.334  16.716  1.00  0.00     0.332 A 
HETATM   15  O5  UNL     1      39.808  34.517  16.423  1.00  0.00    -0.246 OA
ENDROOT
BRANCH   8  16
HETATM   16  C7  UNL     1      37.946  27.716  16.223  1.00  0.00     0.286 C 
HETATM   17  O2  UNL     1      38.079  27.241  15.059  1.00  0.00    -0.264 OA
HETATM   18  N4  UNL     1      36.929  27.261  17.062  1.00  0.00    -0.263 N 
ATOM     19  H4  UNL     1      36.864  27.690  17.985  1.00  0.00     0.190 HD
BRANCH  18  20
HETATM   20  N5  UNL     1      36.022  26.304  16.767  1.00  0.00    -0.283 N 
ATOM     21  H5  UNL     1      35.254  26.579  16.155  1.00  0.00     0.188 HD
BRANCH  20  22
HETATM   22  C8  UNL     1      36.024  24.973  17.212  1.00  0.00     0.120 A 
HETATM   23  C9  UNL     1      37.173  24.152  17.220  1.00  0.00     0.068 A 
HETATM   24  C10 UNL     1      36.815  22.888  17.687  1.00  0.00     0.051 A 
HETATM   25  C13 UNL     1      35.478  22.945  17.955  1.00  0.00     0.106 A 
HETATM   26  N7  UNL     1      35.053  24.192  17.659  1.00  0.00    -0.350 N 
ATOM     27  H7  UNL     1      34.087  24.499  17.769  1.00  0.00     0.166 HD
BRANCH  24  28
HETATM   28  C11 UNL     1      37.744  21.780  17.775  1.00  0.00     0.259 C 
HETATM   29  O3  UNL     1      38.904  21.910  17.350  1.00  0.00    -0.267 OA
HETATM   30  N6  UNL     1      37.322  20.570  18.344  1.00  0.00    -0.301 N 
ATOM     31  H6  UNL     1      36.354  20.470  18.650  1.00  0.00     0.171 HD
BRANCH  30  32
HETATM   32  C12 UNL     1      38.216  19.488  18.499  1.00  0.00     0.355 C 
HETATM   33  O4  UNL     1      38.828  19.402  19.616  1.00  0.00    -0.283 OA
ENDBRANCH  30  32
ENDBRANCH  24  28
ENDBRANCH  20  22
ENDBRANCH  18  20
ENDBRANCH   8  16
BRANCH   6  34
HETATM   34  S1  UNL     1      42.567  29.150  18.371  1.00  0.00    -0.000 SA
BRANCH  34  35
HETATM   35  N2  UNL     1      42.960  27.471  18.013  1.00  0.00    -0.068 NA
BRANCH  35  36
HETATM   36  N3  UNL     1      44.235  27.105  18.395  1.00  0.00    -0.337 N 
ATOM     37  H32 UNL     1      45.067  27.575  18.036  1.00  0.00     0.173 HD
ATOM     38  H31 UNL     1      44.258  26.332  19.060  1.00  0.00     0.173 HD
ENDBRANCH  35  36
ENDBRANCH  34  35
ENDBRANCH   6  34
TORSDOF 8
ENDMDL
MODEL 5
REMARK VINA RESULT: -8.311911170      4.732      8.252
REMARK  8 active torsions:
REMARK  status: ('A' for Active; 'I' for Inactive)
REMARK    1  A    between atoms: C4_6  and  S1_7 
REMARK    2  A    between atoms: S1_7  and  N2_8 
REMARK    3  A    between atoms: N2_8  and  N3_9 
REMARK    4  A    between atoms: C6_13  and  C7_14 
REMARK       I    between atoms: C7_14  and  N4_16 
REMARK    5  A    between atoms: N4_16  and  N5_18 
REMARK    6  A    between atoms: N5_18  and  C8_20 
REMARK    7  A    between atoms: C10_22  and  C11_23 
REMARK       I    between atoms: C11_23  and  N6_25 
REMARK    8  A    between atoms: N6_25  and  C12_27 
ROOT
HETATM    1  C1  UNL     1      45.203  28.025  19.336  1.00  0.00     0.164 C 
HETATM    2  N1  UNL     1      43.954  27.640  18.714  1.00  0.00    -0.270 N 
HETATM    3  C2  UNL     1      43.009  28.566  18.426  1.00  0.00     0.266 A 
HETATM    4  O1  UNL     1      43.254  29.790  18.702  1.00  0.00    -0.267 OA
HETATM    5  C3  UNL     1      41.811  28.208  17.852  1.00  0.00     0.095 A 
HETATM    6  C4  UNL     1      40.833  29.127  17.564  1.00  0.00     0.041 A 
HETATM    7  C5  UNL     1      39.617  28.746  16.993  1.00  0.00     0.056 A 
HETATM    8  C6  UNL     1      39.372  27.431  16.705  1.00  0.00     0.105 A 
HETATM    9  N8  UNL     1      40.340  26.534  16.991  1.00  0.00    -0.337 N 
ATOM     10  H8  UNL     1      40.171  25.550  16.781  1.00  0.00     0.167 HD
HETATM   11  C14 UNL     1      41.522  26.885  17.542  1.00  0.00     0.129 A 
HETATM   12  N9  UNL     1      42.487  25.991  17.842  1.00  0.00    -0.289 N 
HETATM   13  C15 UNL     1      42.223  24.594  17.534  1.00  0.00     0.163 C 
HETATM   14  C16 UNL     1      43.659  26.369  18.410  1.00  0.00     0.332 A 
HETATM   15  O5  UNL     1      44.501  25.462  18.654  1.00  0.00    -0.246 OA
ENDROOT
BRANCH   8  16
HETATM   16  C7  UNL     1      38.089  26.967  16.127  1.00  0.00     0.286 C 
HETATM   17  O2  UNL     1      37.881  27.263  14.916  1.00  0.00    -0.264 OA
HETATM   18  N4  UNL     1      37.145  26.243  16.853  1.00  0.00    -0.263 N 
ATOM     19  H4  UNL     1      37.364  26.046  17.830  1.00  0.00     0.190 HD
BRANCH  18  20
HETATM   20  N5  UNL     1      35.966  25.778  16.384  1.00  0.00    -0.283 N 
ATOM     21  H5  UNL     1      35.756  24.798  16.572  1.00  0.00     0.188 HD
BRANCH  20  22
HETATM   22  C8  UNL     1      35.000  26.499  15.666  1.00  0.00     0.120 A 
HETATM   23  C9  UNL     1      33.820  27.019  16.244  1.00  0.00     0.068 A 
HETATM   24  C10 UNL     1      33.072  27.644  15.247  1.00  0.00     0.051 A 
HETATM   25  C13 UNL     1      33.786  27.505  14.091  1.00  0.00     0.106 A 
HETATM   26  N7  UNL     1      34.913  26.823  14.385  1.00  0.00    -0.350 N 
ATOM     27  H7  UNL     1      35.623  26.583  13.693  1.00  0.00     0.166 HD
BRANCH  24  28
HETATM   28  C11 UNL     1      31.774  28.242  15.483  1.00  0.00     0.259 C 
HETATM   29  O3  UNL     1      30.789  27.516  15.696  1.00  0.00    -0.267 OA
HETATM   30  N6  UNL     1      31.646  29.637  15.472  1.00  0.00    -0.301 N 
ATOM     31  H6  UNL     1      32.458  30.214  15.255  1.00  0.00     0.171 HD
BRANCH  30  32
HETATM   32  C12 UNL     1      30.409  30.257  15.756  1.00  0.00     0.355 C 
HETATM   33  O4  UNL     1      30.450  31.468  16.157  1.00  0.00    -0.283 OA
ENDBRANCH  30  32
ENDBRANCH  24  28
ENDBRANCH  20  22
ENDBRANCH  18  20
ENDBRANCH   8  16
BRANCH   6  34
HETATM   34  S1  UNL     1      41.208  30.835  17.955  1.00  0.00    -0.000 SA
BRANCH  34  35
HETATM   35  N2  UNL     1      39.998  31.351  19.126  1.00  0.00    -0.068 NA
BRANCH  35  36
HETATM   36  N3  UNL     1      39.253  32.437  18.713  1.00  0.00    -0.337 N 
ATOM     37  H32 UNL     1      38.242  32.386  18.582  1.00  0.00     0.173 HD
ATOM     38  H31 UNL     1      39.806  33.279  18.556  1.00  0.00     0.173 HD
ENDBRANCH  35  36
ENDBRANCH  34  35
ENDBRANCH   6  34
TORSDOF 8
ENDMDL
