MODEL 1
REMARK VINA RESULT: -9.362458509      0.000      0.000
REMARK  7 active torsions:
REMARK  status: ('A' for Active; 'I' for Inactive)
REMARK    1  A    between atoms: C2_2  and  O1_3 
REMARK    2  A    between atoms: O1_3  and  C3_4 
REMARK       I    between atoms: C3_4  and  N1_6 
REMARK    3  A    between atoms: C4_7  and  N2_8 
REMARK    4  A    between atoms: N2_8  and  N3_10 
REMARK       I    between atoms: N3_10  and  C5_12 
REMARK       I    between atoms: C5_12  and  N4_14 
REMARK    5  A    between atoms: N4_14  and  N5_16 
REMARK       I    between atoms: N5_16  and  C6_17 
REMARK       I    between atoms: C6_17  and  N7_19 
REMARK    6  A    between atoms: C9_26  and  C10_27 
REMARK    7  A    between atoms: N9_28  and  N10_30 
REMARK       I    between atoms: N10_30  and  C11_31 
ROOT
HETATM    1  N5  UNL     1      40.353  31.477  18.163  1.00  0.00    -0.286 NA
HETATM    2  C6  UNL     1      41.546  31.918  18.029  1.00  0.00     0.298 C 
HETATM    3  N6  UNL     1      41.844  33.051  17.204  1.00  0.00    -0.046 NA
HETATM    4  N7  UNL     1      42.599  31.309  18.746  1.00  0.00    -0.254 N 
ATOM      5  H7  UNL     1      43.137  31.912  19.369  1.00  0.00     0.182 HD
HETATM    6  C7  UNL     1      42.974  29.987  18.692  1.00  0.00     0.185 C 
HETATM    7  N8  UNL     1      43.313  28.888  18.651  1.00  0.00    -0.172 NA
ENDROOT
BRANCH   1   8
HETATM    8  N4  UNL     1      39.242  31.031  18.314  1.00  0.00    -0.180 N 
HETATM    9  C5  UNL     1      38.746  30.015  17.380  1.00  0.00     0.364 C 
HETATM   10  N3  UNL     1      37.419  29.497  17.544  1.00  0.00    -0.246 N 
HETATM   11  O3  UNL     1      39.482  29.609  16.449  1.00  0.00    -0.243 OA
ATOM     12  H3  UNL     1      36.766  29.754  18.284  1.00  0.00     0.192 HD
ATOM     13  H4  UNL     1      38.654  31.357  19.082  1.00  0.00     0.207 HD
BRANCH  10  14
HETATM   14  N2  UNL     1      37.156  28.525  16.456  1.00  0.00    -0.260 N 
ATOM     15  H2  UNL     1      36.930  28.765  15.491  1.00  0.00     0.190 HD
BRANCH  14  16
HETATM   16  C4  UNL     1      37.262  27.282  16.944  1.00  0.00     0.258 A 
HETATM   17  N1  UNL     1      36.167  26.532  16.946  1.00  0.00    -0.185 N 
HETATM   18  C3  UNL     1      34.946  27.041  16.459  1.00  0.00     0.377 C 
HETATM   19  C12 UNL     1      36.217  25.261  17.436  1.00  0.00     0.274 A 
HETATM   20  O2  UNL     1      34.857  28.178  15.968  1.00  0.00    -0.237 OA
HETATM   21  C9  UNL     1      37.405  24.779  17.920  1.00  0.00     0.092 A 
HETATM   22  O6  UNL     1      35.174  24.546  17.443  1.00  0.00    -0.266 OA
HETATM   23  C8  UNL     1      38.511  25.620  17.874  1.00  0.00     0.144 A 
HETATM   24  O4  UNL     1      38.413  26.837  17.396  1.00  0.00    -0.269 OA
HETATM   25  S1  UNL     1      40.069  24.984  18.475  1.00  0.00    -0.024 SA
BRANCH  18  26
HETATM   26  O1  UNL     1      33.821  26.256  16.539  1.00  0.00    -0.304 OA
BRANCH  26  27
HETATM   27  C2  UNL     1      32.763  26.520  15.612  1.00  0.00     0.176 C 
HETATM   28  C1  UNL     1      33.150  25.773  14.326  1.00  0.00     0.034 C 
ENDBRANCH  26  27
ENDBRANCH  18  26
BRANCH  21  29
HETATM   29  C10 UNL     1      37.516  23.477  18.601  1.00  0.00     0.141 C 
HETATM   30  N9  UNL     1      37.652  22.472  17.849  1.00  0.00    -0.241 N 
ATOM     31  H9  UNL     1      37.660  22.696  16.853  1.00  0.00     0.201 HD
BRANCH  30  32
HETATM   32  N10 UNL     1      37.786  21.190  18.113  1.00  0.00    -0.268 NA
HETATM   33  C11 UNL     1      37.932  19.882  18.375  1.00  0.00     0.424 C 
HETATM   34  N11 UNL     1      36.935  19.198  19.217  1.00  0.00    -0.024 NA
HETATM   35  O5  UNL     1      38.837  19.103  17.993  1.00  0.00    -0.232 OA
ENDBRANCH  30  32
ENDBRANCH  21  29
ENDBRANCH  14  16
ENDBRANCH  10  14
ENDBRANCH   1   8
TORSDOF 7
ENDMDL
MODEL 2
REMARK VINA RESULT: -9.288310811      1.102      1.111
REMARK  7 active torsions:
REMARK  status: ('A' for Active; 'I' for Inactive)
REMARK    1  A    between atoms: C2_2  and  O1_3 
REMARK    2  A    between atoms: O1_3  and  C3_4 
REMARK       I    between atoms: C3_4  and  N1_6 
REMARK    3  A    between atoms: C4_7  and  N2_8 
REMARK    4  A    between atoms: N2_8  and  N3_10 
REMARK       I    between atoms: N3_10  and  C5_12 
REMARK       I    between atoms: C5_12  and  N4_14 
REMARK    5  A    between atoms: N4_14  and  N5_16 
REMARK       I    between atoms: N5_16  and  C6_17 
REMARK       I    between atoms: C6_17  and  N7_19 
REMARK    6  A    between atoms: C9_26  and  C10_27 
REMARK    7  A    between atoms: N9_28  and  N10_30 
REMARK       I    between atoms: N10_30  and  C11_31 
ROOT
HETATM    1  N5  UNL     1      40.399  31.777  16.647  1.00  0.00    -0.286 NA
HETATM    2  C6  UNL     1      41.379  32.419  17.158  1.00  0.00     0.298 C 
HETATM    3  N6  UNL     1      41.866  33.638  16.583  1.00  0.00    -0.046 NA
HETATM    4  N7  UNL     1      41.975  31.949  18.349  1.00  0.00    -0.254 N 
ATOM      5  H7  UNL     1      41.982  32.591  19.142  1.00  0.00     0.182 HD
HETATM    6  C7  UNL     1      42.547  30.714  18.550  1.00  0.00     0.185 C 
HETATM    7  N8  UNL     1      43.043  29.692  18.736  1.00  0.00    -0.172 NA
ENDROOT
BRANCH   1   8
HETATM    8  N4  UNL     1      39.477  31.143  16.194  1.00  0.00    -0.180 N 
HETATM    9  C5  UNL     1      38.675  30.304  17.092  1.00  0.00     0.364 C 
HETATM   10  N3  UNL     1      37.593  29.535  16.554  1.00  0.00    -0.246 N 
HETATM   11  O3  UNL     1      38.943  30.267  18.317  1.00  0.00    -0.243 OA
ATOM     12  H3  UNL     1      37.294  29.525  15.579  1.00  0.00     0.192 HD
ATOM     13  H4  UNL     1      39.258  31.189  15.199  1.00  0.00     0.207 HD
BRANCH  10  14
HETATM   14  N2  UNL     1      36.979  28.754  17.655  1.00  0.00    -0.260 N 
ATOM     15  H2  UNL     1      36.387  29.137  18.394  1.00  0.00     0.190 HD
BRANCH  14  16
HETATM   16  C4  UNL     1      37.326  27.467  17.526  1.00  0.00     0.258 A 
HETATM   17  N1  UNL     1      36.367  26.606  17.207  1.00  0.00    -0.185 N 
HETATM   18  C3  UNL     1      35.039  27.044  17.025  1.00  0.00     0.377 C 
HETATM   19  C12 UNL     1      36.663  25.283  17.067  1.00  0.00     0.274 A 
HETATM   20  O2  UNL     1      34.725  28.243  17.103  1.00  0.00    -0.237 OA
HETATM   21  C9  UNL     1      37.953  24.864  17.259  1.00  0.00     0.092 A 
HETATM   22  O6  UNL     1      35.750  24.460  16.768  1.00  0.00    -0.266 OA
HETATM   23  C8  UNL     1      38.904  25.826  17.580  1.00  0.00     0.144 A 
HETATM   24  O4  UNL     1      38.571  27.088  17.706  1.00  0.00    -0.269 OA
HETATM   25  S1  UNL     1      40.594  25.289  17.801  1.00  0.00    -0.024 SA
BRANCH  18  26
HETATM   26  O1  UNL     1      34.064  26.112  16.760  1.00  0.00    -0.304 OA
BRANCH  26  27
HETATM   27  C2  UNL     1      33.054  26.464  15.809  1.00  0.00     0.176 C 
HETATM   28  C1  UNL     1      33.657  26.140  14.433  1.00  0.00     0.034 C 
ENDBRANCH  26  27
ENDBRANCH  18  26
BRANCH  21  29
HETATM   29  C10 UNL     1      38.334  23.441  17.275  1.00  0.00     0.141 C 
HETATM   30  N9  UNL     1      37.641  22.694  18.021  1.00  0.00    -0.241 N 
ATOM     31  H9  UNL     1      36.903  23.182  18.529  1.00  0.00     0.201 HD
BRANCH  30  32
HETATM   32  N10 UNL     1      37.698  21.403  18.265  1.00  0.00    -0.268 NA
HETATM   33  C11 UNL     1      37.744  20.086  18.522  1.00  0.00     0.424 C 
HETATM   34  N11 UNL     1      38.841  19.279  17.959  1.00  0.00    -0.024 NA
HETATM   35  O5  UNL     1      36.956  19.392  19.208  1.00  0.00    -0.232 OA
ENDBRANCH  30  32
ENDBRANCH  21  29
ENDBRANCH  14  16
ENDBRANCH  10  14
ENDBRANCH   1   8
TORSDOF 7
ENDMDL
MODEL 3
REMARK VINA RESULT: -8.929260593      2.626      5.734
REMARK  7 active torsions:
REMARK  status: ('A' for Active; 'I' for Inactive)
REMARK    1  A    between atoms: C2_2  and  O1_3 
REMARK    2  A    between atoms: O1_3  and  C3_4 
REMARK       I    between atoms: C3_4  and  N1_6 
REMARK    3  A    between atoms: C4_7  and  N2_8 
REMARK    4  A    between atoms: N2_8  and  N3_10 
REMARK       I    between atoms: N3_10  and  C5_12 
REMARK       I    between atoms: C5_12  and  N4_14 
REMARK    5  A    between atoms: N4_14  and  N5_16 
REMARK       I    between atoms: N5_16  and  C6_17 
REMARK       I    between atoms: C6_17  and  N7_19 
REMARK    6  A    between atoms: C9_26  and  C10_27 
REMARK    7  A    between atoms: N9_28  and  N10_30 
REMARK       I    between atoms: N10_30  and  C11_31 
ROOT
HETATM    1  N5  UNL     1      43.539  27.236  19.040  1.00  0.00    -0.286 NA
HETATM    2  C6  UNL     1      44.258  28.292  18.994  1.00  0.00     0.298 C 
HETATM    3  N6  UNL     1      45.637  28.286  19.383  1.00  0.00    -0.046 NA
HETATM    4  N7  UNL     1      43.701  29.493  18.501  1.00  0.00    -0.254 N 
ATOM      5  H7  UNL     1      44.168  29.920  17.700  1.00  0.00     0.182 HD
HETATM    6  C7  UNL     1      42.593  30.147  18.989  1.00  0.00     0.185 C 
HETATM    7  N8  UNL     1      41.678  30.717  19.390  1.00  0.00    -0.172 NA
ENDROOT
BRANCH   1   8
HETATM    8  N4  UNL     1      42.829  26.261  19.071  1.00  0.00    -0.180 N 
HETATM    9  C5  UNL     1      42.069  25.891  17.873  1.00  0.00     0.364 C 
HETATM   10  N3  UNL     1      41.210  24.744  17.911  1.00  0.00    -0.246 N 
HETATM   11  O3  UNL     1      42.177  26.577  16.828  1.00  0.00    -0.243 OA
ATOM     12  H3  UNL     1      41.082  24.121  18.708  1.00  0.00     0.192 HD
ATOM     13  H4  UNL     1      42.757  25.701  19.921  1.00  0.00     0.207 HD
BRANCH  10  14
HETATM   14  N2  UNL     1      40.536  24.618  16.597  1.00  0.00    -0.260 N 
ATOM     15  H2  UNL     1      40.984  24.325  15.728  1.00  0.00     0.190 HD
BRANCH  14  16
HETATM   16  C4  UNL     1      39.246  24.949  16.732  1.00  0.00     0.258 A 
HETATM   17  N1  UNL     1      38.374  23.959  16.884  1.00  0.00    -0.185 N 
HETATM   18  C3  UNL     1      38.805  22.617  16.891  1.00  0.00     0.377 C 
HETATM   19  C12 UNL     1      37.047  24.239  17.021  1.00  0.00     0.274 A 
HETATM   20  O2  UNL     1      40.006  22.311  16.808  1.00  0.00    -0.237 OA
HETATM   21  C9  UNL     1      36.635  25.546  17.000  1.00  0.00     0.092 A 
HETATM   22  O6  UNL     1      36.214  23.298  17.162  1.00  0.00    -0.266 OA
HETATM   23  C8  UNL     1      37.608  26.528  16.848  1.00  0.00     0.144 A 
HETATM   24  O4  UNL     1      38.873  26.209  16.717  1.00  0.00    -0.269 OA
HETATM   25  S1  UNL     1      37.079  28.235  16.851  1.00  0.00    -0.024 SA
BRANCH  18  26
HETATM   26  O1  UNL     1      37.864  21.619  16.985  1.00  0.00    -0.304 OA
BRANCH  26  27
HETATM   27  C2  UNL     1      38.320  20.315  17.362  1.00  0.00     0.176 C 
HETATM   28  C1  UNL     1      37.656  20.027  18.717  1.00  0.00     0.034 C 
ENDBRANCH  26  27
ENDBRANCH  18  26
BRANCH  21  29
HETATM   29  C10 UNL     1      35.214  25.932  16.992  1.00  0.00     0.141 C 
HETATM   30  N9  UNL     1      34.641  25.899  15.868  1.00  0.00    -0.241 N 
ATOM     31  H9  UNL     1      35.248  25.611  15.100  1.00  0.00     0.201 HD
BRANCH  30  32
HETATM   32  N10 UNL     1      33.405  26.167  15.505  1.00  0.00    -0.268 NA
HETATM   33  C11 UNL     1      32.142  26.447  15.145  1.00  0.00     0.424 C 
HETATM   34  N11 UNL     1      31.622  25.925  13.869  1.00  0.00    -0.024 NA
HETATM   35  O5  UNL     1      31.283  27.121  15.762  1.00  0.00    -0.232 OA
ENDBRANCH  30  32
ENDBRANCH  21  29
ENDBRANCH  14  16
ENDBRANCH  10  14
ENDBRANCH   1   8
TORSDOF 7
ENDMDL
MODEL 4
REMARK VINA RESULT: -8.869092196      3.019      9.096
REMARK  7 active torsions:
REMARK  status: ('A' for Active; 'I' for Inactive)
REMARK    1  A    between atoms: C2_2  and  O1_3 
REMARK    2  A    between atoms: O1_3  and  C3_4 
REMARK       I    between atoms: C3_4  and  N1_6 
REMARK    3  A    between atoms: C4_7  and  N2_8 
REMARK    4  A    between atoms: N2_8  and  N3_10 
REMARK       I    between atoms: N3_10  and  C5_12 
REMARK       I    between atoms: C5_12  and  N4_14 
REMARK    5  A    between atoms: N4_14  and  N5_16 
REMARK       I    between atoms: N5_16  and  C6_17 
REMARK       I    between atoms: C6_17  and  N7_19 
REMARK    6  A    between atoms: C9_26  and  C10_27 
REMARK    7  A    between atoms: N9_28  and  N10_30 
REMARK       I    between atoms: N10_30  and  C11_31 
ROOT
HETATM    1  N5  UNL     1      37.461  23.403  18.255  1.00  0.00    -0.286 NA
HETATM    2  C6  UNL     1      36.578  22.485  18.140  1.00  0.00     0.298 C 
HETATM    3  N6  UNL     1      35.181  22.754  18.312  1.00  0.00    -0.046 NA
HETATM    4  N7  UNL     1      36.974  21.177  17.785  1.00  0.00    -0.254 N 
ATOM      5  H7  UNL     1      36.558  20.785  16.940  1.00  0.00     0.182 HD
HETATM    6  C7  UNL     1      37.864  20.376  18.463  1.00  0.00     0.185 C 
HETATM    7  N8  UNL     1      38.595  19.684  19.022  1.00  0.00    -0.172 NA
ENDROOT
BRANCH   1   8
HETATM    8  N4  UNL     1      38.323  24.241  18.356  1.00  0.00    -0.180 N 
HETATM    9  C5  UNL     1      38.292  25.410  17.470  1.00  0.00     0.364 C 
HETATM   10  N3  UNL     1      39.325  26.398  17.574  1.00  0.00    -0.246 N 
HETATM   11  O3  UNL     1      37.367  25.534  16.631  1.00  0.00    -0.243 OA
ATOM     12  H3  UNL     1      40.097  26.385  18.240  1.00  0.00     0.192 HD
ATOM     13  H4  UNL     1      39.064  24.139  19.049  1.00  0.00     0.207 HD
BRANCH  10  14
HETATM   14  N2  UNL     1      39.083  27.441  16.548  1.00  0.00    -0.260 N 
ATOM     15  H2  UNL     1      38.533  27.317  15.697  1.00  0.00     0.190 HD
BRANCH  14  16
HETATM   16  C4  UNL     1      39.700  28.570  16.918  1.00  0.00     0.258 A 
HETATM   17  N1  UNL     1      39.089  29.717  16.644  1.00  0.00    -0.185 N 
HETATM   18  C3  UNL     1      37.846  29.729  15.981  1.00  0.00     0.377 C 
HETATM   19  C12 UNL     1      39.676  30.897  16.993  1.00  0.00     0.274 A 
HETATM   20  O2  UNL     1      37.253  28.680  15.676  1.00  0.00    -0.237 OA
HETATM   21  C9  UNL     1      40.891  30.877  17.626  1.00  0.00     0.092 A 
HETATM   22  O6  UNL     1      39.099  31.991  16.730  1.00  0.00    -0.266 OA
HETATM   23  C8  UNL     1      41.463  29.638  17.889  1.00  0.00     0.144 A 
HETATM   24  O4  UNL     1      40.862  28.528  17.531  1.00  0.00    -0.269 OA
HETATM   25  S1  UNL     1      43.033  29.605  18.741  1.00  0.00    -0.024 SA
BRANCH  18  26
HETATM   26  O1  UNL     1      37.278  30.938  15.657  1.00  0.00    -0.304 OA
BRANCH  26  27
HETATM   27  C2  UNL     1      36.739  31.084  14.339  1.00  0.00     0.176 C 
HETATM   28  C1  UNL     1      37.955  31.283  13.421  1.00  0.00     0.034 C 
ENDBRANCH  26  27
ENDBRANCH  18  26
BRANCH  21  29
HETATM   29  C10 UNL     1      41.663  32.101  17.905  1.00  0.00     0.141 C 
HETATM   30  N9  UNL     1      41.064  32.989  18.573  1.00  0.00    -0.241 N 
ATOM     31  H9  UNL     1      40.107  32.742  18.829  1.00  0.00     0.201 HD
BRANCH  30  32
HETATM   32  N10 UNL     1      41.446  34.174  18.998  1.00  0.00    -0.268 NA
HETATM   33  C11 UNL     1      41.841  35.377  19.443  1.00  0.00     0.424 C 
HETATM   34  N11 UNL     1      41.449  36.586  18.698  1.00  0.00    -0.024 NA
HETATM   35  O5  UNL     1      42.532  35.651  20.453  1.00  0.00    -0.232 OA
ENDBRANCH  30  32
ENDBRANCH  21  29
ENDBRANCH  14  16
ENDBRANCH  10  14
ENDBRANCH   1   8
TORSDOF 7
ENDMDL
MODEL 5
REMARK VINA RESULT: -8.846834652      1.428      1.884
REMARK  7 active torsions:
REMARK  status: ('A' for Active; 'I' for Inactive)
REMARK    1  A    between atoms: C2_2  and  O1_3 
REMARK    2  A    between atoms: O1_3  and  C3_4 
REMARK       I    between atoms: C3_4  and  N1_6 
REMARK    3  A    between atoms: C4_7  and  N2_8 
REMARK    4  A    between atoms: N2_8  and  N3_10 
REMARK       I    between atoms: N3_10  and  C5_12 
REMARK       I    between atoms: C5_12  and  N4_14 
REMARK    5  A    between atoms: N4_14  and  N5_16 
REMARK       I    between atoms: N5_16  and  C6_17 
REMARK       I    between atoms: C6_17  and  N7_19 
REMARK    6  A    between atoms: C9_26  and  C10_27 
REMARK    7  A    between atoms: N9_28  and  N10_30 
REMARK       I    between atoms: N10_30  and  C11_31 
ROOT
HETATM    1  N5  UNL     1      40.057  32.458  18.073  1.00  0.00    -0.286 NA
HETATM    2  C6  UNL     1      40.963  33.300  17.749  1.00  0.00     0.298 C 
HETATM    3  N6  UNL     1      41.509  34.225  18.697  1.00  0.00    -0.046 NA
HETATM    4  N7  UNL     1      41.482  33.294  16.435  1.00  0.00    -0.254 N 
ATOM      5  H7  UNL     1      42.488  33.153  16.341  1.00  0.00     0.182 HD
HETATM    6  C7  UNL     1      40.770  33.457  15.270  1.00  0.00     0.185 C 
HETATM    7  N8  UNL     1      40.197  33.607  14.283  1.00  0.00    -0.172 NA
ENDROOT
BRANCH   1   8
HETATM    8  N4  UNL     1      39.201  31.650  18.341  1.00  0.00    -0.180 N 
HETATM    9  C5  UNL     1      38.909  30.574  17.387  1.00  0.00     0.364 C 
HETATM   10  N3  UNL     1      37.880  29.624  17.692  1.00  0.00    -0.246 N 
HETATM   11  O3  UNL     1      39.558  30.496  16.316  1.00  0.00    -0.243 OA
ATOM     12  H3  UNL     1      37.323  29.603  18.546  1.00  0.00     0.192 HD
ATOM     13  H4  UNL     1      38.687  31.713  19.219  1.00  0.00     0.207 HD
BRANCH  10  14
HETATM   14  N2  UNL     1      37.762  28.679  16.556  1.00  0.00    -0.260 N 
ATOM     15  H2  UNL     1      37.620  28.941  15.580  1.00  0.00     0.190 HD
BRANCH  14  16
HETATM   16  C4  UNL     1      37.872  27.426  17.016  1.00  0.00     0.258 A 
HETATM   17  N1  UNL     1      36.752  26.724  17.147  1.00  0.00    -0.185 N 
HETATM   18  C3  UNL     1      35.505  27.293  16.820  1.00  0.00     0.377 C 
HETATM   19  C12 UNL     1      36.806  25.445  17.616  1.00  0.00     0.274 A 
HETATM   20  O2  UNL     1      35.407  28.439  16.353  1.00  0.00    -0.237 OA
HETATM   21  C9  UNL     1      38.021  24.904  17.944  1.00  0.00     0.092 A 
HETATM   22  O6  UNL     1      35.740  24.776  17.746  1.00  0.00    -0.266 OA
HETATM   23  C8  UNL     1      39.149  25.697  17.770  1.00  0.00     0.144 A 
HETATM   24  O4  UNL     1      39.048  26.924  17.317  1.00  0.00    -0.269 OA
HETATM   25  S1  UNL     1      40.740  24.986  18.167  1.00  0.00    -0.024 SA
BRANCH  18  26
HETATM   26  O1  UNL     1      34.364  26.556  17.031  1.00  0.00    -0.304 OA
BRANCH  26  27
HETATM   27  C2  UNL     1      33.246  26.807  16.173  1.00  0.00     0.176 C 
HETATM   28  C1  UNL     1      33.577  26.098  14.852  1.00  0.00     0.034 C 
ENDBRANCH  26  27
ENDBRANCH  18  26
BRANCH  21  29
HETATM   29  C10 UNL     1      38.157  23.590  18.595  1.00  0.00     0.141 C 
HETATM   30  N9  UNL     1      37.956  22.586  17.856  1.00  0.00    -0.241 N 
ATOM     31  H9  UNL     1      37.714  22.821  16.893  1.00  0.00     0.201 HD
BRANCH  30  32
HETATM   32  N10 UNL     1      37.999  21.294  18.100  1.00  0.00    -0.268 NA
HETATM   33  C11 UNL     1      38.055  19.975  18.341  1.00  0.00     0.424 C 
HETATM   34  N11 UNL     1      37.033  19.355  19.203  1.00  0.00    -0.024 NA
HETATM   35  O5  UNL     1      38.887  19.136  17.921  1.00  0.00    -0.232 OA
ENDBRANCH  30  32
ENDBRANCH  21  29
ENDBRANCH  14  16
ENDBRANCH  10  14
ENDBRANCH   1   8
TORSDOF 7
ENDMDL
