MODEL 1
REMARK VINA RESULT: -9.453272952      0.000      0.000
REMARK  10 active torsions:
REMARK  status: ('A' for Active; 'I' for Inactive)
REMARK    1  A    between atoms: C3_6  and  C4_7 
REMARK    2  A    between atoms: C4_7  and  O1_8 
REMARK    3  A    between atoms: C4_7  and  N3_10 
REMARK    4  A    between atoms: N3_10  and  C5_11 
REMARK    5  A    between atoms: C5_11  and  O2_13 
REMARK    6  A    between atoms: C6_15  and  C7_16 
REMARK    7  A    between atoms: C7_16  and  N5_17 
REMARK    8  A    between atoms: C7_16  and  C16_41 
REMARK    9  A    between atoms: N5_17  and  N6_19 
REMARK       I    between atoms: N6_19  and  C8_21 
REMARK   10  A    between atoms: C8_21  and  C9_23 
ROOT
HETATM    1  N6  UNL     1      38.200  29.073  16.796  1.00  0.00    -0.264 N 
ATOM      2  H6  UNL     1      38.523  28.115  16.927  1.00  0.00     0.190 HD
HETATM    3  C8  UNL     1      39.104  30.083  17.104  1.00  0.00     0.286 C 
HETATM    4  O3  UNL     1      38.767  31.272  16.992  1.00  0.00    -0.264 OA
ENDROOT
BRANCH   1   5
HETATM    5  N5  UNL     1      36.910  29.230  16.333  1.00  0.00    -0.290 N 
ATOM      6  H5  UNL     1      36.294  29.964  16.681  1.00  0.00     0.187 HD
BRANCH   5   7
HETATM    7  C7  UNL     1      36.490  28.295  15.330  1.00  0.00     0.154 C 
BRANCH   7   8
HETATM    8  C6  UNL     1      35.358  27.433  15.549  1.00  0.00     0.098 A 
HETATM    9  N1  UNL     1      34.192  27.506  14.786  1.00  0.00    -0.294 N 
HETATM   10  C1  UNL     1      33.875  28.462  13.768  1.00  0.00     0.178 C 
HETATM   11  N2  UNL     1      33.405  26.579  15.223  1.00  0.00    -0.309 N 
HETATM   12  C2  UNL     1      33.945  25.895  16.224  1.00  0.00     0.122 A 
ATOM     13  H2  UNL     1      32.477  26.393  14.842  1.00  0.00     0.186 HD
HETATM   14  C3  UNL     1      35.209  26.432  16.456  1.00  0.00     0.051 A 
BRANCH  14  15
HETATM   15  C4  UNL     1      36.027  25.958  17.616  1.00  0.00     0.340 C 
BRANCH  15  16
HETATM   16  O1  UNL     1      37.306  26.367  17.756  1.00  0.00    -0.362 OA
ATOM     17  H1  UNL     1      37.805  26.119  18.527  1.00  0.00     0.213 HD
ENDBRANCH  15  16
BRANCH  15  18
HETATM   18  N3  UNL     1      35.986  24.545  17.624  1.00  0.00    -0.375 NA
BRANCH  18  19
HETATM   19  C5  UNL     1      35.946  23.196  17.629  1.00  0.00     0.303 C 
HETATM   20  N4  UNL     1      36.824  22.348  16.945  1.00  0.00    -0.042 NA
BRANCH  19  21
HETATM   21  O2  UNL     1      35.018  22.583  18.328  1.00  0.00    -0.324 OA
ATOM     22  H2  UNL     1      34.575  21.830  17.954  1.00  0.00     0.221 HD
ENDBRANCH  19  21
ENDBRANCH  18  19
ENDBRANCH  15  18
ENDBRANCH  14  15
ENDBRANCH   7   8
BRANCH   7  23
HETATM   23  C16 UNL     1      37.673  27.811  14.634  1.00  0.00     0.230 C 
HETATM   24  O4  UNL     1      37.997  28.402  13.527  1.00  0.00    -0.643 OA
HETATM   25  O5  UNL     1      38.531  26.789  14.989  1.00  0.00    -0.643 OA
ENDBRANCH   7  23
ENDBRANCH   5   7
ENDBRANCH   1   5
BRANCH   3  26
HETATM   26  C9  UNL     1      40.470  29.796  17.567  1.00  0.00     0.103 A 
HETATM   27  C10 UNL     1      40.973  28.518  17.598  1.00  0.00     0.051 A 
HETATM   28  C11 UNL     1      42.230  28.243  18.093  1.00  0.00     0.027 A 
HETATM   29  C12 UNL     1      42.990  29.308  18.567  1.00  0.00     0.076 A 
HETATM   30  C15 UNL     1      42.730  26.958  18.105  1.00  0.00     0.105 A 
HETATM   31  C13 UNL     1      42.451  30.589  18.521  1.00  0.00     0.120 A 
HETATM   32  N8  UNL     1      44.202  29.010  19.033  1.00  0.00    -0.297 N 
HETATM   33  N7  UNL     1      41.230  30.827  18.037  1.00  0.00    -0.359 N 
ATOM     34  H7  UNL     1      40.865  31.780  18.017  1.00  0.00     0.165 HD
HETATM   35  N9  UNL     1      44.709  27.774  19.058  1.00  0.00    -0.282 N 
ATOM     36  H8  UNL     1      44.778  29.772  19.391  1.00  0.00     0.187 HD
HETATM   37  C14 UNL     1      43.992  26.708  18.593  1.00  0.00     0.162 A 
ATOM     38  H9  UNL     1      45.646  27.624  19.430  1.00  0.00     0.188 HD
HETATM   39  N10 UNL     1      44.249  25.401  18.492  1.00  0.00    -0.266 N 
HETATM   40  N11 UNL     1      43.177  24.803  17.946  1.00  0.00    -0.021 NA
ATOM     41  H10 UNL     1      45.110  24.938  18.780  1.00  0.00     0.186 HD
HETATM   42  N12 UNL     1      42.257  25.753  17.712  1.00  0.00    -0.280 N 
ATOM     43  H12 UNL     1      41.338  25.591  17.299  1.00  0.00     0.184 HD
ENDBRANCH   3  26
TORSDOF 10
ENDMDL
MODEL 2
REMARK VINA RESULT: -9.432694195      1.465      1.544
REMARK  10 active torsions:
REMARK  status: ('A' for Active; 'I' for Inactive)
REMARK    1  A    between atoms: C3_6  and  C4_7 
REMARK    2  A    between atoms: C4_7  and  O1_8 
REMARK    3  A    between atoms: C4_7  and  N3_10 
REMARK    4  A    between atoms: N3_10  and  C5_11 
REMARK    5  A    between atoms: C5_11  and  O2_13 
REMARK    6  A    between atoms: C6_15  and  C7_16 
REMARK    7  A    between atoms: C7_16  and  N5_17 
REMARK    8  A    between atoms: C7_16  and  C16_41 
REMARK    9  A    between atoms: N5_17  and  N6_19 
REMARK       I    between atoms: N6_19  and  C8_21 
REMARK   10  A    between atoms: C8_21  and  C9_23 
ROOT
HETATM    1  N6  UNL     1      38.370  29.088  16.676  1.00  0.00    -0.264 N 
ATOM      2  H6  UNL     1      38.713  28.129  16.729  1.00  0.00     0.190 HD
HETATM    3  C8  UNL     1      39.242  30.084  17.101  1.00  0.00     0.286 C 
HETATM    4  O3  UNL     1      38.880  31.271  17.086  1.00  0.00    -0.264 OA
ENDROOT
BRANCH   1   5
HETATM    5  N5  UNL     1      37.091  29.259  16.190  1.00  0.00    -0.290 N 
ATOM      6  H5  UNL     1      36.507  30.049  16.465  1.00  0.00     0.187 HD
BRANCH   5   7
HETATM    7  C7  UNL     1      36.633  28.256  15.273  1.00  0.00     0.154 C 
BRANCH   7   8
HETATM    8  C6  UNL     1      35.709  27.235  15.693  1.00  0.00     0.098 A 
HETATM    9  N1  UNL     1      34.671  26.775  14.882  1.00  0.00    -0.294 N 
HETATM   10  C1  UNL     1      34.285  27.268  13.594  1.00  0.00     0.178 C 
HETATM   11  N2  UNL     1      34.064  25.848  15.548  1.00  0.00    -0.309 N 
HETATM   12  C2  UNL     1      34.605  25.657  16.745  1.00  0.00     0.122 A 
ATOM     13  H2  UNL     1      33.263  25.323  15.195  1.00  0.00     0.186 HD
HETATM   14  C3  UNL     1      35.670  26.546  16.863  1.00  0.00     0.051 A 
BRANCH  14  15
HETATM   15  C4  UNL     1      36.410  26.667  18.159  1.00  0.00     0.340 C 
BRANCH  15  16
HETATM   16  O1  UNL     1      36.563  27.875  18.742  1.00  0.00    -0.362 OA
ATOM     17  H1  UNL     1      37.232  28.474  18.431  1.00  0.00     0.213 HD
ENDBRANCH  15  16
BRANCH  15  18
HETATM   18  N3  UNL     1      37.678  26.067  17.988  1.00  0.00    -0.375 NA
BRANCH  18  19
HETATM   19  C5  UNL     1      38.889  25.493  17.826  1.00  0.00     0.303 C 
HETATM   20  N4  UNL     1      39.618  24.828  18.818  1.00  0.00    -0.042 NA
BRANCH  19  21
HETATM   21  O2  UNL     1      39.467  25.534  16.647  1.00  0.00    -0.324 OA
ATOM     22  H2  UNL     1      40.378  25.276  16.567  1.00  0.00     0.221 HD
ENDBRANCH  19  21
ENDBRANCH  18  19
ENDBRANCH  15  18
ENDBRANCH  14  15
ENDBRANCH   7   8
BRANCH   7  23
HETATM   23  C16 UNL     1      37.720  27.946  14.356  1.00  0.00     0.230 C 
HETATM   24  O4  UNL     1      37.675  28.482  13.177  1.00  0.00    -0.643 OA
HETATM   25  O5  UNL     1      38.827  27.147  14.561  1.00  0.00    -0.643 OA
ENDBRANCH   7  23
ENDBRANCH   5   7
ENDBRANCH   1   5
BRANCH   3  26
HETATM   26  C9  UNL     1      40.600  29.785  17.577  1.00  0.00     0.103 A 
HETATM   27  C10 UNL     1      41.093  28.503  17.610  1.00  0.00     0.051 A 
HETATM   28  C11 UNL     1      42.342  28.217  18.117  1.00  0.00     0.027 A 
HETATM   29  C12 UNL     1      43.106  29.274  18.603  1.00  0.00     0.076 A 
HETATM   30  C15 UNL     1      42.831  26.927  18.131  1.00  0.00     0.105 A 
HETATM   31  C13 UNL     1      42.577  30.560  18.554  1.00  0.00     0.120 A 
HETATM   32  N8  UNL     1      44.310  28.965  19.080  1.00  0.00    -0.297 N 
HETATM   33  N7  UNL     1      41.364  30.809  18.058  1.00  0.00    -0.359 N 
ATOM     34  H7  UNL     1      41.007  31.764  18.037  1.00  0.00     0.165 HD
HETATM   35  N9  UNL     1      44.807  27.725  19.107  1.00  0.00    -0.282 N 
ATOM     36  H8  UNL     1      44.888  29.721  19.446  1.00  0.00     0.187 HD
HETATM   37  C14 UNL     1      44.086  26.666  18.632  1.00  0.00     0.162 A 
ATOM     38  H9  UNL     1      45.739  27.567  19.488  1.00  0.00     0.188 HD
HETATM   39  N10 UNL     1      44.334  25.357  18.530  1.00  0.00    -0.266 N 
HETATM   40  N11 UNL     1      43.263  24.769  17.971  1.00  0.00    -0.021 NA
ATOM     41  H10 UNL     1      45.188  24.886  18.826  1.00  0.00     0.186 HD
HETATM   42  N12 UNL     1      42.353  25.728  17.730  1.00  0.00    -0.280 N 
ATOM     43  H12 UNL     1      41.437  25.573  17.307  1.00  0.00     0.184 HD
ENDBRANCH   3  26
TORSDOF 10
ENDMDL
MODEL 3
REMARK VINA RESULT: -9.297860079      1.807      4.555
REMARK  10 active torsions:
REMARK  status: ('A' for Active; 'I' for Inactive)
REMARK    1  A    between atoms: C3_6  and  C4_7 
REMARK    2  A    between atoms: C4_7  and  O1_8 
REMARK    3  A    between atoms: C4_7  and  N3_10 
REMARK    4  A    between atoms: N3_10  and  C5_11 
REMARK    5  A    between atoms: C5_11  and  O2_13 
REMARK    6  A    between atoms: C6_15  and  C7_16 
REMARK    7  A    between atoms: C7_16  and  N5_17 
REMARK    8  A    between atoms: C7_16  and  C16_41 
REMARK    9  A    between atoms: N5_17  and  N6_19 
REMARK       I    between atoms: N6_19  and  C8_21 
REMARK   10  A    between atoms: C8_21  and  C9_23 
ROOT
HETATM    1  N6  UNL     1      38.264  26.233  16.157  1.00  0.00    -0.264 N 
ATOM      2  H6  UNL     1      38.597  27.192  16.248  1.00  0.00     0.190 HD
HETATM    3  C8  UNL     1      39.157  25.229  16.515  1.00  0.00     0.286 C 
HETATM    4  O3  UNL     1      38.825  24.038  16.405  1.00  0.00    -0.264 OA
ENDROOT
BRANCH   1   5
HETATM    5  N5  UNL     1      36.976  26.069  15.691  1.00  0.00    -0.290 N 
ATOM      6  H5  UNL     1      36.738  25.365  14.993  1.00  0.00     0.187 HD
BRANCH   5   7
HETATM    7  C7  UNL     1      35.994  26.950  16.252  1.00  0.00     0.154 C 
BRANCH   7   8
HETATM    8  C6  UNL     1      35.485  28.067  15.499  1.00  0.00     0.098 A 
HETATM    9  N1  UNL     1      34.125  28.369  15.420  1.00  0.00    -0.294 N 
HETATM   10  C1  UNL     1      33.032  27.616  15.956  1.00  0.00     0.178 C 
HETATM   11  N2  UNL     1      34.025  29.439  14.701  1.00  0.00    -0.309 N 
HETATM   12  C2  UNL     1      35.208  29.872  14.282  1.00  0.00     0.122 A 
ATOM     13  H2  UNL     1      33.140  29.897  14.482  1.00  0.00     0.186 HD
HETATM   14  C3  UNL     1      36.169  28.998  14.784  1.00  0.00     0.051 A 
BRANCH  14  15
HETATM   15  C4  UNL     1      37.603  29.143  14.380  1.00  0.00     0.340 C 
BRANCH  15  16
HETATM   16  O1  UNL     1      38.262  28.099  13.833  1.00  0.00    -0.362 OA
ATOM     17  H1  UNL     1      39.011  28.251  13.268  1.00  0.00     0.213 HD
ENDBRANCH  15  16
BRANCH  15  18
HETATM   18  N3  UNL     1      38.322  29.611  15.503  1.00  0.00    -0.375 NA
BRANCH  18  19
HETATM   19  C5  UNL     1      39.009  30.060  16.574  1.00  0.00     0.303 C 
HETATM   20  N4  UNL     1      40.071  30.971  16.542  1.00  0.00    -0.042 NA
BRANCH  19  21
HETATM   21  O2  UNL     1      38.683  29.633  17.772  1.00  0.00    -0.324 OA
ATOM     22  H2  UNL     1      38.315  28.763  17.872  1.00  0.00     0.221 HD
ENDBRANCH  19  21
ENDBRANCH  18  19
ENDBRANCH  15  18
ENDBRANCH  14  15
ENDBRANCH   7   8
BRANCH   7  23
HETATM   23  C16 UNL     1      36.249  27.068  17.680  1.00  0.00     0.230 C 
HETATM   24  O4  UNL     1      36.505  25.977  18.331  1.00  0.00    -0.643 OA
HETATM   25  O5  UNL     1      36.263  28.201  18.468  1.00  0.00    -0.643 OA
ENDBRANCH   7  23
ENDBRANCH   5   7
ENDBRANCH   1   5
BRANCH   3  26
HETATM   26  C9  UNL     1      40.503  25.523  17.028  1.00  0.00     0.103 A 
HETATM   27  C10 UNL     1      40.858  26.780  17.455  1.00  0.00     0.051 A 
HETATM   28  C11 UNL     1      42.139  27.070  17.873  1.00  0.00     0.027 A 
HETATM   29  C12 UNL     1      43.079  26.044  17.854  1.00  0.00     0.076 A 
HETATM   30  C15 UNL     1      42.480  28.332  18.314  1.00  0.00     0.105 A 
HETATM   31  C13 UNL     1      42.686  24.783  17.417  1.00  0.00     0.120 A 
HETATM   32  N8  UNL     1      44.305  26.355  18.272  1.00  0.00    -0.297 N 
HETATM   33  N7  UNL     1      41.438  24.530  17.016  1.00  0.00    -0.359 N 
ATOM     34  H7  UNL     1      41.183  23.594  16.701  1.00  0.00     0.165 HD
HETATM   35  N9  UNL     1      44.662  27.569  18.701  1.00  0.00    -0.282 N 
ATOM     36  H8  UNL     1      45.014  25.622  18.263  1.00  0.00     0.187 HD
HETATM   37  C14 UNL     1      43.762  28.597  18.738  1.00  0.00     0.162 A 
ATOM     38  H9  UNL     1      45.621  27.731  19.005  1.00  0.00     0.188 HD
HETATM   39  N10 UNL     1      43.842  29.874  19.120  1.00  0.00    -0.266 N 
HETATM   40  N11 UNL     1      42.634  30.439  18.951  1.00  0.00    -0.021 NA
ATOM     41  H10 UNL     1      44.675  30.340  19.477  1.00  0.00     0.186 HD
HETATM   42  N12 UNL     1      41.810  29.498  18.461  1.00  0.00    -0.280 N 
ATOM     43  H12 UNL     1      40.825  29.640  18.235  1.00  0.00     0.184 HD
ENDBRANCH   3  26
TORSDOF 10
ENDMDL
MODEL 4
REMARK VINA RESULT: -9.105249694      1.240      1.291
REMARK  10 active torsions:
REMARK  status: ('A' for Active; 'I' for Inactive)
REMARK    1  A    between atoms: C3_6  and  C4_7 
REMARK    2  A    between atoms: C4_7  and  O1_8 
REMARK    3  A    between atoms: C4_7  and  N3_10 
REMARK    4  A    between atoms: N3_10  and  C5_11 
REMARK    5  A    between atoms: C5_11  and  O2_13 
REMARK    6  A    between atoms: C6_15  and  C7_16 
REMARK    7  A    between atoms: C7_16  and  N5_17 
REMARK    8  A    between atoms: C7_16  and  C16_41 
REMARK    9  A    between atoms: N5_17  and  N6_19 
REMARK       I    between atoms: N6_19  and  C8_21 
REMARK   10  A    between atoms: C8_21  and  C9_23 
ROOT
HETATM    1  N6  UNL     1      38.780  29.799  16.081  1.00  0.00    -0.264 N 
ATOM      2  H6  UNL     1      39.245  29.001  15.649  1.00  0.00     0.190 HD
HETATM    3  C8  UNL     1      39.445  30.410  17.138  1.00  0.00     0.286 C 
HETATM    4  O3  UNL     1      38.924  31.371  17.724  1.00  0.00    -0.264 OA
ENDROOT
BRANCH   1   5
HETATM    5  N5  UNL     1      37.557  30.159  15.554  1.00  0.00    -0.290 N 
ATOM      6  H5  UNL     1      37.210  31.117  15.592  1.00  0.00     0.187 HD
BRANCH   5   7
HETATM    7  C7  UNL     1      36.803  29.099  14.950  1.00  0.00     0.154 C 
BRANCH   7   8
HETATM    8  C6  UNL     1      35.464  28.799  15.388  1.00  0.00     0.098 A 
HETATM    9  N1  UNL     1      34.332  29.147  14.651  1.00  0.00    -0.294 N 
HETATM   10  C1  UNL     1      34.279  29.912  13.441  1.00  0.00     0.178 C 
HETATM   11  N2  UNL     1      33.311  28.704  15.309  1.00  0.00    -0.309 N 
HETATM   12  C2  UNL     1      33.667  28.096  16.434  1.00  0.00     0.122 A 
ATOM     13  H2  UNL     1      32.344  28.809  15.000  1.00  0.00     0.186 HD
HETATM   14  C3  UNL     1      35.058  28.147  16.508  1.00  0.00     0.051 A 
BRANCH  14  15
HETATM   15  C4  UNL     1      35.764  27.657  17.733  1.00  0.00     0.340 C 
BRANCH  15  16
HETATM   16  O1  UNL     1      36.942  28.204  18.101  1.00  0.00    -0.362 OA
ATOM     17  H1  UNL     1      37.480  27.781  18.761  1.00  0.00     0.213 HD
ENDBRANCH  15  16
BRANCH  15  18
HETATM   18  N3  UNL     1      35.919  26.257  17.609  1.00  0.00    -0.375 NA
BRANCH  18  19
HETATM   19  C5  UNL     1      36.068  24.921  17.491  1.00  0.00     0.303 C 
HETATM   20  N4  UNL     1      35.188  23.952  17.986  1.00  0.00    -0.042 NA
BRANCH  19  21
HETATM   21  O2  UNL     1      37.116  24.444  16.859  1.00  0.00    -0.324 OA
ATOM     22  H2  UNL     1      37.082  23.567  16.497  1.00  0.00     0.221 HD
ENDBRANCH  19  21
ENDBRANCH  18  19
ENDBRANCH  15  18
ENDBRANCH  14  15
ENDBRANCH   7   8
BRANCH   7  23
HETATM   23  C16 UNL     1      37.725  28.033  14.586  1.00  0.00     0.230 C 
HETATM   24  O4  UNL     1      38.299  28.111  13.428  1.00  0.00    -0.643 OA
HETATM   25  O5  UNL     1      38.094  26.920  15.315  1.00  0.00    -0.643 OA
ENDBRANCH   7  23
ENDBRANCH   5   7
ENDBRANCH   1   5
BRANCH   3  26
HETATM   26  C9  UNL     1      40.765  29.956  17.599  1.00  0.00     0.103 A 
HETATM   27  C10 UNL     1      41.121  28.629  17.589  1.00  0.00     0.051 A 
HETATM   28  C11 UNL     1      42.333  28.198  18.083  1.00  0.00     0.027 A 
HETATM   29  C12 UNL     1      43.203  29.154  18.600  1.00  0.00     0.076 A 
HETATM   30  C15 UNL     1      42.686  26.865  18.054  1.00  0.00     0.105 A 
HETATM   31  C13 UNL     1      42.811  30.489  18.595  1.00  0.00     0.120 A 
HETATM   32  N8  UNL     1      44.369  28.706  19.063  1.00  0.00    -0.297 N 
HETATM   33  N7  UNL     1      41.630  30.879  18.111  1.00  0.00    -0.359 N 
ATOM     34  H7  UNL     1      41.375  31.866  18.122  1.00  0.00     0.165 HD
HETATM   35  N9  UNL     1      44.734  27.421  19.049  1.00  0.00    -0.282 N 
ATOM     36  H8  UNL     1      45.023  29.386  19.452  1.00  0.00     0.187 HD
HETATM   37  C14 UNL     1      43.907  26.458  18.542  1.00  0.00     0.162 A 
ATOM     38  H9  UNL     1      45.645  27.154  19.421  1.00  0.00     0.188 HD
HETATM   39  N10 UNL     1      44.017  25.135  18.397  1.00  0.00    -0.266 N 
HETATM   40  N11 UNL     1      42.891  24.680  17.823  1.00  0.00    -0.021 NA
ATOM     41  H10 UNL     1      44.818  24.569  18.675  1.00  0.00     0.186 HD
HETATM   42  N12 UNL     1      42.085  25.735  17.616  1.00  0.00    -0.280 N 
ATOM     43  H12 UNL     1      41.159  25.691  17.191  1.00  0.00     0.184 HD
ENDBRANCH   3  26
TORSDOF 10
ENDMDL
MODEL 5
REMARK VINA RESULT: -9.059614038      1.625      2.053
REMARK  10 active torsions:
REMARK  status: ('A' for Active; 'I' for Inactive)
REMARK    1  A    between atoms: C3_6  and  C4_7 
REMARK    2  A    between atoms: C4_7  and  O1_8 
REMARK    3  A    between atoms: C4_7  and  N3_10 
REMARK    4  A    between atoms: N3_10  and  C5_11 
REMARK    5  A    between atoms: C5_11  and  O2_13 
REMARK    6  A    between atoms: C6_15  and  C7_16 
REMARK    7  A    between atoms: C7_16  and  N5_17 
REMARK    8  A    between atoms: C7_16  and  C16_41 
REMARK    9  A    between atoms: N5_17  and  N6_19 
REMARK       I    between atoms: N6_19  and  C8_21 
REMARK   10  A    between atoms: C8_21  and  C9_23 
ROOT
HETATM    1  N6  UNL     1      38.235  29.217  17.045  1.00  0.00    -0.264 N 
ATOM      2  H6  UNL     1      38.455  28.274  17.365  1.00  0.00     0.190 HD
HETATM    3  C8  UNL     1      39.265  30.149  17.100  1.00  0.00     0.286 C 
HETATM    4  O3  UNL     1      39.059  31.321  16.749  1.00  0.00    -0.264 OA
ENDROOT
BRANCH   1   5
HETATM    5  N5  UNL     1      36.946  29.433  16.603  1.00  0.00    -0.290 N 
ATOM      6  H5  UNL     1      36.428  30.279  16.835  1.00  0.00     0.187 HD
BRANCH   5   7
HETATM    7  C7  UNL     1      36.382  28.390  15.797  1.00  0.00     0.154 C 
BRANCH   7   8
HETATM    8  C6  UNL     1      36.254  27.049  16.304  1.00  0.00     0.098 A 
HETATM    9  N1  UNL     1      35.029  26.495  16.678  1.00  0.00    -0.294 N 
HETATM   10  C1  UNL     1      33.755  27.146  16.723  1.00  0.00     0.178 C 
HETATM   11  N2  UNL     1      35.270  25.280  17.050  1.00  0.00    -0.309 N 
HETATM   12  C2  UNL     1      36.560  24.978  16.967  1.00  0.00     0.122 A 
ATOM     13  H2  UNL     1      34.553  24.630  17.371  1.00  0.00     0.186 HD
HETATM   14  C3  UNL     1      37.218  26.109  16.488  1.00  0.00     0.051 A 
BRANCH  14  15
HETATM   15  C4  UNL     1      38.712  26.131  16.403  1.00  0.00     0.340 C 
BRANCH  15  16
HETATM   16  O1  UNL     1      39.325  26.785  15.393  1.00  0.00    -0.362 OA
ATOM     17  H1  UNL     1      40.266  26.715  15.281  1.00  0.00     0.213 HD
ENDBRANCH  15  16
BRANCH  15  18
HETATM   18  N3  UNL     1      39.165  24.792  16.434  1.00  0.00    -0.375 NA
BRANCH  18  19
HETATM   19  C5  UNL     1      39.595  23.513  16.464  1.00  0.00     0.303 C 
HETATM   20  N4  UNL     1      38.805  22.390  16.736  1.00  0.00    -0.042 NA
BRANCH  19  21
HETATM   21  O2  UNL     1      40.859  23.254  16.219  1.00  0.00    -0.324 OA
ATOM     22  H2  UNL     1      41.268  22.501  16.629  1.00  0.00     0.221 HD
ENDBRANCH  19  21
ENDBRANCH  18  19
ENDBRANCH  15  18
ENDBRANCH  14  15
ENDBRANCH   7   8
BRANCH   7  23
HETATM   23  C16 UNL     1      36.757  28.631  14.411  1.00  0.00     0.230 C 
HETATM   24  O4  UNL     1      35.800  28.718  13.542  1.00  0.00    -0.643 OA
HETATM   25  O5  UNL     1      38.016  28.790  13.869  1.00  0.00    -0.643 OA
ENDBRANCH   7  23
ENDBRANCH   5   7
ENDBRANCH   1   5
BRANCH   3  26
HETATM   26  C9  UNL     1      40.615  29.798  17.566  1.00  0.00     0.103 A 
HETATM   27  C10 UNL     1      41.061  28.498  17.588  1.00  0.00     0.051 A 
HETATM   28  C11 UNL     1      42.301  28.163  18.086  1.00  0.00     0.027 A 
HETATM   29  C12 UNL     1      43.105  29.189  18.574  1.00  0.00     0.076 A 
HETATM   30  C15 UNL     1      42.744  26.857  18.089  1.00  0.00     0.105 A 
HETATM   31  C13 UNL     1      42.623  30.493  18.538  1.00  0.00     0.120 A 
HETATM   32  N8  UNL     1      44.301  28.833  19.042  1.00  0.00    -0.297 N 
HETATM   33  N7  UNL     1      41.417  30.790  18.050  1.00  0.00    -0.359 N 
ATOM     34  H7  UNL     1      41.095  31.757  18.038  1.00  0.00     0.165 HD
HETATM   35  N9  UNL     1      44.752  27.576  19.058  1.00  0.00    -0.282 N 
ATOM     36  H8  UNL     1      44.907  29.565  19.411  1.00  0.00     0.187 HD
HETATM   37  C14 UNL     1      43.990  26.547  18.580  1.00  0.00     0.162 A 
ATOM     38  H9  UNL     1      45.680  27.381  19.433  1.00  0.00     0.188 HD
HETATM   39  N10 UNL     1      44.190  25.231  18.468  1.00  0.00    -0.266 N 
HETATM   40  N11 UNL     1      43.095  24.686  17.911  1.00  0.00    -0.021 NA
ATOM     41  H10 UNL     1      45.029  24.727  18.756  1.00  0.00     0.186 HD
HETATM   42  N12 UNL     1      42.219  25.678  17.682  1.00  0.00    -0.280 N 
ATOM     43  H12 UNL     1      41.296  25.560  17.263  1.00  0.00     0.184 HD
ENDBRANCH   3  26
TORSDOF 10
ENDMDL
