MODEL 1
REMARK VINA RESULT: -5.169375071      0.000      0.000
REMARK  2 active torsions:
REMARK  status: ('A' for Active; 'I' for Inactive)
REMARK    1  A    between atoms: C1_2  and  N1_3 
REMARK       I    between atoms: N1_3  and  C2_5 
REMARK    2  A    between atoms: C2_5  and  C3_7 
ROOT
HETATM    1  N1  UNL     1      73.003  46.875  25.989  1.00  0.00    -0.305 N 
ATOM      2  H1  UNL     1      73.473  47.279  25.179  1.00  0.00     0.171 HD
HETATM    3  C2  UNL     1      72.770  45.468  26.066  1.00  0.00     0.227 C 
HETATM    4  O2  UNL     1      72.187  44.996  27.079  1.00  0.00    -0.273 OA
ENDROOT
BRANCH   3   5
HETATM    5  C3  UNL     1      73.193  44.538  24.998  1.00  0.00     0.078 A 
HETATM    6  C4  UNL     1      74.510  43.788  25.302  1.00  0.00     0.015 A 
HETATM    7  C5  UNL     1      73.227  43.073  25.243  1.00  0.00     0.015 A 
ENDBRANCH   3   5
BRANCH   1   8
HETATM    8  C1  UNL     1      72.569  47.697  27.052  1.00  0.00     0.355 C 
HETATM    9  O1  UNL     1      73.384  48.273  27.824  1.00  0.00    -0.283 OA
ENDBRANCH   1   8
TORSDOF 2
ENDMDL
MODEL 2
REMARK VINA RESULT: -5.048825277      8.806      9.489
REMARK  2 active torsions:
REMARK  status: ('A' for Active; 'I' for Inactive)
REMARK    1  A    between atoms: C1_2  and  N1_3 
REMARK       I    between atoms: N1_3  and  C2_5 
REMARK    2  A    between atoms: C2_5  and  C3_7 
ROOT
HETATM    1  N1  UNL     1      67.625  44.201  17.823  1.00  0.00    -0.305 N 
ATOM      2  H1  UNL     1      67.658  43.523  17.061  1.00  0.00     0.171 HD
HETATM    3  C2  UNL     1      68.374  43.986  19.019  1.00  0.00     0.227 C 
HETATM    4  O2  UNL     1      68.315  44.841  19.944  1.00  0.00    -0.273 OA
ENDROOT
BRANCH   3   5
HETATM    5  C3  UNL     1      69.223  42.792  19.215  1.00  0.00     0.078 A 
HETATM    6  C4  UNL     1      68.501  41.615  19.911  1.00  0.00     0.015 A 
HETATM    7  C5  UNL     1      68.917  41.524  18.504  1.00  0.00     0.015 A 
ENDBRANCH   3   5
BRANCH   1   8
HETATM    8  C1  UNL     1      66.838  45.368  17.712  1.00  0.00     0.355 C 
HETATM    9  O1  UNL     1      65.601  45.363  17.953  1.00  0.00    -0.283 OA
ENDBRANCH   1   8
TORSDOF 2
ENDMDL
MODEL 3
REMARK VINA RESULT: -4.970707376      1.169      1.396
REMARK  2 active torsions:
REMARK  status: ('A' for Active; 'I' for Inactive)
REMARK    1  A    between atoms: C1_2  and  N1_3 
REMARK       I    between atoms: N1_3  and  C2_5 
REMARK    2  A    between atoms: C2_5  and  C3_7 
ROOT
HETATM    1  N1  UNL     1      73.127  45.738  26.747  1.00  0.00    -0.305 N 
ATOM      2  H1  UNL     1      73.762  45.496  27.508  1.00  0.00     0.171 HD
HETATM    3  C2  UNL     1      72.847  44.798  25.709  1.00  0.00     0.227 C 
HETATM    4  O2  UNL     1      72.058  45.124  24.781  1.00  0.00    -0.273 OA
ENDROOT
BRANCH   3   5
HETATM    5  C3  UNL     1      73.450  43.449  25.682  1.00  0.00     0.078 A 
HETATM    6  C4  UNL     1      73.782  42.937  24.261  1.00  0.00     0.015 A 
HETATM    7  C5  UNL     1      74.849  43.257  25.221  1.00  0.00     0.015 A 
ENDBRANCH   3   5
BRANCH   1   8
HETATM    8  C1  UNL     1      72.510  47.007  26.702  1.00  0.00     0.355 C 
HETATM    9  O1  UNL     1      72.956  47.989  27.357  1.00  0.00    -0.283 OA
ENDBRANCH   1   8
TORSDOF 2
ENDMDL
MODEL 4
REMARK VINA RESULT: -4.833481886      9.085     10.134
REMARK  2 active torsions:
REMARK  status: ('A' for Active; 'I' for Inactive)
REMARK    1  A    between atoms: C1_2  and  N1_3 
REMARK       I    between atoms: N1_3  and  C2_5 
REMARK    2  A    between atoms: C2_5  and  C3_7 
ROOT
HETATM    1  N1  UNL     1      67.735  42.563  18.697  1.00  0.00    -0.305 N 
ATOM      2  H1  UNL     1      66.955  42.249  18.118  1.00  0.00     0.171 HD
HETATM    3  C2  UNL     1      68.201  43.910  18.618  1.00  0.00     0.227 C 
HETATM    4  O2  UNL     1      69.166  44.271  19.345  1.00  0.00    -0.273 OA
ENDROOT
BRANCH   3   5
HETATM    5  C3  UNL     1      67.589  44.905  17.712  1.00  0.00     0.078 A 
HETATM    6  C4  UNL     1      66.043  44.888  17.712  1.00  0.00     0.015 A 
HETATM    7  C5  UNL     1      66.788  46.031  18.259  1.00  0.00     0.015 A 
ENDBRANCH   3   5
BRANCH   1   8
HETATM    8  C1  UNL     1      68.372  41.672  19.589  1.00  0.00     0.355 C 
HETATM    9  O1  UNL     1      69.100  40.727  19.180  1.00  0.00    -0.283 OA
ENDBRANCH   1   8
TORSDOF 2
ENDMDL
MODEL 5
REMARK VINA RESULT: -4.250333392      2.771      4.078
REMARK  2 active torsions:
REMARK  status: ('A' for Active; 'I' for Inactive)
REMARK    1  A    between atoms: C1_2  and  N1_3 
REMARK       I    between atoms: N1_3  and  C2_5 
REMARK    2  A    between atoms: C2_5  and  C3_7 
ROOT
HETATM    1  N1  UNL     1      74.706  44.152  25.364  1.00  0.00    -0.305 N 
ATOM      2  H1  UNL     1      75.124  45.078  25.451  1.00  0.00     0.171 HD
HETATM    3  C2  UNL     1      73.292  43.980  25.470  1.00  0.00     0.227 C 
HETATM    4  O2  UNL     1      72.803  42.823  25.359  1.00  0.00    -0.273 OA
ENDROOT
BRANCH   3   5
HETATM    5  C3  UNL     1      72.374  45.115  25.704  1.00  0.00     0.078 A 
HETATM    6  C4  UNL     1      72.598  45.836  27.053  1.00  0.00     0.015 A 
HETATM    7  C5  UNL     1      72.897  46.504  25.778  1.00  0.00     0.015 A 
ENDBRANCH   3   5
BRANCH   1   8
HETATM    8  C1  UNL     1      75.515  43.016  25.139  1.00  0.00     0.355 C 
HETATM    9  O1  UNL     1      75.797  42.619  23.976  1.00  0.00    -0.283 OA
ENDBRANCH   1   8
TORSDOF 2
ENDMDL
