MODEL 1
REMARK VINA RESULT: -8.190993361      0.000      0.000
REMARK  16 active torsions:
REMARK  status: ('A' for Active; 'I' for Inactive)
REMARK    1  A    between atoms: C2_2  and  O2_4 
REMARK    2  A    between atoms: O2_4  and  C3_5 
REMARK    3  A    between atoms: C3_5  and  C4_6 
REMARK    4  A    between atoms: C5_7  and  O3_8 
REMARK    5  A    between atoms: O3_8  and  C6_9 
REMARK    6  A    between atoms: C6_9  and  C7_11 
REMARK    7  A    between atoms: C8_13  and  N1_14 
REMARK    8  A    between atoms: C11_21  and  C12_22 
REMARK    9  A    between atoms: C13_25  and  O9_26 
REMARK   10  A    between atoms: C14_28  and  C15_29 
REMARK   11  A    between atoms: C15_29  and  C16_30 
REMARK   12  A    between atoms: C17_33  and  C18_34 
REMARK   13  A    between atoms: C20_38  and  O14_39 
REMARK   14  A    between atoms: C20_38  and  C21_41 
REMARK   15  A    between atoms: C22_44  and  O17_45 
REMARK   16  A    between atoms: O17_45  and  C23_46 
ROOT
HETATM    1  C4  UNL     1       4.511 -17.838  12.501  1.00  0.00     0.075 C 
HETATM    2  C5  UNL     1       3.135 -18.164  13.096  1.00  0.00     0.164 C 
HETATM    3  C8  UNL     1       3.045 -18.780  14.406  1.00  0.00     0.133 C 
HETATM    4  C19 UNL     1       4.331 -18.841  15.187  1.00  0.00     0.080 C 
HETATM    5  C20 UNL     1       5.378 -17.841  14.878  1.00  0.00     0.174 C 
HETATM    6  C22 UNL     1       5.651 -17.813  13.402  1.00  0.00     0.185 C 
ENDROOT
BRANCH   3   7
HETATM    7  N1  UNL     1       2.386 -20.064  14.569  1.00  0.00    -0.241 N 
HETATM    8  C9  UNL     1       1.346 -20.452  15.341  1.00  0.00     0.353 A 
HETATM    9  O5  UNL     1       0.713 -19.710  16.088  1.00  0.00    -0.244 OA
HETATM   10  N2  UNL     1       1.060 -21.774  15.215  1.00  0.00    -0.191 N 
HETATM   11  N3  UNL     1       1.959 -22.189  14.335  1.00  0.00    -0.213 N 
HETATM   12  C17 UNL     1       0.123 -22.670  15.860  1.00  0.00     0.143 C 
HETATM   13  C10 UNL     1       2.759 -21.183  13.940  1.00  0.00     0.349 A 
HETATM   14  C11 UNL     1       1.998 -23.578  13.840  1.00  0.00     0.247 C 
HETATM   15  O6  UNL     1       3.689 -21.408  13.091  1.00  0.00    -0.245 OA
HETATM   16  C13 UNL     1       1.168 -24.489  14.622  1.00  0.00     0.185 C 
HETATM   17  C14 UNL     1       0.189 -23.938  15.561  1.00  0.00    -0.003 C 
BRANCH  14  18
HETATM   18  C12 UNL     1       3.394 -24.048  13.681  1.00  0.00     0.202 C 
HETATM   19  O7  UNL     1       3.749 -24.665  12.655  1.00  0.00    -0.646 OA
HETATM   20  O8  UNL     1       4.316 -23.813  14.660  1.00  0.00    -0.646 OA
ENDBRANCH  14  18
BRANCH  16  21
HETATM   21  O9  UNL     1       1.972 -25.420  15.336  1.00  0.00    -0.388 OA
ATOM     22  H9  UNL     1       1.502 -25.769  16.085  1.00  0.00     0.210 HD
ENDBRANCH  16  21
BRANCH  17  23
HETATM   23  C15 UNL     1      -0.812 -24.921  16.075  1.00  0.00     0.152 C 
BRANCH  23  24
HETATM   24  C16 UNL     1      -2.049 -25.014  15.308  1.00  0.00     0.176 C 
HETATM   25  O10 UNL     1      -3.082 -25.508  15.825  1.00  0.00    -0.648 OA
HETATM   26  O11 UNL     1      -2.153 -24.573  14.009  1.00  0.00    -0.648 OA
ENDBRANCH  23  24
ENDBRANCH  17  23
BRANCH  12  27
HETATM   27  C18 UNL     1      -0.802 -22.164  16.854  1.00  0.00     0.229 C 
HETATM   28  O12 UNL     1      -0.588 -21.988  18.082  1.00  0.00    -0.643 OA
HETATM   29  O13 UNL     1      -2.118 -21.814  16.512  1.00  0.00    -0.643 OA
ENDBRANCH  12  27
ENDBRANCH   3   7
BRANCH   2  30
HETATM   30  O3  UNL     1       2.390 -17.031  12.886  1.00  0.00    -0.313 OA
BRANCH  30  31
HETATM   31  C6  UNL     1       1.135 -16.652  12.755  1.00  0.00     0.269 C 
HETATM   32  O4  UNL     1       0.934 -15.737  11.904  1.00  0.00    -0.264 OA
BRANCH  31  33
HETATM   33  C7  UNL     1       0.041 -17.252  13.549  1.00  0.00     0.197 C 
HETATM   34  S1  UNL     1      -1.536 -16.616  12.920  1.00  0.00    -0.087 SA
ENDBRANCH  31  33
ENDBRANCH  30  31
ENDBRANCH   2  30
BRANCH   1  35
HETATM   35  C3  UNL     1       4.445 -16.589  11.659  1.00  0.00     0.188 C 
BRANCH  35  36
HETATM   36  O2  UNL     1       4.823 -16.809  10.315  1.00  0.00    -0.321 OA
BRANCH  36  37
HETATM   37  C2  UNL     1       6.139 -16.540   9.917  1.00  0.00     0.254 C 
HETATM   38  C1  UNL     1       6.612 -15.160   9.877  1.00  0.00     0.126 C 
HETATM   39  O1  UNL     1       6.848 -17.542   9.613  1.00  0.00    -0.266 OA
ENDBRANCH  36  37
ENDBRANCH  35  36
ENDBRANCH   1  35
BRANCH   5  40
HETATM   40  O14 UNL     1       6.580 -18.395  15.452  1.00  0.00    -0.376 OA
ATOM     41  H14 UNL     1       7.159 -17.649  15.550  1.00  0.00     0.211 HD
ENDBRANCH   5  40
BRANCH   5  42
HETATM   42  C21 UNL     1       5.235 -16.557  15.541  1.00  0.00     0.211 C 
HETATM   43  O15 UNL     1       6.016 -16.214  16.454  1.00  0.00    -0.646 OA
HETATM   44  O16 UNL     1       4.251 -15.624  15.237  1.00  0.00    -0.646 OA
ENDBRANCH   5  42
BRANCH   6  45
HETATM   45  O17 UNL     1       6.521 -16.683  13.251  1.00  0.00    -0.312 OA
BRANCH  45  46
HETATM   46  C23 UNL     1       7.906 -16.795  13.286  1.00  0.00     0.255 C 
HETATM   47  C24 UNL     1       8.678 -17.678  12.368  1.00  0.00     0.126 C 
HETATM   48  O18 UNL     1       8.521 -16.112  14.136  1.00  0.00    -0.266 OA
ENDBRANCH  45  46
ENDBRANCH   6  45
TORSDOF 16
ENDMDL
MODEL 2
REMARK VINA RESULT: -7.811229945      2.967      9.512
REMARK  16 active torsions:
REMARK  status: ('A' for Active; 'I' for Inactive)
REMARK    1  A    between atoms: C2_2  and  O2_4 
REMARK    2  A    between atoms: O2_4  and  C3_5 
REMARK    3  A    between atoms: C3_5  and  C4_6 
REMARK    4  A    between atoms: C5_7  and  O3_8 
REMARK    5  A    between atoms: O3_8  and  C6_9 
REMARK    6  A    between atoms: C6_9  and  C7_11 
REMARK    7  A    between atoms: C8_13  and  N1_14 
REMARK    8  A    between atoms: C11_21  and  C12_22 
REMARK    9  A    between atoms: C13_25  and  O9_26 
REMARK   10  A    between atoms: C14_28  and  C15_29 
REMARK   11  A    between atoms: C15_29  and  C16_30 
REMARK   12  A    between atoms: C17_33  and  C18_34 
REMARK   13  A    between atoms: C20_38  and  O14_39 
REMARK   14  A    between atoms: C20_38  and  C21_41 
REMARK   15  A    between atoms: C22_44  and  O17_45 
REMARK   16  A    between atoms: O17_45  and  C23_46 
ROOT
HETATM    1  C4  UNL     1      -2.392 -22.036  18.331  1.00  0.00     0.075 C 
HETATM    2  C5  UNL     1      -1.747 -21.948  16.942  1.00  0.00     0.164 C 
HETATM    3  C8  UNL     1      -0.528 -22.683  16.665  1.00  0.00     0.133 C 
HETATM    4  C19 UNL     1      -0.113 -23.674  17.720  1.00  0.00     0.080 C 
HETATM    5  C20 UNL     1      -1.164 -24.232  18.600  1.00  0.00     0.174 C 
HETATM    6  C22 UNL     1      -1.980 -23.124  19.202  1.00  0.00     0.185 C 
ENDROOT
BRANCH   3   7
HETATM    7  N1  UNL     1       0.671 -21.982  16.242  1.00  0.00    -0.241 N 
HETATM    8  C9  UNL     1       0.860 -20.744  15.733  1.00  0.00     0.353 A 
HETATM    9  O5  UNL     1      -0.033 -19.921  15.543  1.00  0.00    -0.244 OA
HETATM   10  N2  UNL     1       2.161 -20.487  15.438  1.00  0.00    -0.191 N 
HETATM   11  N3  UNL     1       2.770 -21.611  15.786  1.00  0.00    -0.213 N 
HETATM   12  C17 UNL     1       2.855 -19.377  14.820  1.00  0.00     0.143 C 
HETATM   13  C10 UNL     1       1.897 -22.514  16.266  1.00  0.00     0.349 A 
HETATM   14  C11 UNL     1       4.233 -21.778  15.692  1.00  0.00     0.247 C 
HETATM   15  O6  UNL     1       2.316 -23.661  16.649  1.00  0.00    -0.245 OA
HETATM   16  C13 UNL     1       4.881 -20.726  14.916  1.00  0.00     0.185 C 
HETATM   17  C14 UNL     1       4.132 -19.510  14.591  1.00  0.00    -0.003 C 
BRANCH  14  18
HETATM   18  C12 UNL     1       4.585 -23.143  15.237  1.00  0.00     0.202 C 
HETATM   19  O7  UNL     1       5.194 -23.932  15.990  1.00  0.00    -0.646 OA
HETATM   20  O8  UNL     1       4.247 -23.560  13.981  1.00  0.00    -0.646 OA
ENDBRANCH  14  18
BRANCH  16  21
HETATM   21  O9  UNL     1       5.409 -21.244  13.701  1.00  0.00    -0.388 OA
ATOM     22  H9  UNL     1       5.335 -20.607  13.001  1.00  0.00     0.210 HD
ENDBRANCH  16  21
BRANCH  17  23
HETATM   23  C15 UNL     1       4.962 -18.379  14.075  1.00  0.00     0.152 C 
BRANCH  23  24
HETATM   24  C16 UNL     1       5.684 -17.619  15.089  1.00  0.00     0.176 C 
HETATM   25  O10 UNL     1       6.930 -17.731  15.199  1.00  0.00    -0.648 OA
HETATM   26  O11 UNL     1       5.057 -16.756  15.958  1.00  0.00    -0.648 OA
ENDBRANCH  23  24
ENDBRANCH  17  23
BRANCH  12  27
HETATM   27  C18 UNL     1       2.123 -18.195  14.413  1.00  0.00     0.229 C 
HETATM   28  O12 UNL     1       1.700 -17.913  13.261  1.00  0.00    -0.643 OA
HETATM   29  O13 UNL     1       1.810 -17.181  15.333  1.00  0.00    -0.643 OA
ENDBRANCH  12  27
ENDBRANCH   3   7
BRANCH   2  30
HETATM   30  O3  UNL     1      -2.790 -22.115  16.065  1.00  0.00    -0.313 OA
BRANCH  30  31
HETATM   31  C6  UNL     1      -3.044 -22.089  14.773  1.00  0.00     0.269 C 
HETATM   32  O4  UNL     1      -3.151 -20.935  14.266  1.00  0.00    -0.264 OA
BRANCH  31  33
HETATM   33  C7  UNL     1      -3.196 -23.323  13.973  1.00  0.00     0.197 C 
HETATM   34  S1  UNL     1      -1.622 -23.659  13.136  1.00  0.00    -0.087 SA
ENDBRANCH  31  33
ENDBRANCH  30  31
ENDBRANCH   2  30
BRANCH   1  35
HETATM   35  C3  UNL     1      -3.894 -21.949  18.229  1.00  0.00     0.188 C 
BRANCH  35  36
HETATM   36  O2  UNL     1      -4.451 -20.981  19.094  1.00  0.00    -0.321 OA
BRANCH  36  37
HETATM   37  C2  UNL     1      -5.841 -20.914  19.249  1.00  0.00     0.254 C 
HETATM   38  C1  UNL     1      -6.412 -20.773  20.585  1.00  0.00     0.126 C 
HETATM   39  O1  UNL     1      -6.527 -20.980  18.188  1.00  0.00    -0.266 OA
ENDBRANCH  36  37
ENDBRANCH  35  36
ENDBRANCH   1  35
BRANCH   5  40
HETATM   40  O14 UNL     1      -0.437 -24.785  19.717  1.00  0.00    -0.376 OA
ATOM     41  H14 UNL     1       0.057 -25.505  19.343  1.00  0.00     0.211 HD
ENDBRANCH   5  40
BRANCH   5  42
HETATM   42  C21 UNL     1      -1.896 -25.367  18.064  1.00  0.00     0.211 C 
HETATM   43  O15 UNL     1      -1.938 -26.452  18.680  1.00  0.00    -0.646 OA
HETATM   44  O16 UNL     1      -2.589 -25.353  16.860  1.00  0.00    -0.646 OA
ENDBRANCH   5  42
BRANCH   6  45
HETATM   45  O17 UNL     1      -3.051 -23.821  19.852  1.00  0.00    -0.312 OA
BRANCH  45  46
HETATM   46  C23 UNL     1      -3.135 -23.941  21.235  1.00  0.00     0.255 C 
HETATM   47  C24 UNL     1      -3.881 -22.978  22.093  1.00  0.00     0.126 C 
HETATM   48  O18 UNL     1      -2.554 -24.912  21.769  1.00  0.00    -0.266 OA
ENDBRANCH  45  46
ENDBRANCH   6  45
TORSDOF 16
ENDMDL
MODEL 3
REMARK VINA RESULT: -7.789556856      2.682      9.671
REMARK  16 active torsions:
REMARK  status: ('A' for Active; 'I' for Inactive)
REMARK    1  A    between atoms: C2_2  and  O2_4 
REMARK    2  A    between atoms: O2_4  and  C3_5 
REMARK    3  A    between atoms: C3_5  and  C4_6 
REMARK    4  A    between atoms: C5_7  and  O3_8 
REMARK    5  A    between atoms: O3_8  and  C6_9 
REMARK    6  A    between atoms: C6_9  and  C7_11 
REMARK    7  A    between atoms: C8_13  and  N1_14 
REMARK    8  A    between atoms: C11_21  and  C12_22 
REMARK    9  A    between atoms: C13_25  and  O9_26 
REMARK   10  A    between atoms: C14_28  and  C15_29 
REMARK   11  A    between atoms: C15_29  and  C16_30 
REMARK   12  A    between atoms: C17_33  and  C18_34 
REMARK   13  A    between atoms: C20_38  and  O14_39 
REMARK   14  A    between atoms: C20_38  and  C21_41 
REMARK   15  A    between atoms: C22_44  and  O17_45 
REMARK   16  A    between atoms: O17_45  and  C23_46 
ROOT
HETATM    1  C4  UNL     1      -1.374 -24.873  16.292  1.00  0.00     0.075 C 
HETATM    2  C5  UNL     1      -0.831 -23.561  16.872  1.00  0.00     0.164 C 
HETATM    3  C8  UNL     1      -0.757 -22.379  16.035  1.00  0.00     0.133 C 
HETATM    4  C19 UNL     1      -1.448 -22.482  14.701  1.00  0.00     0.080 C 
HETATM    5  C20 UNL     1      -2.560 -23.450  14.568  1.00  0.00     0.174 C 
HETATM    6  C22 UNL     1      -2.131 -24.804  15.053  1.00  0.00     0.185 C 
ENDROOT
BRANCH   3   7
HETATM    7  N1  UNL     1       0.517 -21.721  15.806  1.00  0.00    -0.241 N 
HETATM    8  C9  UNL     1       0.825 -20.470  15.395  1.00  0.00     0.353 A 
HETATM    9  O5  UNL     1       0.002 -19.594  15.141  1.00  0.00    -0.244 OA
HETATM   10  N2  UNL     1       2.163 -20.266  15.280  1.00  0.00    -0.191 N 
HETATM   11  N3  UNL     1       2.671 -21.436  15.638  1.00  0.00    -0.213 N 
HETATM   12  C17 UNL     1       2.979 -19.164  14.817  1.00  0.00     0.143 C 
HETATM   13  C10 UNL     1       1.705 -22.316  15.954  1.00  0.00     0.349 A 
HETATM   14  C11 UNL     1       4.125 -21.674  15.719  1.00  0.00     0.247 C 
HETATM   15  O6  UNL     1       2.020 -23.500  16.321  1.00  0.00    -0.245 OA
HETATM   16  C13 UNL     1       4.914 -20.619  15.091  1.00  0.00     0.185 C 
HETATM   17  C14 UNL     1       4.268 -19.351  14.743  1.00  0.00    -0.003 C 
BRANCH  14  18
HETATM   18  C12 UNL     1       4.471 -23.031  15.236  1.00  0.00     0.202 C 
HETATM   19  O7  UNL     1       5.056 -23.845  15.980  1.00  0.00    -0.646 OA
HETATM   20  O8  UNL     1       4.154 -23.411  13.963  1.00  0.00    -0.646 OA
ENDBRANCH  14  18
BRANCH  16  21
HETATM   21  O9  UNL     1       5.569 -21.102  13.924  1.00  0.00    -0.388 OA
ATOM     22  H9  UNL     1       6.298 -20.540  13.688  1.00  0.00     0.210 HD
ENDBRANCH  16  21
BRANCH  17  23
HETATM   23  C15 UNL     1       5.207 -18.240  14.400  1.00  0.00     0.152 C 
BRANCH  23  24
HETATM   24  C16 UNL     1       5.915 -17.647  15.528  1.00  0.00     0.176 C 
HETATM   25  O10 UNL     1       7.169 -17.679  15.580  1.00  0.00    -0.648 OA
HETATM   26  O11 UNL     1       5.264 -17.031  16.572  1.00  0.00    -0.648 OA
ENDBRANCH  23  24
ENDBRANCH  17  23
BRANCH  12  27
HETATM   27  C18 UNL     1       2.360 -17.927  14.389  1.00  0.00     0.229 C 
HETATM   28  O12 UNL     1       1.997 -17.613  13.225  1.00  0.00    -0.643 OA
HETATM   29  O13 UNL     1       2.102 -16.889  15.299  1.00  0.00    -0.643 OA
ENDBRANCH  12  27
ENDBRANCH   3   7
BRANCH   2  30
HETATM   30  O3  UNL     1      -1.464 -23.430  18.083  1.00  0.00    -0.313 OA
BRANCH  30  31
HETATM   31  C6  UNL     1      -2.102 -22.530  18.802  1.00  0.00     0.269 C 
HETATM   32  O4  UNL     1      -1.838 -21.326  18.520  1.00  0.00    -0.264 OA
BRANCH  31  33
HETATM   33  C7  UNL     1      -3.059 -22.903  19.867  1.00  0.00     0.197 C 
HETATM   34  S1  UNL     1      -4.358 -21.640  19.937  1.00  0.00    -0.087 SA
ENDBRANCH  31  33
ENDBRANCH  30  31
ENDBRANCH   2  30
BRANCH   1  35
HETATM   35  C3  UNL     1      -2.111 -25.659  17.346  1.00  0.00     0.188 C 
BRANCH  35  36
HETATM   36  O2  UNL     1      -1.332 -26.697  17.906  1.00  0.00    -0.321 OA
BRANCH  36  37
HETATM   37  C2  UNL     1      -1.548 -27.078  19.237  1.00  0.00     0.254 C 
HETATM   38  C1  UNL     1      -1.559 -26.063  20.285  1.00  0.00     0.126 C 
HETATM   39  O1  UNL     1      -1.728 -28.313  19.443  1.00  0.00    -0.266 OA
ENDBRANCH  36  37
ENDBRANCH  35  36
ENDBRANCH   1  35
BRANCH   5  40
HETATM   40  O14 UNL     1      -2.720 -23.616  13.144  1.00  0.00    -0.376 OA
ATOM     41  H14 UNL     1      -3.522 -24.116  13.054  1.00  0.00     0.211 HD
ENDBRANCH   5  40
BRANCH   5  42
HETATM   42  C21 UNL     1      -3.859 -22.977  15.012  1.00  0.00     0.211 C 
HETATM   43  O15 UNL     1      -4.823 -22.909  14.221  1.00  0.00    -0.646 OA
HETATM   44  O16 UNL     1      -4.142 -22.568  16.310  1.00  0.00    -0.646 OA
ENDBRANCH   5  42
BRANCH   6  45
HETATM   45  O17 UNL     1      -3.351 -25.557  15.044  1.00  0.00    -0.312 OA
BRANCH  45  46
HETATM   46  C23 UNL     1      -3.721 -26.371  13.979  1.00  0.00     0.255 C 
HETATM   47  C24 UNL     1      -5.099 -26.906  13.800  1.00  0.00     0.126 C 
HETATM   48  O18 UNL     1      -2.841 -26.657  13.136  1.00  0.00    -0.266 OA
ENDBRANCH  45  46
ENDBRANCH   6  45
TORSDOF 16
ENDMDL
MODEL 4
REMARK VINA RESULT: -7.437456091      3.114      9.539
REMARK  16 active torsions:
REMARK  status: ('A' for Active; 'I' for Inactive)
REMARK    1  A    between atoms: C2_2  and  O2_4 
REMARK    2  A    between atoms: O2_4  and  C3_5 
REMARK    3  A    between atoms: C3_5  and  C4_6 
REMARK    4  A    between atoms: C5_7  and  O3_8 
REMARK    5  A    between atoms: O3_8  and  C6_9 
REMARK    6  A    between atoms: C6_9  and  C7_11 
REMARK    7  A    between atoms: C8_13  and  N1_14 
REMARK    8  A    between atoms: C11_21  and  C12_22 
REMARK    9  A    between atoms: C13_25  and  O9_26 
REMARK   10  A    between atoms: C14_28  and  C15_29 
REMARK   11  A    between atoms: C15_29  and  C16_30 
REMARK   12  A    between atoms: C17_33  and  C18_34 
REMARK   13  A    between atoms: C20_38  and  O14_39 
REMARK   14  A    between atoms: C20_38  and  C21_41 
REMARK   15  A    between atoms: C22_44  and  O17_45 
REMARK   16  A    between atoms: O17_45  and  C23_46 
ROOT
HETATM    1  C4  UNL     1      -2.367 -22.387  18.450  1.00  0.00     0.075 C 
HETATM    2  C5  UNL     1      -1.688 -22.487  17.078  1.00  0.00     0.164 C 
HETATM    3  C8  UNL     1      -0.513 -23.321  16.913  1.00  0.00     0.133 C 
HETATM    4  C19 UNL     1      -0.185 -24.218  18.077  1.00  0.00     0.080 C 
HETATM    5  C20 UNL     1      -1.288 -24.614  18.982  1.00  0.00     0.174 C 
HETATM    6  C22 UNL     1      -2.044 -23.400  19.441  1.00  0.00     0.185 C 
ENDROOT
BRANCH   3   7
HETATM    7  N1  UNL     1       0.737 -22.744  16.454  1.00  0.00    -0.241 N 
HETATM    8  C9  UNL     1       1.335 -21.560  16.718  1.00  0.00     0.353 A 
HETATM    9  O5  UNL     1       0.888 -20.703  17.477  1.00  0.00    -0.244 OA
HETATM   10  N2  UNL     1       2.505 -21.398  16.046  1.00  0.00    -0.191 N 
HETATM   11  N3  UNL     1       2.610 -22.526  15.359  1.00  0.00    -0.213 N 
HETATM   12  C17 UNL     1       3.456 -20.314  15.925  1.00  0.00     0.143 C 
HETATM   13  C10 UNL     1       1.564 -23.340  15.589  1.00  0.00     0.349 A 
HETATM   14  C11 UNL     1       3.776 -22.826  14.508  1.00  0.00     0.247 C 
HETATM   15  O6  UNL     1       1.503 -24.475  15.002  1.00  0.00    -0.245 OA
HETATM   16  C13 UNL     1       4.626 -21.664  14.268  1.00  0.00     0.185 C 
HETATM   17  C14 UNL     1       4.447 -20.465  15.089  1.00  0.00    -0.003 C 
BRANCH  14  18
HETATM   18  C12 UNL     1       3.364 -23.516  13.263  1.00  0.00     0.202 C 
HETATM   19  O7  UNL     1       3.863 -24.616  12.946  1.00  0.00    -0.646 OA
HETATM   20  O8  UNL     1       2.429 -22.956  12.441  1.00  0.00    -0.646 OA
ENDBRANCH  14  18
BRANCH  16  21
HETATM   21  O9  UNL     1       4.567 -21.265  12.904  1.00  0.00    -0.388 OA
ATOM     22  H9  UNL     1       5.180 -21.765  12.379  1.00  0.00     0.210 HD
ENDBRANCH  16  21
BRANCH  17  23
HETATM   23  C15 UNL     1       5.549 -19.460  14.984  1.00  0.00     0.152 C 
BRANCH  23  24
HETATM   24  C16 UNL     1       5.271 -18.314  14.126  1.00  0.00     0.176 C 
HETATM   25  O10 UNL     1       4.932 -18.484  12.929  1.00  0.00    -0.648 OA
HETATM   26  O11 UNL     1       5.360 -17.015  14.570  1.00  0.00    -0.648 OA
ENDBRANCH  23  24
ENDBRANCH  17  23
BRANCH  12  27
HETATM   27  C18 UNL     1       3.259 -19.083  16.663  1.00  0.00     0.229 C 
HETATM   28  O12 UNL     1       2.646 -18.051  16.284  1.00  0.00    -0.643 OA
HETATM   29  O13 UNL     1       3.781 -18.919  17.956  1.00  0.00    -0.643 OA
ENDBRANCH  12  27
ENDBRANCH   3   7
BRANCH   2  30
HETATM   30  O3  UNL     1      -2.721 -22.682  16.195  1.00  0.00    -0.313 OA
BRANCH  30  31
HETATM   31  C6  UNL     1      -3.000 -22.547  14.915  1.00  0.00     0.269 C 
HETATM   32  O4  UNL     1      -3.255 -21.366  14.539  1.00  0.00    -0.264 OA
BRANCH  31  33
HETATM   33  C7  UNL     1      -3.018 -23.696  13.984  1.00  0.00     0.197 C 
HETATM   34  S1  UNL     1      -1.423 -23.760  13.125  1.00  0.00    -0.087 SA
ENDBRANCH  31  33
ENDBRANCH  30  31
ENDBRANCH   2  30
BRANCH   1  35
HETATM   35  C3  UNL     1      -3.857 -22.220  18.297  1.00  0.00     0.188 C 
BRANCH  35  36
HETATM   36  O2  UNL     1      -4.369 -21.134  19.042  1.00  0.00    -0.321 OA
BRANCH  36  37
HETATM   37  C2  UNL     1      -5.756 -20.948  19.124  1.00  0.00     0.254 C 
HETATM   38  C1  UNL     1      -6.367 -20.642  20.413  1.00  0.00     0.126 C 
HETATM   39  O1  UNL     1      -6.400 -21.059  18.042  1.00  0.00    -0.266 OA
ENDBRANCH  36  37
ENDBRANCH  35  36
ENDBRANCH   1  35
BRANCH   5  40
HETATM   40  O14 UNL     1      -0.621 -25.088  20.170  1.00  0.00    -0.376 OA
ATOM     41  H14 UNL     1      -1.144 -24.745  20.885  1.00  0.00     0.211 HD
ENDBRANCH   5  40
BRANCH   5  42
HETATM   42  C21 UNL     1      -2.079 -25.752  18.547  1.00  0.00     0.211 C 
HETATM   43  O15 UNL     1      -2.145 -26.789  19.239  1.00  0.00    -0.646 OA
HETATM   44  O16 UNL     1      -2.807 -25.793  17.364  1.00  0.00    -0.646 OA
ENDBRANCH   5  42
BRANCH   6  45
HETATM   45  O17 UNL     1      -3.171 -23.957  20.131  1.00  0.00    -0.312 OA
BRANCH  45  46
HETATM   46  C23 UNL     1      -3.300 -23.910  21.514  1.00  0.00     0.255 C 
HETATM   47  C24 UNL     1      -4.140 -22.905  22.222  1.00  0.00     0.126 C 
HETATM   48  O18 UNL     1      -2.676 -24.764  22.183  1.00  0.00    -0.266 OA
ENDBRANCH  45  46
ENDBRANCH   6  45
TORSDOF 16
ENDMDL
MODEL 5
REMARK VINA RESULT: -7.344573937      2.549      9.066
REMARK  16 active torsions:
REMARK  status: ('A' for Active; 'I' for Inactive)
REMARK    1  A    between atoms: C2_2  and  O2_4 
REMARK    2  A    between atoms: O2_4  and  C3_5 
REMARK    3  A    between atoms: C3_5  and  C4_6 
REMARK    4  A    between atoms: C5_7  and  O3_8 
REMARK    5  A    between atoms: O3_8  and  C6_9 
REMARK    6  A    between atoms: C6_9  and  C7_11 
REMARK    7  A    between atoms: C8_13  and  N1_14 
REMARK    8  A    between atoms: C11_21  and  C12_22 
REMARK    9  A    between atoms: C13_25  and  O9_26 
REMARK   10  A    between atoms: C14_28  and  C15_29 
REMARK   11  A    between atoms: C15_29  and  C16_30 
REMARK   12  A    between atoms: C17_33  and  C18_34 
REMARK   13  A    between atoms: C20_38  and  O14_39 
REMARK   14  A    between atoms: C20_38  and  C21_41 
REMARK   15  A    between atoms: C22_44  and  O17_45 
REMARK   16  A    between atoms: O17_45  and  C23_46 
ROOT
HETATM    1  C4  UNL     1      -0.756 -22.661  14.114  1.00  0.00     0.075 C 
HETATM    2  C5  UNL     1       0.777 -22.623  14.175  1.00  0.00     0.164 C 
HETATM    3  C8  UNL     1       1.439 -22.006  15.308  1.00  0.00     0.133 C 
HETATM    4  C19 UNL     1       0.545 -21.646  16.466  1.00  0.00     0.080 C 
HETATM    5  C20 UNL     1      -0.716 -22.403  16.631  1.00  0.00     0.174 C 
HETATM    6  C22 UNL     1      -1.489 -22.413  15.344  1.00  0.00     0.185 C 
ENDROOT
BRANCH   3   7
HETATM    7  N1  UNL     1       2.348 -20.891  15.108  1.00  0.00    -0.241 N 
HETATM    8  C9  UNL     1       3.022 -20.462  14.017  1.00  0.00     0.353 A 
HETATM    9  O5  UNL     1       2.957 -20.979  12.905  1.00  0.00    -0.244 OA
HETATM   10  N2  UNL     1       3.802 -19.379  14.271  1.00  0.00    -0.191 N 
HETATM   11  N3  UNL     1       3.584 -19.154  15.558  1.00  0.00    -0.213 N 
HETATM   12  C17 UNL     1       4.749 -18.613  13.490  1.00  0.00     0.143 C 
HETATM   13  C10 UNL     1       2.720 -20.046  16.074  1.00  0.00     0.349 A 
HETATM   14  C11 UNL     1       4.193 -18.017  16.275  1.00  0.00     0.247 C 
HETATM   15  O6  UNL     1       2.398 -19.976  17.310  1.00  0.00    -0.245 OA
HETATM   16  C13 UNL     1       5.263 -17.371  15.522  1.00  0.00     0.185 C 
HETATM   17  C14 UNL     1       5.418 -17.671  14.097  1.00  0.00    -0.003 C 
BRANCH  14  18
HETATM   18  C12 UNL     1       4.595 -18.405  17.647  1.00  0.00     0.202 C 
HETATM   19  O7  UNL     1       4.267 -17.711  18.631  1.00  0.00    -0.646 OA
HETATM   20  O8  UNL     1       5.334 -19.534  17.855  1.00  0.00    -0.646 OA
ENDBRANCH  14  18
BRANCH  16  21
HETATM   21  O9  UNL     1       6.523 -17.584  16.146  1.00  0.00    -0.388 OA
ATOM     22  H9  UNL     1       6.459 -18.255  16.816  1.00  0.00     0.210 HD
ENDBRANCH  16  21
BRANCH  17  23
HETATM   23  C15 UNL     1       6.323 -16.744  13.353  1.00  0.00     0.152 C 
BRANCH  23  24
HETATM   24  C16 UNL     1       5.665 -15.621  12.694  1.00  0.00     0.176 C 
HETATM   25  O10 UNL     1       4.961 -14.819  13.357  1.00  0.00    -0.648 OA
HETATM   26  O11 UNL     1       5.779 -15.382  11.344  1.00  0.00    -0.648 OA
ENDBRANCH  23  24
ENDBRANCH  17  23
BRANCH  12  27
HETATM   27  C18 UNL     1       4.983 -18.942  12.099  1.00  0.00     0.229 C 
HETATM   28  O12 UNL     1       4.316 -18.565  11.099  1.00  0.00    -0.643 OA
HETATM   29  O13 UNL     1       6.042 -19.781  11.717  1.00  0.00    -0.643 OA
ENDBRANCH  12  27
ENDBRANCH   3   7
BRANCH   2  30
HETATM   30  O3  UNL     1       1.167 -23.897  13.842  1.00  0.00    -0.313 OA
BRANCH  30  31
HETATM   31  C6  UNL     1       2.199 -24.544  13.342  1.00  0.00     0.269 C 
HETATM   32  O4  UNL     1       1.920 -25.608  12.718  1.00  0.00    -0.264 OA
BRANCH  31  33
HETATM   33  C7  UNL     1       3.588 -24.060  13.503  1.00  0.00     0.197 C 
HETATM   34  S1  UNL     1       3.965 -23.983  15.275  1.00  0.00    -0.087 SA
ENDBRANCH  31  33
ENDBRANCH  30  31
ENDBRANCH   2  30
BRANCH   1  35
HETATM   35  C3  UNL     1      -1.233 -23.917  13.431  1.00  0.00     0.188 C 
BRANCH  35  36
HETATM   36  O2  UNL     1      -1.542 -23.720  12.066  1.00  0.00    -0.321 OA
BRANCH  36  37
HETATM   37  C2  UNL     1      -2.878 -23.555  11.680  1.00  0.00     0.254 C 
HETATM   38  C1  UNL     1      -3.445 -22.213  11.599  1.00  0.00     0.126 C 
HETATM   39  O1  UNL     1      -3.520 -24.613  11.418  1.00  0.00    -0.266 OA
ENDBRANCH  36  37
ENDBRANCH  35  36
ENDBRANCH   1  35
BRANCH   5  40
HETATM   40  O14 UNL     1      -1.509 -21.585  17.517  1.00  0.00    -0.376 OA
ATOM     41  H14 UNL     1      -1.985 -22.211  18.051  1.00  0.00     0.211 HD
ENDBRANCH   5  40
BRANCH   5  42
HETATM   42  C21 UNL     1      -0.600 -23.669  17.334  1.00  0.00     0.211 C 
HETATM   43  O15 UNL     1      -1.009 -23.791  18.508  1.00  0.00    -0.646 OA
HETATM   44  O16 UNL     1      -0.042 -24.819  16.790  1.00  0.00    -0.646 OA
ENDBRANCH   5  42
BRANCH   6  45
HETATM   45  O17 UNL     1      -2.558 -23.330  15.611  1.00  0.00    -0.312 OA
BRANCH  45  46
HETATM   46  C23 UNL     1      -3.896 -22.956  15.561  1.00  0.00     0.255 C 
HETATM   47  C24 UNL     1      -4.928 -23.717  14.802  1.00  0.00     0.126 C 
HETATM   48  O18 UNL     1      -4.234 -21.930  16.192  1.00  0.00    -0.266 OA
ENDBRANCH  45  46
ENDBRANCH   6  45
TORSDOF 16
ENDMDL
