MODEL 1
REMARK VINA RESULT: -10.236016593      0.000      0.000
REMARK  19 active torsions:
REMARK  status: ('A' for Active; 'I' for Inactive)
REMARK    1  A    between atoms: O1_2  and  N1_3 
REMARK    2  A    between atoms: N1_3  and  C2_5 
REMARK    3  A    between atoms: C2_5  and  C3_6 
REMARK    4  A    between atoms: C2_5  and  C18_44 
REMARK    5  A    between atoms: C3_6  and  C4_8 
REMARK    6  A    between atoms: C4_8  and  C5_9 
REMARK    7  A    between atoms: C5_9  and  C6_10 
REMARK    8  A    between atoms: C7_13  and  N3_14 
REMARK    9  A    between atoms: C8_18  and  C9_19 
REMARK   10  A    between atoms: C9_19  and  C10_20 
REMARK   11  A    between atoms: N6_30  and  C15_31 
REMARK   12  A    between atoms: C15_31  and  C16_32 
REMARK   13  A    between atoms: C16_32  and  N7_33 
REMARK   14  A    between atoms: C16_32  and  N8_37 
REMARK   15  A    between atoms: C21_47  and  N10_48 
REMARK   16  A    between atoms: N10_48  and  O5_50 
REMARK   17  A    between atoms: C22_54  and  C23_55 
REMARK   18  A    between atoms: C23_55  and  S2_56 
REMARK   19  A    between atoms: S2_56  and  N12_57 
ROOT
HETATM    1  C6  UNL     1       1.872 -22.715  15.209  1.00  0.00     0.047 A 
HETATM    2  N2  UNL     1       1.451 -23.677  14.449  1.00  0.00    -0.336 N 
ATOM      3  H2  UNL     1       0.467 -23.945  14.474  1.00  0.00     0.168 HD
HETATM    4  C7  UNL     1       2.293 -24.324  13.632  1.00  0.00     0.143 A 
HETATM    5  S1  UNL     1       3.771 -23.560  13.930  1.00  0.00    -0.056 SA
HETATM    6  C8  UNL     1       3.254 -22.438  15.091  1.00  0.00     0.020 A 
ENDROOT
BRANCH   1   7
HETATM    7  C5  UNL     1       1.080 -21.846  16.068  1.00  0.00     0.034 C 
BRANCH   7   8
HETATM    8  C4  UNL     1       0.123 -21.973  16.914  1.00  0.00     0.059 C 
BRANCH   8   9
HETATM    9  C3  UNL     1      -1.255 -22.233  16.740  1.00  0.00     0.202 C 
HETATM   10  O2  UNL     1      -1.845 -22.294  15.648  1.00  0.00    -0.286 OA
BRANCH   9  11
HETATM   11  C2  UNL     1      -2.140 -22.463  17.912  1.00  0.00     0.131 C 
BRANCH  11  12
HETATM   12  N1  UNL     1      -2.796 -21.574  18.441  1.00  0.00    -0.261 N 
ATOM     13  H1  UNL     1      -2.480 -20.692  18.040  1.00  0.00     0.194 HD
BRANCH  12  14
HETATM   14  O1  UNL     1      -3.718 -21.291  19.292  1.00  0.00    -0.285 OA
HETATM   15  C1  UNL     1      -5.084 -21.052  18.917  1.00  0.00     0.237 C 
ENDBRANCH  12  14
ENDBRANCH  11  12
BRANCH  11  16
HETATM   16  C18 UNL     1      -2.234 -23.849  18.467  1.00  0.00     0.066 C 
HETATM   17  C19 UNL     1      -1.810 -24.848  17.609  1.00  0.00     0.036 C 
HETATM   18  C20 UNL     1      -1.498 -26.165  17.924  1.00  0.00     0.052 C 
HETATM   19  C21 UNL     1      -1.404 -26.706  19.168  1.00  0.00     0.126 C 
HETATM   20  N11 UNL     1      -1.946 -26.221  20.322  1.00  0.00    -0.330 N 
HETATM   21  C22 UNL     1      -2.428 -25.004  20.603  1.00  0.00     0.099 C 
ATOM     22  H11 UNL     1      -1.991 -26.890  21.092  1.00  0.00     0.168 HD
HETATM   23  N13 UNL     1      -2.698 -24.013  19.705  1.00  0.00    -0.343 N 
ATOM     24  H13 UNL     1      -3.348 -23.295  20.026  1.00  0.00     0.167 HD
BRANCH  19  25
HETATM   25  N10 UNL     1      -0.737 -27.803  19.319  1.00  0.00    -0.253 N 
ATOM     26  H10 UNL     1      -0.618 -28.422  18.517  1.00  0.00     0.196 HD
BRANCH  25  27
HETATM   27  O5  UNL     1      -0.189 -28.158  20.512  1.00  0.00    -0.288 OA
ATOM     28  H5  UNL     1       0.228 -29.001  20.646  1.00  0.00     0.244 HD
ENDBRANCH  25  27
ENDBRANCH  19  25
BRANCH  21  29
HETATM   29  C23 UNL     1      -2.695 -24.690  22.019  1.00  0.00     0.239 C 
BRANCH  29  30
HETATM   30  S2  UNL     1      -1.663 -25.725  23.021  1.00  0.00     0.231 S 
HETATM   31  O6  UNL     1      -0.235 -25.695  22.586  1.00  0.00    -0.206 OA
HETATM   32  O7  UNL     1      -2.206 -27.126  22.947  1.00  0.00    -0.206 OA
BRANCH  30  33
HETATM   33  N12 UNL     1      -1.806 -25.223  24.680  1.00  0.00    -0.328 N 
ATOM     34 2H12 UNL     1      -1.794 -24.254  24.998  1.00  0.00     0.168 HD
ATOM     35 1H12 UNL     1      -1.903 -26.052  25.268  1.00  0.00     0.168 HD
ENDBRANCH  30  33
ENDBRANCH  29  30
ENDBRANCH  21  29
ENDBRANCH  11  16
ENDBRANCH   9  11
ENDBRANCH   8   9
ENDBRANCH   7   8
ENDBRANCH   1   7
BRANCH   6  36
HETATM   36  C9  UNL     1       4.039 -21.388  15.828  1.00  0.00     0.125 C 
BRANCH  36  37
HETATM   37  C10 UNL     1       4.333 -20.264  14.938  1.00  0.00     0.088 A 
HETATM   38  N4  UNL     1       3.879 -20.167  13.667  1.00  0.00    -0.338 N 
HETATM   39  C11 UNL     1       4.319 -19.021  13.116  1.00  0.00     0.147 A 
ATOM     40  H4  UNL     1       3.293 -20.857  13.199  1.00  0.00     0.167 HD
HETATM   41  C12 UNL     1       4.184 -18.395  11.897  1.00  0.00     0.281 A 
HETATM   42  C17 UNL     1       5.087 -18.357  14.079  1.00  0.00     0.145 A 
HETATM   43  O3  UNL     1       3.504 -18.959  11.015  1.00  0.00    -0.265 OA
HETATM   44  N5  UNL     1       4.748 -17.209  11.614  1.00  0.00    -0.269 N 
HETATM   45  C13 UNL     1       4.590 -16.569  10.312  1.00  0.00     0.164 C 
HETATM   46  C14 UNL     1       5.477 -16.622  12.584  1.00  0.00     0.333 A 
HETATM   47  O4  UNL     1       5.994 -15.497  12.270  1.00  0.00    -0.246 OA
HETATM   48  N6  UNL     1       5.652 -17.173  13.797  1.00  0.00    -0.279 N 
HETATM   49  N9  UNL     1       5.053 -19.171  15.160  1.00  0.00    -0.330 N 
ATOM     50  H9  UNL     1       5.524 -18.967  16.042  1.00  0.00     0.168 HD
BRANCH  48  51
HETATM   51  C15 UNL     1       6.435 -16.479  14.777  1.00  0.00     0.197 C 
BRANCH  51  52
HETATM   52  C16 UNL     1       7.890 -16.820  14.789  1.00  0.00     0.396 C 
BRANCH  52  53
HETATM   53  N7  UNL     1       8.384 -17.036  16.107  1.00  0.00    -0.049 N 
ATOM     54  H73 UNL     1       7.906 -16.439  16.783  1.00  0.00     0.276 HD
ATOM     55  H72 UNL     1       8.096 -17.947  16.463  1.00  0.00     0.276 HD
ATOM     56  H71 UNL     1       9.396 -16.921  16.165  1.00  0.00     0.276 HD
ENDBRANCH  52  53
BRANCH  52  57
HETATM   57  N8  UNL     1       8.579 -15.722  14.098  1.00  0.00    -0.049 N 
ATOM     58  H83 UNL     1       8.429 -15.722  13.089  1.00  0.00     0.276 HD
ATOM     59  H82 UNL     1       8.170 -14.806  14.287  1.00  0.00     0.276 HD
ATOM     60  H81 UNL     1       9.562 -15.788  14.361  1.00  0.00     0.276 HD
ENDBRANCH  52  57
ENDBRANCH  51  52
ENDBRANCH  48  51
ENDBRANCH  36  37
ENDBRANCH   6  36
BRANCH   4  61
HETATM   61  N3  UNL     1       2.004 -25.316  12.806  1.00  0.00    -0.380 N 
ATOM     62  H32 UNL     1       1.233 -25.983  12.832  1.00  0.00     0.158 HD
ATOM     63  H31 UNL     1       2.518 -25.593  11.970  1.00  0.00     0.158 HD
ENDBRANCH   4  61
TORSDOF 19
ENDMDL
MODEL 2
REMARK VINA RESULT: -9.631040576      1.323      1.583
REMARK  19 active torsions:
REMARK  status: ('A' for Active; 'I' for Inactive)
REMARK    1  A    between atoms: O1_2  and  N1_3 
REMARK    2  A    between atoms: N1_3  and  C2_5 
REMARK    3  A    between atoms: C2_5  and  C3_6 
REMARK    4  A    between atoms: C2_5  and  C18_44 
REMARK    5  A    between atoms: C3_6  and  C4_8 
REMARK    6  A    between atoms: C4_8  and  C5_9 
REMARK    7  A    between atoms: C5_9  and  C6_10 
REMARK    8  A    between atoms: C7_13  and  N3_14 
REMARK    9  A    between atoms: C8_18  and  C9_19 
REMARK   10  A    between atoms: C9_19  and  C10_20 
REMARK   11  A    between atoms: N6_30  and  C15_31 
REMARK   12  A    between atoms: C15_31  and  C16_32 
REMARK   13  A    between atoms: C16_32  and  N7_33 
REMARK   14  A    between atoms: C16_32  and  N8_37 
REMARK   15  A    between atoms: C21_47  and  N10_48 
REMARK   16  A    between atoms: N10_48  and  O5_50 
REMARK   17  A    between atoms: C22_54  and  C23_55 
REMARK   18  A    between atoms: C23_55  and  S2_56 
REMARK   19  A    between atoms: S2_56  and  N12_57 
ROOT
HETATM    1  C6  UNL     1       1.959 -23.370  15.467  1.00  0.00     0.047 A 
HETATM    2  N2  UNL     1       1.546 -24.276  14.636  1.00  0.00    -0.336 N 
ATOM      3  H2  UNL     1       0.669 -24.763  14.818  1.00  0.00     0.168 HD
HETATM    4  C7  UNL     1       2.258 -24.579  13.543  1.00  0.00     0.143 A 
HETATM    5  S1  UNL     1       3.595 -23.551  13.665  1.00  0.00    -0.056 SA
HETATM    6  C8  UNL     1       3.189 -22.768  15.113  1.00  0.00     0.020 A 
ENDROOT
BRANCH   1   7
HETATM    7  C5  UNL     1       1.263 -22.848  16.635  1.00  0.00     0.034 C 
BRANCH   7   8
HETATM    8  C4  UNL     1       0.272 -22.069  16.872  1.00  0.00     0.059 C 
BRANCH   8   9
HETATM    9  C3  UNL     1      -1.123 -22.253  16.733  1.00  0.00     0.202 C 
HETATM   10  O2  UNL     1      -1.744 -22.264  15.657  1.00  0.00    -0.286 OA
BRANCH   9  11
HETATM   11  C2  UNL     1      -1.987 -22.457  17.925  1.00  0.00     0.131 C 
BRANCH  11  12
HETATM   12  N1  UNL     1      -2.587 -21.545  18.481  1.00  0.00    -0.261 N 
ATOM     13  H1  UNL     1      -2.010 -20.709  18.389  1.00  0.00     0.194 HD
BRANCH  12  14
HETATM   14  O1  UNL     1      -3.642 -21.203  19.133  1.00  0.00    -0.285 OA
HETATM   15  C1  UNL     1      -4.954 -21.193  18.549  1.00  0.00     0.237 C 
ENDBRANCH  12  14
ENDBRANCH  11  12
BRANCH  11  16
HETATM   16  C18 UNL     1      -2.131 -23.844  18.466  1.00  0.00     0.066 C 
HETATM   17  C19 UNL     1      -1.710 -24.847  17.612  1.00  0.00     0.036 C 
HETATM   18  C20 UNL     1      -1.441 -26.173  17.925  1.00  0.00     0.052 C 
HETATM   19  C21 UNL     1      -1.393 -26.726  19.166  1.00  0.00     0.126 C 
HETATM   20  N11 UNL     1      -1.952 -26.235  20.310  1.00  0.00    -0.330 N 
HETATM   21  C22 UNL     1      -2.411 -25.008  20.588  1.00  0.00     0.099 C 
ATOM     22  H11 UNL     1      -2.035 -26.908  21.073  1.00  0.00     0.168 HD
HETATM   23  N13 UNL     1      -2.632 -24.004  19.690  1.00  0.00    -0.343 N 
ATOM     24  H13 UNL     1      -3.271 -23.272  20.000  1.00  0.00     0.167 HD
BRANCH  19  25
HETATM   25  N10 UNL     1      -0.759 -27.841  19.327  1.00  0.00    -0.253 N 
ATOM     26  H10 UNL     1      -0.682 -28.482  18.537  1.00  0.00     0.196 HD
BRANCH  25  27
HETATM   27  O5  UNL     1      -0.191 -28.186  20.513  1.00  0.00    -0.288 OA
ATOM     28  H5  UNL     1       0.743 -28.104  20.670  1.00  0.00     0.244 HD
ENDBRANCH  25  27
ENDBRANCH  19  25
BRANCH  21  29
HETATM   29  C23 UNL     1      -2.706 -24.698  21.999  1.00  0.00     0.239 C 
BRANCH  29  30
HETATM   30  S2  UNL     1      -1.672 -25.713  23.019  1.00  0.00     0.231 S 
HETATM   31  O6  UNL     1      -0.241 -25.671  22.597  1.00  0.00    -0.206 OA
HETATM   32  O7  UNL     1      -2.200 -27.120  22.953  1.00  0.00    -0.206 OA
BRANCH  30  33
HETATM   33  N12 UNL     1      -1.836 -25.197  24.672  1.00  0.00    -0.328 N 
ATOM     34 2H12 UNL     1      -2.724 -25.075  25.159  1.00  0.00     0.168 HD
ATOM     35 1H12 UNL     1      -0.906 -25.042  25.062  1.00  0.00     0.168 HD
ENDBRANCH  30  33
ENDBRANCH  29  30
ENDBRANCH  21  29
ENDBRANCH  11  16
ENDBRANCH   9  11
ENDBRANCH   8   9
ENDBRANCH   7   8
ENDBRANCH   1   7
BRANCH   6  36
HETATM   36  C9  UNL     1       3.925 -21.691  15.861  1.00  0.00     0.125 C 
BRANCH  36  37
HETATM   37  C10 UNL     1       3.905 -20.444  15.093  1.00  0.00     0.088 A 
HETATM   38  N4  UNL     1       2.785 -19.731  14.839  1.00  0.00    -0.338 N 
HETATM   39  C11 UNL     1       3.098 -18.640  14.115  1.00  0.00     0.147 A 
ATOM     40  H4  UNL     1       1.846 -19.980  15.148  1.00  0.00     0.167 HD
HETATM   41  C12 UNL     1       2.405 -17.576  13.580  1.00  0.00     0.281 A 
HETATM   42  C17 UNL     1       4.480 -18.660  13.898  1.00  0.00     0.145 A 
HETATM   43  O3  UNL     1       1.171 -17.526  13.755  1.00  0.00    -0.265 OA
HETATM   44  N5  UNL     1       2.996 -16.592  12.882  1.00  0.00    -0.269 N 
HETATM   45  C13 UNL     1       2.238 -15.477  12.325  1.00  0.00     0.164 C 
HETATM   46  C14 UNL     1       4.331 -16.671  12.708  1.00  0.00     0.333 A 
HETATM   47  O4  UNL     1       4.848 -15.714  12.037  1.00  0.00    -0.246 OA
HETATM   48  N6  UNL     1       5.071 -17.678  13.200  1.00  0.00    -0.279 N 
HETATM   49  N9  UNL     1       4.905 -19.784  14.520  1.00  0.00    -0.330 N 
ATOM     50  H9  UNL     1       5.879 -20.089  14.547  1.00  0.00     0.168 HD
BRANCH  48  51
HETATM   51  C15 UNL     1       6.487 -17.682  12.978  1.00  0.00     0.197 C 
BRANCH  51  52
HETATM   52  C16 UNL     1       6.918 -18.104  11.610  1.00  0.00     0.396 C 
BRANCH  52  53
HETATM   53  N7  UNL     1       6.457 -19.410  11.276  1.00  0.00    -0.049 N 
ATOM     54  H73 UNL     1       5.689 -19.696  11.884  1.00  0.00     0.276 HD
ATOM     55  H72 UNL     1       5.966 -19.410  10.383  1.00  0.00     0.276 HD
ATOM     56  H71 UNL     1       7.209 -20.099  11.283  1.00  0.00     0.276 HD
ENDBRANCH  52  53
BRANCH  52  57
HETATM   57  N8  UNL     1       8.382 -17.994  11.584  1.00  0.00    -0.049 N 
ATOM     58  H83 UNL     1       8.845 -18.616  12.247  1.00  0.00     0.276 HD
ATOM     59  H82 UNL     1       8.801 -18.377  10.737  1.00  0.00     0.276 HD
ATOM     60  H81 UNL     1       8.600 -17.009  11.734  1.00  0.00     0.276 HD
ENDBRANCH  52  57
ENDBRANCH  51  52
ENDBRANCH  48  51
ENDBRANCH  36  37
ENDBRANCH   6  36
BRANCH   4  61
HETATM   61  N3  UNL     1       1.960 -25.473  12.615  1.00  0.00    -0.380 N 
ATOM     62  H32 UNL     1       1.051 -25.758  12.251  1.00  0.00     0.158 HD
ATOM     63  H31 UNL     1       2.610 -26.051  12.083  1.00  0.00     0.158 HD
ENDBRANCH   4  61
TORSDOF 19
ENDMDL
MODEL 3
REMARK VINA RESULT: -9.604178788      1.200      2.473
REMARK  19 active torsions:
REMARK  status: ('A' for Active; 'I' for Inactive)
REMARK    1  A    between atoms: O1_2  and  N1_3 
REMARK    2  A    between atoms: N1_3  and  C2_5 
REMARK    3  A    between atoms: C2_5  and  C3_6 
REMARK    4  A    between atoms: C2_5  and  C18_44 
REMARK    5  A    between atoms: C3_6  and  C4_8 
REMARK    6  A    between atoms: C4_8  and  C5_9 
REMARK    7  A    between atoms: C5_9  and  C6_10 
REMARK    8  A    between atoms: C7_13  and  N3_14 
REMARK    9  A    between atoms: C8_18  and  C9_19 
REMARK   10  A    between atoms: C9_19  and  C10_20 
REMARK   11  A    between atoms: N6_30  and  C15_31 
REMARK   12  A    between atoms: C15_31  and  C16_32 
REMARK   13  A    between atoms: C16_32  and  N7_33 
REMARK   14  A    between atoms: C16_32  and  N8_37 
REMARK   15  A    between atoms: C21_47  and  N10_48 
REMARK   16  A    between atoms: N10_48  and  O5_50 
REMARK   17  A    between atoms: C22_54  and  C23_55 
REMARK   18  A    between atoms: C23_55  and  S2_56 
REMARK   19  A    between atoms: S2_56  and  N12_57 
ROOT
HETATM    1  C6  UNL     1       1.948 -23.273  15.444  1.00  0.00     0.047 A 
HETATM    2  N2  UNL     1       1.856 -24.180  14.523  1.00  0.00    -0.336 N 
ATOM      3  H2  UNL     1       1.125 -24.889  14.585  1.00  0.00     0.168 HD
HETATM    4  C7  UNL     1       2.709 -24.197  13.490  1.00  0.00     0.143 A 
HETATM    5  S1  UNL     1       3.715 -22.876  13.808  1.00  0.00    -0.056 SA
HETATM    6  C8  UNL     1       3.002 -22.349  15.254  1.00  0.00     0.020 A 
ENDROOT
BRANCH   1   7
HETATM    7  C5  UNL     1       1.047 -23.047  16.566  1.00  0.00     0.034 C 
BRANCH   7   8
HETATM    8  C4  UNL     1       0.136 -22.203  16.889  1.00  0.00     0.059 C 
BRANCH   8   9
HETATM    9  C3  UNL     1      -1.271 -22.245  16.760  1.00  0.00     0.202 C 
HETATM   10  O2  UNL     1      -1.901 -22.114  15.697  1.00  0.00    -0.286 OA
BRANCH   9  11
HETATM   11  C2  UNL     1      -2.139 -22.459  17.948  1.00  0.00     0.131 C 
BRANCH  11  12
HETATM   12  N1  UNL     1      -2.767 -21.558  18.489  1.00  0.00    -0.261 N 
ATOM     13  H1  UNL     1      -2.361 -20.679  18.171  1.00  0.00     0.194 HD
BRANCH  12  14
HETATM   14  O1  UNL     1      -3.727 -21.260  19.293  1.00  0.00    -0.285 OA
HETATM   15  C1  UNL     1      -5.089 -21.111  18.865  1.00  0.00     0.237 C 
ENDBRANCH  12  14
ENDBRANCH  11  12
BRANCH  11  16
HETATM   16  C18 UNL     1      -2.250 -23.844  18.502  1.00  0.00     0.066 C 
HETATM   17  C19 UNL     1      -1.849 -24.849  17.640  1.00  0.00     0.036 C 
HETATM   18  C20 UNL     1      -1.556 -26.170  17.952  1.00  0.00     0.052 C 
HETATM   19  C21 UNL     1      -1.460 -26.715  19.194  1.00  0.00     0.126 C 
HETATM   20  N11 UNL     1      -1.985 -26.222  20.354  1.00  0.00    -0.330 N 
HETATM   21  C22 UNL     1      -2.446 -24.997  20.639  1.00  0.00     0.099 C 
ATOM     22  H11 UNL     1      -2.035 -26.890  21.123  1.00  0.00     0.168 HD
HETATM   23  N13 UNL     1      -2.708 -24.001  19.743  1.00  0.00    -0.343 N 
ATOM     24  H13 UNL     1      -3.344 -23.273  20.070  1.00  0.00     0.167 HD
BRANCH  19  25
HETATM   25  N10 UNL     1      -0.810 -27.822  19.340  1.00  0.00    -0.253 N 
ATOM     26  H10 UNL     1      -0.757 -28.469  18.553  1.00  0.00     0.196 HD
BRANCH  25  27
HETATM   27  O5  UNL     1      -0.194 -28.152  20.507  1.00  0.00    -0.288 OA
ATOM     28  H5  UNL     1       0.335 -28.935  20.595  1.00  0.00     0.244 HD
ENDBRANCH  25  27
ENDBRANCH  19  25
BRANCH  21  29
HETATM   29  C23 UNL     1      -2.697 -24.681  22.057  1.00  0.00     0.239 C 
BRANCH  29  30
HETATM   30  S2  UNL     1      -1.659 -25.718  23.050  1.00  0.00     0.231 S 
HETATM   31  O6  UNL     1      -0.236 -25.695  22.600  1.00  0.00    -0.206 OA
HETATM   32  O7  UNL     1      -2.209 -27.117  22.983  1.00  0.00    -0.206 OA
BRANCH  30  33
HETATM   33  N12 UNL     1      -1.782 -25.213  24.710  1.00  0.00    -0.328 N 
ATOM     34 2H12 UNL     1      -2.055 -25.820  25.484  1.00  0.00     0.168 HD
ATOM     35 1H12 UNL     1      -1.539 -24.224  24.772  1.00  0.00     0.168 HD
ENDBRANCH  30  33
ENDBRANCH  29  30
ENDBRANCH  21  29
ENDBRANCH  11  16
ENDBRANCH   9  11
ENDBRANCH   8   9
ENDBRANCH   7   8
ENDBRANCH   1   7
BRANCH   6  36
HETATM   36  C9  UNL     1       3.367 -21.187  16.136  1.00  0.00     0.125 C 
BRANCH  36  37
HETATM   37  C10 UNL     1       3.926 -20.102  15.329  1.00  0.00     0.088 A 
HETATM   38  N4  UNL     1       5.103 -19.491  15.595  1.00  0.00    -0.338 N 
HETATM   39  C11 UNL     1       5.338 -18.541  14.672  1.00  0.00     0.147 A 
ATOM     40  H4  UNL     1       5.719 -19.717  16.376  1.00  0.00     0.167 HD
HETATM   41  C12 UNL     1       6.340 -17.628  14.426  1.00  0.00     0.281 A 
HETATM   42  C17 UNL     1       4.263 -18.545  13.778  1.00  0.00     0.145 A 
HETATM   43  O3  UNL     1       7.316 -17.596  15.204  1.00  0.00    -0.265 OA
HETATM   44  N5  UNL     1       6.316 -16.772  13.390  1.00  0.00    -0.269 N 
HETATM   45  C13 UNL     1       7.391 -15.815  13.153  1.00  0.00     0.164 C 
HETATM   46  C14 UNL     1       5.251 -16.828  12.565  1.00  0.00     0.333 A 
HETATM   47  O4  UNL     1       5.271 -15.996  11.595  1.00  0.00    -0.246 OA
HETATM   48  N6  UNL     1       4.237 -17.691  12.742  1.00  0.00    -0.279 N 
HETATM   49  N9  UNL     1       3.443 -19.519  14.238  1.00  0.00    -0.330 N 
ATOM     50  H9  UNL     1       2.558 -19.775  13.799  1.00  0.00     0.168 HD
BRANCH  48  51
HETATM   51  C15 UNL     1       3.145 -17.692  11.814  1.00  0.00     0.197 C 
BRANCH  51  52
HETATM   52  C16 UNL     1       1.908 -16.996  12.284  1.00  0.00     0.396 C 
BRANCH  52  53
HETATM   53  N7  UNL     1       0.883 -16.989  11.295  1.00  0.00    -0.049 N 
ATOM     54  H73 UNL     1       1.119 -16.364  10.524  1.00  0.00     0.276 HD
ATOM     55  H72 UNL     1       0.856 -17.873  10.786  1.00  0.00     0.276 HD
ATOM     56  H71 UNL     1      -0.031 -16.762  11.687  1.00  0.00     0.276 HD
ENDBRANCH  52  53
BRANCH  52  57
HETATM   57  N8  UNL     1       2.319 -15.644  12.684  1.00  0.00    -0.049 N 
ATOM     58  H83 UNL     1       3.300 -15.585  12.960  1.00  0.00     0.276 HD
ATOM     59  H82 UNL     1       2.368 -14.989  11.904  1.00  0.00     0.276 HD
ATOM     60  H81 UNL     1       1.674 -15.352  13.418  1.00  0.00     0.276 HD
ENDBRANCH  52  57
ENDBRANCH  51  52
ENDBRANCH  48  51
ENDBRANCH  36  37
ENDBRANCH   6  36
BRANCH   4  61
HETATM   61  N3  UNL     1       2.732 -25.055  12.484  1.00  0.00    -0.380 N 
ATOM     62  H32 UNL     1       2.238 -25.029  11.592  1.00  0.00     0.158 HD
ATOM     63  H31 UNL     1       3.268 -25.921  12.422  1.00  0.00     0.158 HD
ENDBRANCH   4  61
TORSDOF 19
ENDMDL
MODEL 4
REMARK VINA RESULT: -9.593997546      2.412     11.324
REMARK  19 active torsions:
REMARK  status: ('A' for Active; 'I' for Inactive)
REMARK    1  A    between atoms: O1_2  and  N1_3 
REMARK    2  A    between atoms: N1_3  and  C2_5 
REMARK    3  A    between atoms: C2_5  and  C3_6 
REMARK    4  A    between atoms: C2_5  and  C18_44 
REMARK    5  A    between atoms: C3_6  and  C4_8 
REMARK    6  A    between atoms: C4_8  and  C5_9 
REMARK    7  A    between atoms: C5_9  and  C6_10 
REMARK    8  A    between atoms: C7_13  and  N3_14 
REMARK    9  A    between atoms: C8_18  and  C9_19 
REMARK   10  A    between atoms: C9_19  and  C10_20 
REMARK   11  A    between atoms: N6_30  and  C15_31 
REMARK   12  A    between atoms: C15_31  and  C16_32 
REMARK   13  A    between atoms: C16_32  and  N7_33 
REMARK   14  A    between atoms: C16_32  and  N8_37 
REMARK   15  A    between atoms: C21_47  and  N10_48 
REMARK   16  A    between atoms: N10_48  and  O5_50 
REMARK   17  A    between atoms: C22_54  and  C23_55 
REMARK   18  A    between atoms: C23_55  and  S2_56 
REMARK   19  A    between atoms: S2_56  and  N12_57 
ROOT
HETATM    1  C6  UNL     1       0.942 -22.245  14.953  1.00  0.00     0.047 A 
HETATM    2  N2  UNL     1       1.737 -23.092  14.379  1.00  0.00    -0.336 N 
ATOM      3  H2  UNL     1       2.742 -22.917  14.374  1.00  0.00     0.168 HD
HETATM    4  C7  UNL     1       1.254 -24.194  13.790  1.00  0.00     0.143 A 
HETATM    5  S1  UNL     1      -0.412 -24.057  14.039  1.00  0.00    -0.056 SA
HETATM    6  C8  UNL     1      -0.428 -22.591  14.891  1.00  0.00     0.020 A 
ENDROOT
BRANCH   1   7
HETATM    7  C5  UNL     1       1.305 -21.063  15.724  1.00  0.00     0.034 C 
BRANCH   7   8
HETATM    8  C4  UNL     1       2.193 -20.739  16.592  1.00  0.00     0.059 C 
BRANCH   8   9
HETATM    9  C3  UNL     1       3.034 -19.608  16.698  1.00  0.00     0.202 C 
HETATM   10  O2  UNL     1       2.696 -18.498  17.143  1.00  0.00    -0.286 OA
BRANCH   9  11
HETATM   11  C2  UNL     1       4.454 -19.671  16.263  1.00  0.00     0.131 C 
BRANCH  11  12
HETATM   12  N1  UNL     1       5.134 -20.687  16.341  1.00  0.00    -0.261 N 
ATOM     13  H1  UNL     1       5.808 -20.536  17.092  1.00  0.00     0.194 HD
BRANCH  12  14
HETATM   14  O1  UNL     1       5.352 -21.864  15.870  1.00  0.00    -0.285 OA
HETATM   15  C1  UNL     1       4.987 -22.254  14.537  1.00  0.00     0.237 C 
ENDBRANCH  12  14
ENDBRANCH  11  12
BRANCH  11  16
HETATM   16  C18 UNL     1       5.077 -18.433  15.699  1.00  0.00     0.066 C 
HETATM   17  C19 UNL     1       6.313 -18.112  16.230  1.00  0.00     0.036 C 
HETATM   18  C20 UNL     1       7.253 -17.225  15.721  1.00  0.00     0.052 C 
HETATM   19  C21 UNL     1       7.216 -16.599  14.515  1.00  0.00     0.126 C 
HETATM   20  N11 UNL     1       6.121 -16.392  13.726  1.00  0.00    -0.330 N 
HETATM   21  C22 UNL     1       4.914 -16.970  13.758  1.00  0.00     0.099 C 
ATOM     22  H11 UNL     1       6.242 -15.686  12.999  1.00  0.00     0.168 HD
HETATM   23  N13 UNL     1       4.420 -17.759  14.756  1.00  0.00    -0.343 N 
ATOM     24  H13 UNL     1       3.404 -17.844  14.785  1.00  0.00     0.167 HD
BRANCH  19  25
HETATM   25  N10 UNL     1       8.316 -16.131  14.023  1.00  0.00    -0.253 N 
ATOM     26  H10 UNL     1       8.955 -15.626  14.637  1.00  0.00     0.196 HD
BRANCH  25  27
HETATM   27  O5  UNL     1       8.648 -16.289  12.713  1.00  0.00    -0.288 OA
ATOM     28  H5  UNL     1       8.163 -16.866  12.135  1.00  0.00     0.244 HD
ENDBRANCH  25  27
ENDBRANCH  19  25
BRANCH  21  29
HETATM   29  C23 UNL     1       4.023 -16.742  12.606  1.00  0.00     0.239 C 
BRANCH  29  30
HETATM   30  S2  UNL     1       4.441 -17.910  11.340  1.00  0.00     0.231 S 
HETATM   31  O6  UNL     1       3.359 -18.913  11.114  1.00  0.00    -0.206 OA
HETATM   32  O7  UNL     1       5.716 -18.594  11.750  1.00  0.00    -0.206 OA
BRANCH  30  33
HETATM   33  N12 UNL     1       4.789 -17.045   9.872  1.00  0.00    -0.328 N 
ATOM     34 2H12 UNL     1       4.632 -16.047   9.733  1.00  0.00     0.168 HD
ATOM     35 1H12 UNL     1       5.169 -17.699   9.187  1.00  0.00     0.168 HD
ENDBRANCH  30  33
ENDBRANCH  29  30
ENDBRANCH  21  29
ENDBRANCH  11  16
ENDBRANCH   9  11
ENDBRANCH   8   9
ENDBRANCH   7   8
ENDBRANCH   1   7
BRANCH   6  36
HETATM   36  C9  UNL     1      -1.589 -21.824  15.460  1.00  0.00     0.125 C 
BRANCH  36  37
HETATM   37  C10 UNL     1      -1.920 -22.332  16.792  1.00  0.00     0.088 A 
HETATM   38  N4  UNL     1      -2.855 -21.782  17.601  1.00  0.00    -0.338 N 
HETATM   39  C11 UNL     1      -2.925 -22.479  18.750  1.00  0.00     0.147 A 
ATOM     40  H4  UNL     1      -3.420 -20.965  17.374  1.00  0.00     0.167 HD
HETATM   41  C12 UNL     1      -3.666 -22.402  19.909  1.00  0.00     0.281 A 
HETATM   42  C17 UNL     1      -1.993 -23.520  18.671  1.00  0.00     0.145 A 
HETATM   43  O3  UNL     1      -4.507 -21.487  20.014  1.00  0.00    -0.265 OA
HETATM   44  N5  UNL     1      -3.525 -23.266  20.929  1.00  0.00    -0.269 N 
HETATM   45  C13 UNL     1      -4.323 -23.161  22.146  1.00  0.00     0.164 C 
HETATM   46  C14 UNL     1      -2.610 -24.246  20.789  1.00  0.00     0.333 A 
HETATM   47  O4  UNL     1      -2.511 -25.042  21.784  1.00  0.00    -0.246 OA
HETATM   48  N6  UNL     1      -1.852 -24.383  19.689  1.00  0.00    -0.279 N 
HETATM   49  N9  UNL     1      -1.419 -23.369  17.454  1.00  0.00    -0.330 N 
ATOM     50  H9  UNL     1      -0.688 -23.980  17.089  1.00  0.00     0.168 HD
BRANCH  48  51
HETATM   51  C15 UNL     1      -0.906 -25.458  19.617  1.00  0.00     0.197 C 
BRANCH  51  52
HETATM   52  C16 UNL     1      -1.421 -26.721  19.006  1.00  0.00     0.396 C 
BRANCH  52  53
HETATM   53  N7  UNL     1      -1.059 -27.874  19.760  1.00  0.00    -0.049 N 
ATOM     54  H73 UNL     1      -0.145 -28.228  19.476  1.00  0.00     0.276 HD
ATOM     55  H72 UNL     1      -0.845 -27.629  20.727  1.00  0.00     0.276 HD
ATOM     56  H71 UNL     1      -1.768 -28.605  19.714  1.00  0.00     0.276 HD
ENDBRANCH  52  53
BRANCH  52  57
HETATM   57  N8  UNL     1      -0.905 -26.757  17.632  1.00  0.00    -0.049 N 
ATOM     58  H83 UNL     1      -1.362 -26.088  17.011  1.00  0.00     0.276 HD
ATOM     59  H82 UNL     1       0.041 -26.385  17.545  1.00  0.00     0.276 HD
ATOM     60  H81 UNL     1      -0.990 -27.723  17.317  1.00  0.00     0.276 HD
ENDBRANCH  52  57
ENDBRANCH  51  52
ENDBRANCH  48  51
ENDBRANCH  36  37
ENDBRANCH   6  36
BRANCH   4  61
HETATM   61  N3  UNL     1       1.942 -25.139  13.172  1.00  0.00    -0.380 N 
ATOM     62  H32 UNL     1       2.947 -25.315  13.162  1.00  0.00     0.158 HD
ATOM     63  H31 UNL     1       1.575 -25.884  12.580  1.00  0.00     0.158 HD
ENDBRANCH   4  61
TORSDOF 19
ENDMDL
MODEL 5
REMARK VINA RESULT: -9.460276734      1.559      2.889
REMARK  19 active torsions:
REMARK  status: ('A' for Active; 'I' for Inactive)
REMARK    1  A    between atoms: O1_2  and  N1_3 
REMARK    2  A    between atoms: N1_3  and  C2_5 
REMARK    3  A    between atoms: C2_5  and  C3_6 
REMARK    4  A    between atoms: C2_5  and  C18_44 
REMARK    5  A    between atoms: C3_6  and  C4_8 
REMARK    6  A    between atoms: C4_8  and  C5_9 
REMARK    7  A    between atoms: C5_9  and  C6_10 
REMARK    8  A    between atoms: C7_13  and  N3_14 
REMARK    9  A    between atoms: C8_18  and  C9_19 
REMARK   10  A    between atoms: C9_19  and  C10_20 
REMARK   11  A    between atoms: N6_30  and  C15_31 
REMARK   12  A    between atoms: C15_31  and  C16_32 
REMARK   13  A    between atoms: C16_32  and  N7_33 
REMARK   14  A    between atoms: C16_32  and  N8_37 
REMARK   15  A    between atoms: C21_47  and  N10_48 
REMARK   16  A    between atoms: N10_48  and  O5_50 
REMARK   17  A    between atoms: C22_54  and  C23_55 
REMARK   18  A    between atoms: C23_55  and  S2_56 
REMARK   19  A    between atoms: S2_56  and  N12_57 
ROOT
HETATM    1  C6  UNL     1       1.669 -22.779  15.273  1.00  0.00     0.047 A 
HETATM    2  N2  UNL     1       1.311 -23.745  14.487  1.00  0.00    -0.336 N 
ATOM      3  H2  UNL     1       0.351 -24.087  14.515  1.00  0.00     0.168 HD
HETATM    4  C7  UNL     1       2.188 -24.299  13.639  1.00  0.00     0.143 A 
HETATM    5  S1  UNL     1       3.608 -23.435  13.946  1.00  0.00    -0.056 SA
HETATM    6  C8  UNL     1       3.024 -22.393  15.150  1.00  0.00     0.020 A 
ENDROOT
BRANCH   1   7
HETATM    7  C5  UNL     1       0.825 -22.000  16.171  1.00  0.00     0.034 C 
BRANCH   7   8
HETATM    8  C4  UNL     1       0.045 -22.226  17.164  1.00  0.00     0.059 C 
BRANCH   8   9
HETATM    9  C3  UNL     1      -0.740 -23.351  17.507  1.00  0.00     0.202 C 
HETATM   10  O2  UNL     1      -0.298 -24.479  17.783  1.00  0.00    -0.286 OA
BRANCH   9  11
HETATM   11  C2  UNL     1      -2.222 -23.258  17.563  1.00  0.00     0.131 C 
BRANCH  11  12
HETATM   12  N1  UNL     1      -2.949 -23.588  16.634  1.00  0.00    -0.261 N 
ATOM     13  H1  UNL     1      -3.544 -24.343  16.976  1.00  0.00     0.194 HD
BRANCH  12  14
HETATM   14  O1  UNL     1      -3.275 -23.379  15.407  1.00  0.00    -0.285 OA
HETATM   15  C1  UNL     1      -2.842 -22.227  14.667  1.00  0.00     0.237 C 
ENDBRANCH  12  14
ENDBRANCH  11  12
BRANCH  11  16
HETATM   16  C18 UNL     1      -2.851 -22.738  18.816  1.00  0.00     0.066 C 
HETATM   17  C19 UNL     1      -3.685 -21.648  18.639  1.00  0.00     0.036 C 
HETATM   18  C20 UNL     1      -4.621 -21.140  19.530  1.00  0.00     0.052 C 
HETATM   19  C21 UNL     1      -5.020 -21.699  20.704  1.00  0.00     0.126 C 
HETATM   20  N11 UNL     1      -4.351 -22.633  21.441  1.00  0.00    -0.330 N 
HETATM   21  C22 UNL     1      -3.338 -23.439  21.099  1.00  0.00     0.099 C 
ATOM     22  H11 UNL     1      -4.674 -22.734  22.404  1.00  0.00     0.168 HD
HETATM   23  N13 UNL     1      -2.576 -23.346  19.969  1.00  0.00    -0.343 N 
ATOM     24  H13 UNL     1      -1.668 -23.808  20.014  1.00  0.00     0.167 HD
BRANCH  19  25
HETATM   25  N10 UNL     1      -6.149 -21.334  21.215  1.00  0.00    -0.253 N 
ATOM     26  H10 UNL     1      -6.939 -21.160  20.593  1.00  0.00     0.196 HD
BRANCH  25  27
HETATM   27  O5  UNL     1      -6.319 -21.174  22.555  1.00  0.00    -0.288 OA
ATOM     28  H5  UNL     1      -7.093 -21.487  23.007  1.00  0.00     0.244 HD
ENDBRANCH  25  27
ENDBRANCH  19  25
BRANCH  21  29
HETATM   29  C23 UNL     1      -3.003 -24.538  22.022  1.00  0.00     0.239 C 
BRANCH  29  30
HETATM   30  S2  UNL     1      -1.753 -25.539  21.263  1.00  0.00     0.231 S 
HETATM   31  O6  UNL     1      -0.520 -24.761  20.941  1.00  0.00    -0.206 OA
HETATM   32  O7  UNL     1      -2.339 -26.138  20.013  1.00  0.00    -0.206 OA
BRANCH  30  33
HETATM   33  N12 UNL     1      -1.377 -26.867  22.322  1.00  0.00    -0.328 N 
ATOM     34 2H12 UNL     1      -1.074 -26.770  23.291  1.00  0.00     0.168 HD
ATOM     35 1H12 UNL     1      -1.511 -27.741  21.813  1.00  0.00     0.168 HD
ENDBRANCH  30  33
ENDBRANCH  29  30
ENDBRANCH  21  29
ENDBRANCH  11  16
ENDBRANCH   9  11
ENDBRANCH   8   9
ENDBRANCH   7   8
ENDBRANCH   1   7
BRANCH   6  36
HETATM   36  C9  UNL     1       3.737 -21.311  15.912  1.00  0.00     0.125 C 
BRANCH  36  37
HETATM   37  C10 UNL     1       4.098 -20.217  15.010  1.00  0.00     0.088 A 
HETATM   38  N4  UNL     1       3.660 -20.112  13.734  1.00  0.00    -0.338 N 
HETATM   39  C11 UNL     1       4.166 -18.999  13.172  1.00  0.00     0.147 A 
ATOM     40  H4  UNL     1       3.040 -20.775  13.270  1.00  0.00     0.167 HD
HETATM   41  C12 UNL     1       4.074 -18.383  11.944  1.00  0.00     0.281 A 
HETATM   42  C17 UNL     1       4.962 -18.365  14.132  1.00  0.00     0.145 A 
HETATM   43  O3  UNL     1       3.371 -18.920  11.063  1.00  0.00    -0.265 OA
HETATM   44  N5  UNL     1       4.705 -17.233  11.650  1.00  0.00    -0.269 N 
HETATM   45  C13 UNL     1       4.591 -16.602  10.339  1.00  0.00     0.164 C 
HETATM   46  C14 UNL     1       5.457 -16.674  12.619  1.00  0.00     0.333 A 
HETATM   47  O4  UNL     1       6.038 -15.583  12.295  1.00  0.00    -0.246 OA
HETATM   48  N6  UNL     1       5.593 -17.217  13.840  1.00  0.00    -0.279 N 
HETATM   49  N9  UNL     1       4.875 -19.161  15.224  1.00  0.00    -0.330 N 
ATOM     50  H9  UNL     1       5.350 -18.972  16.107  1.00  0.00     0.168 HD
BRANCH  48  51
HETATM   51  C15 UNL     1       6.406 -16.554  14.817  1.00  0.00     0.197 C 
BRANCH  51  52
HETATM   52  C16 UNL     1       7.858 -16.907  14.786  1.00  0.00     0.396 C 
BRANCH  52  53
HETATM   53  N7  UNL     1       8.399 -17.086  16.091  1.00  0.00    -0.049 N 
ATOM     54  H73 UNL     1       9.407 -16.925  16.097  1.00  0.00     0.276 HD
ATOM     55  H72 UNL     1       8.111 -16.333  16.716  1.00  0.00     0.276 HD
ATOM     56  H71 UNL     1       8.169 -17.999  16.484  1.00  0.00     0.276 HD
ENDBRANCH  52  53
BRANCH  52  57
HETATM   57  N8  UNL     1       8.528 -15.838  14.035  1.00  0.00    -0.049 N 
ATOM     58  H83 UNL     1       8.014 -14.957  14.040  1.00  0.00     0.276 HD
ATOM     59  H82 UNL     1       9.374 -15.494  14.490  1.00  0.00     0.276 HD
ATOM     60  H81 UNL     1       8.693 -16.205  13.098  1.00  0.00     0.276 HD
ENDBRANCH  52  57
ENDBRANCH  51  52
ENDBRANCH  48  51
ENDBRANCH  36  37
ENDBRANCH   6  36
BRANCH   4  61
HETATM   61  N3  UNL     1       1.964 -25.282  12.784  1.00  0.00    -0.380 N 
ATOM     62  H32 UNL     1       1.769 -26.268  12.960  1.00  0.00     0.158 HD
ATOM     63  H31 UNL     1       1.944 -25.224  11.766  1.00  0.00     0.158 HD
ENDBRANCH   4  61
TORSDOF 19
ENDMDL
