MODEL 1
REMARK VINA RESULT: -11.024929539      0.000      0.000
REMARK  16 active torsions:
REMARK  status: ('A' for Active; 'I' for Inactive)
REMARK    1  A    between atoms: C2_7  and  C3_8 
REMARK    2  A    between atoms: C8_15  and  C9_16 
REMARK    3  A    between atoms: C9_16  and  N4_17 
REMARK    4  A    between atoms: C10_21  and  N7_22 
REMARK    5  A    between atoms: N8_25  and  S1_26 
REMARK    6  A    between atoms: S1_26  and  C13_29 
REMARK    7  A    between atoms: C13_29  and  O3_30 
REMARK    8  A    between atoms: C13_29  and  C14_32 
REMARK    9  A    between atoms: C14_32  and  O4_33 
REMARK   10  A    between atoms: C16_36  and  N9_37 
REMARK   11  A    between atoms: N11_44  and  C18_45 
REMARK   12  A    between atoms: C18_45  and  C19_46 
REMARK   13  A    between atoms: C19_46  and  O5_47 
REMARK   14  A    between atoms: C19_46  and  C20_49 
REMARK   15  A    between atoms: C20_49  and  N12_50 
REMARK   16  A    between atoms: C23_55  and  N14_56 
ROOT
HETATM    1  N1  UNL     1       2.701 -25.586  12.035  1.00  0.00    -0.234 N 
ATOM      2  H11 UNL     1       3.719 -25.624  12.000  1.00  0.00     0.174 HD
ATOM      3  H12 UNL     1       2.155 -26.143  11.378  1.00  0.00     0.174 HD
HETATM    4  C1  UNL     1       2.120 -24.819  12.927  1.00  0.00     0.676 A 
HETATM    5  N2  UNL     1       0.802 -24.769  12.972  1.00  0.00    -0.193 N 
ATOM      6  H2  UNL     1       0.278 -25.336  12.306  1.00  0.00     0.184 HD
HETATM    7  C2  UNL     1       0.096 -24.002  13.860  1.00  0.00     0.060 A 
HETATM    8  C6  UNL     1       0.796 -23.253  14.743  1.00  0.00     0.086 A 
HETATM    9  C7  UNL     1       2.185 -23.331  14.667  1.00  0.00     0.087 A 
HETATM   10  N3  UNL     1       2.830 -24.093  13.782  1.00  0.00    -0.189 N 
ATOM     11  H3  UNL     1       3.850 -24.118  13.764  1.00  0.00     0.184 HD
HETATM   12  C8  UNL     1       2.673 -22.500  15.645  1.00  0.00     0.008 A 
HETATM   13  C17 UNL     1       1.575 -21.963  16.263  1.00  0.00     0.102 A 
HETATM   14  N11 UNL     1       0.414 -22.422  15.714  1.00  0.00    -0.350 N 
ENDROOT
BRANCH  12  15
HETATM   15  C9  UNL     1       4.113 -22.215  16.008  1.00  0.00     0.210 C 
BRANCH  15  16
HETATM   16  N4  UNL     1       4.374 -20.808  16.121  1.00  0.00    -0.199 N 
HETATM   17  N5  UNL     1       4.290 -20.107  17.243  1.00  0.00     0.011 NA
HETATM   18  N6  UNL     1       4.591 -18.841  17.008  1.00  0.00    -0.113 N 
HETATM   19  C10 UNL     1       4.878 -18.717  15.697  1.00  0.00     0.711 A 
ATOM     20  H6  UNL     1       4.604 -18.090  17.698  1.00  0.00     0.203 HD
HETATM   21  N10 UNL     1       4.731 -19.948  15.199  1.00  0.00    -0.116 N 
ATOM     22  H10 UNL     1       4.880 -20.189  14.219  1.00  0.00     0.207 HD
BRANCH  19  23
HETATM   23  N7  UNL     1       5.257 -17.549  14.980  1.00  0.00    -0.176 N 
HETATM   24  C11 UNL     1       6.653 -17.304  14.776  1.00  0.00     0.189 C 
HETATM   25  C12 UNL     1       6.962 -16.593  13.490  1.00  0.00     0.101 C 
HETATM   26  N8  UNL     1       5.891 -15.925  12.894  1.00  0.00    -0.262 N 
HETATM   27  C15 UNL     1       4.749 -15.619  13.645  1.00  0.00     0.135 C 
HETATM   28  C16 UNL     1       4.190 -16.689  14.512  1.00  0.00     0.340 C 
BRANCH  26  29
HETATM   29  S1  UNL     1       5.909 -15.626  11.248  1.00  0.00     0.265 S 
HETATM   30  O1  UNL     1       5.341 -14.282  10.867  1.00  0.00    -0.202 OA
HETATM   31  O2  UNL     1       7.361 -15.586  10.786  1.00  0.00    -0.202 OA
BRANCH  29  32
HETATM   32  C13 UNL     1       5.104 -16.836  10.261  1.00  0.00     0.284 C 
BRANCH  32  33
HETATM   33  O3  UNL     1       3.768 -16.922  10.719  1.00  0.00    -0.377 OA
ATOM     34  H3  UNL     1       3.396 -17.713  10.345  1.00  0.00     0.211 HD
ENDBRANCH  32  33
BRANCH  32  35
HETATM   35  C14 UNL     1       5.689 -18.230  10.490  1.00  0.00     0.213 C 
BRANCH  35  36
HETATM   36  O4  UNL     1       7.007 -18.297  10.110  1.00  0.00    -0.397 OA
ATOM     37  H4  UNL     1       7.188 -19.083   9.608  1.00  0.00     0.209 HD
ENDBRANCH  35  36
ENDBRANCH  32  35
ENDBRANCH  29  32
ENDBRANCH  26  29
BRANCH  28  38
HETATM   38  N9  UNL     1       3.118 -17.434  13.898  1.00  0.00    -0.053 N 
ATOM     39  H93 UNL     1       3.193 -18.429  14.109  1.00  0.00     0.277 HD
ATOM     40  H92 UNL     1       2.226 -17.239  14.352  1.00  0.00     0.277 HD
ATOM     41  H91 UNL     1       3.063 -17.273  12.892  1.00  0.00     0.277 HD
ENDBRANCH  28  38
ENDBRANCH  19  23
ENDBRANCH  15  16
ENDBRANCH  12  15
BRANCH  14  42
HETATM   42  C18 UNL     1      -0.863 -22.025  16.196  1.00  0.00     0.162 C 
BRANCH  42  43
HETATM   43  C19 UNL     1      -1.096 -22.566  17.615  1.00  0.00     0.154 C 
BRANCH  43  44
HETATM   44  O5  UNL     1      -1.679 -21.481  18.339  1.00  0.00    -0.392 OA
ATOM     45  H5  UNL     1      -0.974 -20.857  18.465  1.00  0.00     0.210 HD
ENDBRANCH  43  44
BRANCH  43  46
HETATM   46  C20 UNL     1      -2.109 -23.654  17.675  1.00  0.00     0.164 C 
BRANCH  46  47
HETATM   47  N12 UNL     1      -1.900 -24.563  18.756  1.00  0.00    -0.325 N 
HETATM   48  C21 UNL     1      -1.264 -25.730  18.730  1.00  0.00     0.185 A 
HETATM   49  N13 UNL     1      -1.314 -26.261  19.963  1.00  0.00    -0.346 N 
HETATM   50  C22 UNL     1      -1.985 -25.429  20.774  1.00  0.00     0.122 A 
ATOM     51  H13 UNL     1      -0.907 -27.154  20.239  1.00  0.00     0.167 HD
HETATM   52  C23 UNL     1      -2.331 -25.463  22.106  1.00  0.00     0.131 A 
HETATM   53  C25 UNL     1      -2.359 -24.350  20.013  1.00  0.00     0.140 A 
HETATM   54  N15 UNL     1      -3.037 -24.424  22.637  1.00  0.00    -0.337 N 
HETATM   55  C24 UNL     1      -3.394 -23.375  21.874  1.00  0.00     0.183 A 
ATOM     56  H15 UNL     1      -3.298 -24.442  23.624  1.00  0.00     0.168 HD
HETATM   57  N16 UNL     1      -3.066 -23.324  20.571  1.00  0.00    -0.336 N 
ATOM     58  H16 UNL     1      -3.344 -22.524  20.003  1.00  0.00     0.168 HD
BRANCH  52  59
HETATM   59  N14 UNL     1      -1.979 -26.469  22.806  1.00  0.00    -0.383 N 
ATOM     60 2H14 UNL     1      -1.564 -27.301  22.385  1.00  0.00     0.157 HD
ATOM     61 1H14 UNL     1      -2.120 -26.437  23.816  1.00  0.00     0.157 HD
ENDBRANCH  52  59
ENDBRANCH  46  47
ENDBRANCH  43  46
ENDBRANCH  42  43
ENDBRANCH  14  42
BRANCH   7  62
HETATM   62  C3  UNL     1      -1.366 -24.005  13.817  1.00  0.00     0.038 A 
HETATM   63  C4  UNL     1      -1.985 -23.342  12.528  1.00  0.00     0.011 A 
HETATM   64  C5  UNL     1      -1.995 -24.791  12.656  1.00  0.00     0.011 A 
ENDBRANCH   7  62
TORSDOF 16
ENDMDL
MODEL 2
REMARK VINA RESULT: -10.539898577      0.712      1.374
REMARK  16 active torsions:
REMARK  status: ('A' for Active; 'I' for Inactive)
REMARK    1  A    between atoms: C2_7  and  C3_8 
REMARK    2  A    between atoms: C8_15  and  C9_16 
REMARK    3  A    between atoms: C9_16  and  N4_17 
REMARK    4  A    between atoms: C10_21  and  N7_22 
REMARK    5  A    between atoms: N8_25  and  S1_26 
REMARK    6  A    between atoms: S1_26  and  C13_29 
REMARK    7  A    between atoms: C13_29  and  O3_30 
REMARK    8  A    between atoms: C13_29  and  C14_32 
REMARK    9  A    between atoms: C14_32  and  O4_33 
REMARK   10  A    between atoms: C16_36  and  N9_37 
REMARK   11  A    between atoms: N11_44  and  C18_45 
REMARK   12  A    between atoms: C18_45  and  C19_46 
REMARK   13  A    between atoms: C19_46  and  O5_47 
REMARK   14  A    between atoms: C19_46  and  C20_49 
REMARK   15  A    between atoms: C20_49  and  N12_50 
REMARK   16  A    between atoms: C23_55  and  N14_56 
ROOT
HETATM    1  N1  UNL     1       2.804 -25.163  12.252  1.00  0.00    -0.234 N 
ATOM      2  H11 UNL     1       3.820 -25.076  12.255  1.00  0.00     0.174 HD
ATOM      3  H12 UNL     1       2.355 -25.770  11.566  1.00  0.00     0.174 HD
HETATM    4  C1  UNL     1       2.102 -24.490  13.131  1.00  0.00     0.676 A 
HETATM    5  N2  UNL     1       0.786 -24.603  13.126  1.00  0.00    -0.193 N 
ATOM      6  H2  UNL     1       0.360 -25.216  12.431  1.00  0.00     0.184 HD
HETATM    7  C2  UNL     1      -0.041 -23.945  13.997  1.00  0.00     0.060 A 
HETATM    8  C6  UNL     1       0.529 -23.133  14.917  1.00  0.00     0.086 A 
HETATM    9  C7  UNL     1       1.920 -23.040  14.894  1.00  0.00     0.087 A 
HETATM   10  N3  UNL     1       2.685 -23.700  14.024  1.00  0.00    -0.189 N 
ATOM     11  H3  UNL     1       3.700 -23.600  14.044  1.00  0.00     0.184 HD
HETATM   12  C8  UNL     1       2.265 -22.175  15.902  1.00  0.00     0.008 A 
HETATM   13  C17 UNL     1       1.088 -21.787  16.485  1.00  0.00     0.102 A 
HETATM   14  N11 UNL     1       0.013 -22.374  15.885  1.00  0.00    -0.350 N 
ENDROOT
BRANCH  12  15
HETATM   15  C9  UNL     1       3.645 -21.723  16.324  1.00  0.00     0.210 C 
BRANCH  15  16
HETATM   16  N4  UNL     1       3.788 -20.295  16.270  1.00  0.00    -0.199 N 
HETATM   17  N5  UNL     1       3.323 -19.449  17.178  1.00  0.00     0.011 NA
HETATM   18  N6  UNL     1       3.619 -18.208  16.832  1.00  0.00    -0.113 N 
HETATM   19  C10 UNL     1       4.295 -18.249  15.667  1.00  0.00     0.711 A 
ATOM     20  H6  UNL     1       3.378 -17.366  17.356  1.00  0.00     0.203 HD
HETATM   21  N10 UNL     1       4.372 -19.548  15.365  1.00  0.00    -0.116 N 
ATOM     22  H10 UNL     1       4.830 -19.915  14.531  1.00  0.00     0.207 HD
BRANCH  19  23
HETATM   23  N7  UNL     1       4.820 -17.167  14.908  1.00  0.00    -0.176 N 
HETATM   24  C11 UNL     1       6.238 -16.968  14.907  1.00  0.00     0.189 C 
HETATM   25  C12 UNL     1       6.768 -16.397  13.624  1.00  0.00     0.101 C 
HETATM   26  N8  UNL     1       5.828 -15.776  12.801  1.00  0.00    -0.262 N 
HETATM   27  C15 UNL     1       4.592 -15.376  13.326  1.00  0.00     0.135 C 
HETATM   28  C16 UNL     1       3.868 -16.342  14.193  1.00  0.00     0.340 C 
BRANCH  26  29
HETATM   29  S1  UNL     1       6.115 -15.647  11.158  1.00  0.00     0.265 S 
HETATM   30  O1  UNL     1       5.683 -14.328  10.566  1.00  0.00    -0.202 OA
HETATM   31  O2  UNL     1       7.621 -15.707  10.931  1.00  0.00    -0.202 OA
BRANCH  29  32
HETATM   32  C13 UNL     1       5.410 -16.921  10.175  1.00  0.00     0.284 C 
BRANCH  32  33
HETATM   33  O3  UNL     1       4.020 -16.929  10.443  1.00  0.00    -0.377 OA
ATOM     34  H3  UNL     1       3.604 -16.406   9.768  1.00  0.00     0.211 HD
ENDBRANCH  32  33
BRANCH  32  35
HETATM   35  C14 UNL     1       5.902 -18.303  10.607  1.00  0.00     0.213 C 
BRANCH  35  36
HETATM   36  O4  UNL     1       7.251 -18.450  10.396  1.00  0.00    -0.397 OA
ATOM     37  H4  UNL     1       7.743 -17.716  10.744  1.00  0.00     0.209 HD
ENDBRANCH  35  36
ENDBRANCH  32  35
ENDBRANCH  29  32
ENDBRANCH  26  29
BRANCH  28  38
HETATM   38  N9  UNL     1       2.883 -17.128  13.491  1.00  0.00    -0.053 N 
ATOM     39  H93 UNL     1       1.950 -16.727  13.594  1.00  0.00     0.277 HD
ATOM     40  H92 UNL     1       2.989 -17.036  12.482  1.00  0.00     0.277 HD
ATOM     41  H91 UNL     1       2.897 -18.107  13.777  1.00  0.00     0.277 HD
ENDBRANCH  28  38
ENDBRANCH  19  23
ENDBRANCH  15  16
ENDBRANCH  12  15
BRANCH  14  42
HETATM   42  C18 UNL     1      -1.320 -22.145  16.323  1.00  0.00     0.162 C 
BRANCH  42  43
HETATM   43  C19 UNL     1      -1.463 -22.483  17.814  1.00  0.00     0.154 C 
BRANCH  43  44
HETATM   44  O5  UNL     1      -1.993 -21.300  18.417  1.00  0.00    -0.392 OA
ATOM     45  H5  UNL     1      -2.187 -21.543  19.314  1.00  0.00     0.210 HD
ENDBRANCH  43  44
BRANCH  43  46
HETATM   46  C20 UNL     1      -2.475 -23.538  18.088  1.00  0.00     0.164 C 
BRANCH  46  47
HETATM   47  N12 UNL     1      -2.465 -23.995  19.441  1.00  0.00    -0.325 N 
HETATM   48  C21 UNL     1      -2.919 -23.365  20.519  1.00  0.00     0.185 A 
HETATM   49  N13 UNL     1      -2.700 -24.150  21.586  1.00  0.00    -0.346 N 
HETATM   50  C22 UNL     1      -2.105 -25.283  21.184  1.00  0.00     0.122 A 
ATOM     51  H13 UNL     1      -2.947 -23.922  22.549  1.00  0.00     0.167 HD
HETATM   52  C23 UNL     1      -1.661 -26.413  21.833  1.00  0.00     0.131 A 
HETATM   53  C25 UNL     1      -1.953 -25.190  19.824  1.00  0.00     0.140 A 
HETATM   54  N15 UNL     1      -1.082 -27.414  21.108  1.00  0.00    -0.337 N 
HETATM   55  C24 UNL     1      -0.943 -27.302  19.775  1.00  0.00     0.183 A 
ATOM     56  H15 UNL     1      -0.750 -28.254  21.582  1.00  0.00     0.168 HD
HETATM   57  N16 UNL     1      -1.370 -26.207  19.124  1.00  0.00    -0.336 N 
ATOM     58  H16 UNL     1      -1.257 -26.135  18.112  1.00  0.00     0.168 HD
BRANCH  52  59
HETATM   59  N14 UNL     1      -1.805 -26.491  23.097  1.00  0.00    -0.383 N 
ATOM     60 2H14 UNL     1      -1.905 -25.661  23.682  1.00  0.00     0.157 HD
ATOM     61 1H14 UNL     1      -1.821 -27.413  23.534  1.00  0.00     0.157 HD
ENDBRANCH  52  59
ENDBRANCH  46  47
ENDBRANCH  43  46
ENDBRANCH  42  43
ENDBRANCH  14  42
BRANCH   7  62
HETATM   62  C3  UNL     1      -1.488 -24.126  13.897  1.00  0.00     0.038 A 
HETATM   63  C4  UNL     1      -2.183 -23.254  12.782  1.00  0.00     0.011 A 
HETATM   64  C5  UNL     1      -1.999 -24.680  12.558  1.00  0.00     0.011 A 
ENDBRANCH   7  62
TORSDOF 16
ENDMDL
MODEL 3
REMARK VINA RESULT: -10.432397206      2.455      3.249
REMARK  16 active torsions:
REMARK  status: ('A' for Active; 'I' for Inactive)
REMARK    1  A    between atoms: C2_7  and  C3_8 
REMARK    2  A    between atoms: C8_15  and  C9_16 
REMARK    3  A    between atoms: C9_16  and  N4_17 
REMARK    4  A    between atoms: C10_21  and  N7_22 
REMARK    5  A    between atoms: N8_25  and  S1_26 
REMARK    6  A    between atoms: S1_26  and  C13_29 
REMARK    7  A    between atoms: C13_29  and  O3_30 
REMARK    8  A    between atoms: C13_29  and  C14_32 
REMARK    9  A    between atoms: C14_32  and  O4_33 
REMARK   10  A    between atoms: C16_36  and  N9_37 
REMARK   11  A    between atoms: N11_44  and  C18_45 
REMARK   12  A    between atoms: C18_45  and  C19_46 
REMARK   13  A    between atoms: C19_46  and  O5_47 
REMARK   14  A    between atoms: C19_46  and  C20_49 
REMARK   15  A    between atoms: C20_49  and  N12_50 
REMARK   16  A    between atoms: C23_55  and  N14_56 
ROOT
HETATM    1  N1  UNL     1       2.720 -25.556  12.113  1.00  0.00    -0.234 N 
ATOM      2  H11 UNL     1       3.734 -25.477  12.041  1.00  0.00     0.174 HD
ATOM      3  H12 UNL     1       2.224 -26.211  11.509  1.00  0.00     0.174 HD
HETATM    4  C1  UNL     1       2.081 -24.811  12.983  1.00  0.00     0.676 A 
HETATM    5  N2  UNL     1       0.768 -24.912  13.076  1.00  0.00    -0.193 N 
ATOM      6  H2  UNL     1       0.294 -25.575  12.462  1.00  0.00     0.184 HD
HETATM    7  C2  UNL     1       0.005 -24.182  13.947  1.00  0.00     0.060 A 
HETATM    8  C6  UNL     1       0.638 -23.306  14.760  1.00  0.00     0.086 A 
HETATM    9  C7  UNL     1       2.024 -23.226  14.635  1.00  0.00     0.087 A 
HETATM   10  N3  UNL     1       2.727 -23.958  13.769  1.00  0.00    -0.189 N 
ATOM     11  H3  UNL     1       3.741 -23.866  13.713  1.00  0.00     0.184 HD
HETATM   12  C8  UNL     1       2.440 -22.287  15.546  1.00  0.00     0.008 A 
HETATM   13  C17 UNL     1       1.307 -21.846  16.175  1.00  0.00     0.102 A 
HETATM   14  N11 UNL     1       0.192 -22.469  15.697  1.00  0.00    -0.350 N 
ENDROOT
BRANCH  12  15
HETATM   15  C9  UNL     1       3.847 -21.816  15.837  1.00  0.00     0.210 C 
BRANCH  15  16
HETATM   16  N4  UNL     1       4.124 -20.538  15.243  1.00  0.00    -0.199 N 
HETATM   17  N5  UNL     1       5.255 -19.862  15.387  1.00  0.00     0.011 NA
HETATM   18  N6  UNL     1       5.190 -18.725  14.716  1.00  0.00    -0.113 N 
HETATM   19  C10 UNL     1       3.983 -18.661  14.120  1.00  0.00     0.711 A 
ATOM     20  H6  UNL     1       5.925 -18.019  14.659  1.00  0.00     0.203 HD
HETATM   21  N10 UNL     1       3.369 -19.794  14.473  1.00  0.00    -0.116 N 
ATOM     22  H10 UNL     1       2.426 -20.049  14.178  1.00  0.00     0.207 HD
BRANCH  19  23
HETATM   23  N7  UNL     1       3.457 -17.631  13.294  1.00  0.00    -0.176 N 
HETATM   24  C11 UNL     1       3.274 -17.908  11.901  1.00  0.00     0.189 C 
HETATM   25  C12 UNL     1       2.115 -17.180  11.284  1.00  0.00     0.101 C 
HETATM   26  N8  UNL     1       1.648 -16.072  11.993  1.00  0.00    -0.262 N 
HETATM   27  C15 UNL     1       2.454 -15.473  12.969  1.00  0.00     0.135 C 
HETATM   28  C16 UNL     1       3.147 -16.368  13.932  1.00  0.00     0.340 C 
BRANCH  26  29
HETATM   29  S1  UNL     1       0.071 -15.554  11.784  1.00  0.00     0.265 S 
HETATM   30  O1  UNL     1      -0.062 -14.062  11.608  1.00  0.00    -0.202 OA
HETATM   31  O2  UNL     1      -0.460 -16.153  10.487  1.00  0.00    -0.202 OA
BRANCH  29  32
HETATM   32  C13 UNL     1      -1.046 -16.035  13.052  1.00  0.00     0.284 C 
BRANCH  32  33
HETATM   33  O3  UNL     1      -0.471 -17.147  13.710  1.00  0.00    -0.377 OA
ATOM     34  H3  UNL     1      -1.040 -17.891  13.548  1.00  0.00     0.211 HD
ENDBRANCH  32  33
BRANCH  32  35
HETATM   35  C14 UNL     1      -2.363 -16.557  12.474  1.00  0.00     0.213 C 
BRANCH  35  36
HETATM   36  O4  UNL     1      -3.445 -15.896  13.001  1.00  0.00    -0.397 OA
ATOM     37  H4  UNL     1      -4.249 -16.119  12.545  1.00  0.00     0.209 HD
ENDBRANCH  35  36
ENDBRANCH  32  35
ENDBRANCH  29  32
ENDBRANCH  26  29
BRANCH  28  38
HETATM   38  N9  UNL     1       2.437 -16.545  15.176  1.00  0.00    -0.053 N 
ATOM     39  H93 UNL     1       1.735 -15.816  15.307  1.00  0.00     0.277 HD
ATOM     40  H92 UNL     1       1.822 -17.357  15.137  1.00  0.00     0.277 HD
ATOM     41  H91 UNL     1       3.068 -16.597  15.976  1.00  0.00     0.277 HD
ENDBRANCH  28  38
ENDBRANCH  19  23
ENDBRANCH  15  16
ENDBRANCH  12  15
BRANCH  14  42
HETATM   42  C18 UNL     1      -1.107 -22.195  16.206  1.00  0.00     0.162 C 
BRANCH  42  43
HETATM   43  C19 UNL     1      -1.251 -22.734  17.637  1.00  0.00     0.154 C 
BRANCH  43  44
HETATM   44  O5  UNL     1      -1.804 -21.652  18.390  1.00  0.00    -0.392 OA
ATOM     45  H5  UNL     1      -1.503 -21.789  19.281  1.00  0.00     0.210 HD
ENDBRANCH  43  44
BRANCH  43  46
HETATM   46  C20 UNL     1      -2.246 -23.833  17.760  1.00  0.00     0.164 C 
BRANCH  46  47
HETATM   47  N12 UNL     1      -1.977 -24.722  18.843  1.00  0.00    -0.325 N 
HETATM   48  C21 UNL     1      -1.313 -25.874  18.809  1.00  0.00     0.185 A 
HETATM   49  N13 UNL     1      -1.307 -26.389  20.049  1.00  0.00    -0.346 N 
HETATM   50  C22 UNL     1      -1.968 -25.563  20.873  1.00  0.00     0.122 A 
ATOM     51  H13 UNL     1      -0.868 -27.269  20.322  1.00  0.00     0.167 HD
HETATM   52  C23 UNL     1      -2.266 -25.588  22.217  1.00  0.00     0.131 A 
HETATM   53  C25 UNL     1      -2.395 -24.504  20.113  1.00  0.00     0.140 A 
HETATM   54  N15 UNL     1      -2.978 -24.559  22.761  1.00  0.00    -0.337 N 
HETATM   55  C24 UNL     1      -3.388 -23.530  21.998  1.00  0.00     0.183 A 
ATOM     56  H15 UNL     1      -3.203 -24.571  23.756  1.00  0.00     0.168 HD
HETATM   57  N16 UNL     1      -3.107 -23.488  20.684  1.00  0.00    -0.336 N 
ATOM     58  H16 UNL     1      -3.425 -22.702  20.116  1.00  0.00     0.168 HD
BRANCH  52  59
HETATM   59  N14 UNL     1      -1.865 -26.576  22.916  1.00  0.00    -0.383 N 
ATOM     60 2H14 UNL     1      -2.500 -27.313  23.223  1.00  0.00     0.157 HD
ATOM     61 1H14 UNL     1      -0.879 -26.627  23.175  1.00  0.00     0.157 HD
ENDBRANCH  52  59
ENDBRANCH  46  47
ENDBRANCH  43  46
ENDBRANCH  42  43
ENDBRANCH  14  42
BRANCH   7  62
HETATM   62  C3  UNL     1      -1.447 -24.358  13.960  1.00  0.00     0.038 A 
HETATM   63  C4  UNL     1      -2.217 -23.543  12.851  1.00  0.00     0.011 A 
HETATM   64  C5  UNL     1      -2.053 -24.980  12.692  1.00  0.00     0.011 A 
ENDBRANCH   7  62
TORSDOF 16
ENDMDL
MODEL 4
REMARK VINA RESULT: -10.301840919      1.057      1.369
REMARK  16 active torsions:
REMARK  status: ('A' for Active; 'I' for Inactive)
REMARK    1  A    between atoms: C2_7  and  C3_8 
REMARK    2  A    between atoms: C8_15  and  C9_16 
REMARK    3  A    between atoms: C9_16  and  N4_17 
REMARK    4  A    between atoms: C10_21  and  N7_22 
REMARK    5  A    between atoms: N8_25  and  S1_26 
REMARK    6  A    between atoms: S1_26  and  C13_29 
REMARK    7  A    between atoms: C13_29  and  O3_30 
REMARK    8  A    between atoms: C13_29  and  C14_32 
REMARK    9  A    between atoms: C14_32  and  O4_33 
REMARK   10  A    between atoms: C16_36  and  N9_37 
REMARK   11  A    between atoms: N11_44  and  C18_45 
REMARK   12  A    between atoms: C18_45  and  C19_46 
REMARK   13  A    between atoms: C19_46  and  O5_47 
REMARK   14  A    between atoms: C19_46  and  C20_49 
REMARK   15  A    between atoms: C20_49  and  N12_50 
REMARK   16  A    between atoms: C23_55  and  N14_56 
ROOT
HETATM    1  N1  UNL     1       2.502 -25.597  12.164  1.00  0.00    -0.234 N 
ATOM      2  H11 UNL     1       3.520 -25.640  12.172  1.00  0.00     0.174 HD
ATOM      3  H12 UNL     1       1.983 -26.126  11.464  1.00  0.00     0.174 HD
HETATM    4  C1  UNL     1       1.887 -24.860  13.058  1.00  0.00     0.676 A 
HETATM    5  N2  UNL     1       0.568 -24.804  13.049  1.00  0.00    -0.193 N 
ATOM      6  H2  UNL     1       0.070 -25.342  12.339  1.00  0.00     0.184 HD
HETATM    7  C2  UNL     1      -0.172 -24.067  13.934  1.00  0.00     0.060 A 
HETATM    8  C6  UNL     1       0.492 -23.356  14.874  1.00  0.00     0.086 A 
HETATM    9  C7  UNL     1       1.883 -23.440  14.854  1.00  0.00     0.087 A 
HETATM   10  N3  UNL     1       2.562 -24.172  13.970  1.00  0.00    -0.189 N 
ATOM     11  H3  UNL     1       3.582 -24.203  13.995  1.00  0.00     0.184 HD
HETATM   12  C8  UNL     1       2.332 -22.649  15.883  1.00  0.00     0.008 A 
HETATM   13  C17 UNL     1       1.211 -22.129  16.473  1.00  0.00     0.102 A 
HETATM   14  N11 UNL     1       0.073 -22.559  15.858  1.00  0.00    -0.350 N 
ENDROOT
BRANCH  12  15
HETATM   15  C9  UNL     1       3.756 -22.387  16.318  1.00  0.00     0.210 C 
BRANCH  15  16
HETATM   16  N4  UNL     1       4.224 -21.099  15.891  1.00  0.00    -0.199 N 
HETATM   17  N5  UNL     1       5.243 -20.443  16.430  1.00  0.00     0.011 NA
HETATM   18  N6  UNL     1       5.415 -19.288  15.811  1.00  0.00    -0.113 N 
HETATM   19  C10 UNL     1       4.482 -19.190  14.843  1.00  0.00     0.711 A 
ATOM     20  H6  UNL     1       6.129 -18.593  16.027  1.00  0.00     0.203 HD
HETATM   21  N10 UNL     1       3.779 -20.323  14.934  1.00  0.00    -0.116 N 
ATOM     22  H10 UNL     1       2.990 -20.556  14.330  1.00  0.00     0.207 HD
BRANCH  19  23
HETATM   23  N7  UNL     1       4.272 -18.131  13.919  1.00  0.00    -0.176 N 
HETATM   24  C11 UNL     1       4.608 -16.800  14.328  1.00  0.00     0.189 C 
HETATM   25  C12 UNL     1       5.079 -15.922  13.206  1.00  0.00     0.101 C 
HETATM   26  N8  UNL     1       4.750 -16.352  11.919  1.00  0.00    -0.262 N 
HETATM   27  C15 UNL     1       3.732 -17.296  11.734  1.00  0.00     0.135 C 
HETATM   28  C16 UNL     1       3.725 -18.485  12.625  1.00  0.00     0.340 C 
BRANCH  26  29
HETATM   29  S1  UNL     1       5.673 -15.858  10.614  1.00  0.00     0.265 S 
HETATM   30  O1  UNL     1       4.904 -15.774   9.320  1.00  0.00    -0.202 OA
HETATM   31  O2  UNL     1       6.153 -14.435  10.881  1.00  0.00    -0.202 OA
BRANCH  29  32
HETATM   32  C13 UNL     1       7.111 -16.820  10.310  1.00  0.00     0.284 C 
BRANCH  32  33
HETATM   33  O3  UNL     1       6.683 -18.023   9.701  1.00  0.00    -0.377 OA
ATOM     34  H3  UNL     1       7.319 -18.236   9.028  1.00  0.00     0.211 HD
ENDBRANCH  32  33
BRANCH  32  35
HETATM   35  C14 UNL     1       7.784 -17.256  11.613  1.00  0.00     0.213 C 
BRANCH  35  36
HETATM   36  O4  UNL     1       8.472 -16.222  12.199  1.00  0.00    -0.397 OA
ATOM     37  H4  UNL     1       9.380 -16.453  12.362  1.00  0.00     0.209 HD
ENDBRANCH  35  36
ENDBRANCH  32  35
ENDBRANCH  29  32
ENDBRANCH  26  29
BRANCH  28  38
HETATM   38  N9  UNL     1       4.374 -19.641  12.056  1.00  0.00    -0.053 N 
ATOM     39  H93 UNL     1       5.175 -19.371  11.486  1.00  0.00     0.277 HD
ATOM     40  H92 UNL     1       4.859 -20.181  12.773  1.00  0.00     0.277 HD
ATOM     41  H91 UNL     1       3.726 -20.226  11.528  1.00  0.00     0.277 HD
ENDBRANCH  28  38
ENDBRANCH  19  23
ENDBRANCH  15  16
ENDBRANCH  12  15
BRANCH  14  42
HETATM   42  C18 UNL     1      -1.222 -22.173  16.299  1.00  0.00     0.162 C 
BRANCH  42  43
HETATM   43  C19 UNL     1      -1.438 -22.585  17.763  1.00  0.00     0.154 C 
BRANCH  43  44
HETATM   44  O5  UNL     1      -2.025 -21.443  18.391  1.00  0.00    -0.392 OA
ATOM     45  H5  UNL     1      -1.293 -20.924  18.700  1.00  0.00     0.210 HD
ENDBRANCH  43  44
BRANCH  43  46
HETATM   46  C20 UNL     1      -2.442 -23.671  17.931  1.00  0.00     0.164 C 
BRANCH  46  47
HETATM   47  N12 UNL     1      -2.136 -24.565  19.001  1.00  0.00    -0.325 N 
HETATM   48  C21 UNL     1      -1.462 -25.709  18.943  1.00  0.00     0.185 A 
HETATM   49  N13 UNL     1      -1.418 -26.232  20.179  1.00  0.00    -0.346 N 
HETATM   50  C22 UNL     1      -2.067 -25.418  21.025  1.00  0.00     0.122 A 
ATOM     51  H13 UNL     1      -0.964 -27.108  20.435  1.00  0.00     0.167 HD
HETATM   52  C23 UNL     1      -2.331 -25.454  22.376  1.00  0.00     0.131 A 
HETATM   53  C25 UNL     1      -2.524 -24.359  20.283  1.00  0.00     0.140 A 
HETATM   54  N15 UNL     1      -3.040 -24.437  22.944  1.00  0.00    -0.337 N 
HETATM   55  C24 UNL     1      -3.479 -23.407  22.198  1.00  0.00     0.183 A 
ATOM     56  H15 UNL     1      -3.239 -24.457  23.944  1.00  0.00     0.168 HD
HETATM   57  N16 UNL     1      -3.232 -23.354  20.878  1.00  0.00    -0.336 N 
ATOM     58  H16 UNL     1      -3.572 -22.567  20.324  1.00  0.00     0.168 HD
BRANCH  52  59
HETATM   59  N14 UNL     1      -1.902 -26.442  23.058  1.00  0.00    -0.383 N 
ATOM     60 2H14 UNL     1      -1.078 -26.975  22.779  1.00  0.00     0.157 HD
ATOM     61 1H14 UNL     1      -2.401 -26.705  23.908  1.00  0.00     0.157 HD
ENDBRANCH  52  59
ENDBRANCH  46  47
ENDBRANCH  43  46
ENDBRANCH  42  43
ENDBRANCH  14  42
BRANCH   7  62
HETATM   62  C3  UNL     1      -1.631 -24.059  13.827  1.00  0.00     0.038 A 
HETATM   63  C4  UNL     1      -2.209 -23.007  12.805  1.00  0.00     0.011 A 
HETATM   64  C5  UNL     1      -2.199 -24.417  12.445  1.00  0.00     0.011 A 
ENDBRANCH   7  62
TORSDOF 16
ENDMDL
MODEL 5
REMARK VINA RESULT: -10.193376937      3.427      6.064
REMARK  16 active torsions:
REMARK  status: ('A' for Active; 'I' for Inactive)
REMARK    1  A    between atoms: C2_7  and  C3_8 
REMARK    2  A    between atoms: C8_15  and  C9_16 
REMARK    3  A    between atoms: C9_16  and  N4_17 
REMARK    4  A    between atoms: C10_21  and  N7_22 
REMARK    5  A    between atoms: N8_25  and  S1_26 
REMARK    6  A    between atoms: S1_26  and  C13_29 
REMARK    7  A    between atoms: C13_29  and  O3_30 
REMARK    8  A    between atoms: C13_29  and  C14_32 
REMARK    9  A    between atoms: C14_32  and  O4_33 
REMARK   10  A    between atoms: C16_36  and  N9_37 
REMARK   11  A    between atoms: N11_44  and  C18_45 
REMARK   12  A    between atoms: C18_45  and  C19_46 
REMARK   13  A    between atoms: C19_46  and  O5_47 
REMARK   14  A    between atoms: C19_46  and  C20_49 
REMARK   15  A    between atoms: C20_49  and  N12_50 
REMARK   16  A    between atoms: C23_55  and  N14_56 
ROOT
HETATM    1  N1  UNL     1      -3.377 -22.939   8.852  1.00  0.00    -0.234 N 
ATOM      2  H11 UNL     1      -3.665 -22.150   8.275  1.00  0.00     0.174 HD
ATOM      3  H12 UNL     1      -3.161 -23.832   8.408  1.00  0.00     0.174 HD
HETATM    4  C1  UNL     1      -3.293 -22.784  10.152  1.00  0.00     0.676 A 
HETATM    5  N2  UNL     1      -2.920 -23.807  10.899  1.00  0.00    -0.193 N 
ATOM      6  H2  UNL     1      -2.708 -24.689  10.433  1.00  0.00     0.184 HD
HETATM    7  C2  UNL     1      -2.801 -23.755  12.262  1.00  0.00     0.060 A 
HETATM    8  C6  UNL     1      -3.082 -22.582  12.876  1.00  0.00     0.086 A 
HETATM    9  C7  UNL     1      -3.471 -21.524  12.055  1.00  0.00     0.087 A 
HETATM   10  N3  UNL     1      -3.574 -21.623  10.729  1.00  0.00    -0.189 N 
ATOM     11  H3  UNL     1      -3.863 -20.821  10.169  1.00  0.00     0.184 HD
HETATM   12  C8  UNL     1      -3.699 -20.456  12.886  1.00  0.00     0.008 A 
HETATM   13  C17 UNL     1      -3.441 -20.904  14.155  1.00  0.00     0.102 A 
HETATM   14  N11 UNL     1      -3.060 -22.213  14.157  1.00  0.00    -0.350 N 
ENDROOT
BRANCH  12  15
HETATM   15  C9  UNL     1      -4.133 -19.054  12.522  1.00  0.00     0.210 C 
BRANCH  15  16
HETATM   16  N4  UNL     1      -3.120 -18.079  12.813  1.00  0.00    -0.199 N 
HETATM   17  N5  UNL     1      -3.352 -16.811  13.122  1.00  0.00     0.011 NA
HETATM   18  N6  UNL     1      -2.208 -16.181  13.329  1.00  0.00    -0.113 N 
HETATM   19  C10 UNL     1      -1.206 -17.065  13.150  1.00  0.00     0.711 A 
ATOM     20  H6  UNL     1      -2.103 -15.198  13.582  1.00  0.00     0.203 HD
HETATM   21  N10 UNL     1      -1.817 -18.211  12.836  1.00  0.00    -0.116 N 
ATOM     22  H10 UNL     1      -1.327 -19.083  12.638  1.00  0.00     0.207 HD
BRANCH  19  23
HETATM   23  N7  UNL     1       0.195 -16.851  13.265  1.00  0.00    -0.176 N 
HETATM   24  C11 UNL     1       0.868 -17.384  14.411  1.00  0.00     0.189 C 
HETATM   25  C12 UNL     1       2.287 -17.794  14.143  1.00  0.00     0.101 C 
HETATM   26  N8  UNL     1       2.871 -17.250  12.998  1.00  0.00    -0.262 N 
HETATM   27  C15 UNL     1       2.309 -16.118  12.395  1.00  0.00     0.135 C 
HETATM   28  C16 UNL     1       0.835 -16.100  12.205  1.00  0.00     0.340 C 
BRANCH  26  29
HETATM   29  S1  UNL     1       4.148 -18.038  12.260  1.00  0.00     0.265 S 
HETATM   30  O1  UNL     1       5.115 -18.672  13.228  1.00  0.00    -0.202 OA
HETATM   31  O2  UNL     1       3.587 -19.199  11.446  1.00  0.00    -0.202 OA
BRANCH  29  32
HETATM   32  C13 UNL     1       5.088 -17.056  11.146  1.00  0.00     0.284 C 
BRANCH  32  33
HETATM   33  O3  UNL     1       4.373 -17.017   9.925  1.00  0.00    -0.377 OA
ATOM     34  H3  UNL     1       4.143 -16.108   9.767  1.00  0.00     0.211 HD
ENDBRANCH  32  33
BRANCH  32  35
HETATM   35  C14 UNL     1       6.423 -17.717  10.800  1.00  0.00     0.213 C 
BRANCH  35  36
HETATM   36  O4  UNL     1       6.282 -19.068  10.594  1.00  0.00    -0.397 OA
ATOM     37  H4  UNL     1       7.124 -19.507  10.560  1.00  0.00     0.209 HD
ENDBRANCH  35  36
ENDBRANCH  32  35
ENDBRANCH  29  32
ENDBRANCH  26  29
BRANCH  28  38
HETATM   38  N9  UNL     1       0.412 -16.534  10.896  1.00  0.00    -0.053 N 
ATOM     39  H93 UNL     1       0.950 -16.073  10.163  1.00  0.00     0.277 HD
ATOM     40  H92 UNL     1       0.691 -17.499  10.720  1.00  0.00     0.277 HD
ATOM     41  H91 UNL     1      -0.590 -16.407  10.753  1.00  0.00     0.277 HD
ENDBRANCH  28  38
ENDBRANCH  19  23
ENDBRANCH  15  16
ENDBRANCH  12  15
BRANCH  14  42
HETATM   42  C18 UNL     1      -2.719 -22.903  15.353  1.00  0.00     0.162 C 
BRANCH  42  43
HETATM   43  C19 UNL     1      -1.421 -22.339  15.949  1.00  0.00     0.154 C 
BRANCH  43  44
HETATM   44  O5  UNL     1      -1.747 -21.993  17.297  1.00  0.00    -0.392 OA
ATOM     45  H5  UNL     1      -2.552 -21.492  17.239  1.00  0.00     0.210 HD
ENDBRANCH  43  44
BRANCH  43  46
HETATM   46  C20 UNL     1      -0.335 -23.349  16.066  1.00  0.00     0.164 C 
BRANCH  46  47
HETATM   47  N12 UNL     1       0.761 -23.107  15.184  1.00  0.00    -0.325 N 
HETATM   48  C21 UNL     1       1.000 -23.669  14.004  1.00  0.00     0.185 A 
HETATM   49  N13 UNL     1       2.145 -23.160  13.522  1.00  0.00    -0.346 N 
HETATM   50  C22 UNL     1       2.636 -22.272  14.399  1.00  0.00     0.122 A 
ATOM     51  H13 UNL     1       2.574 -23.409  12.630  1.00  0.00     0.167 HD
HETATM   52  C23 UNL     1       3.754 -21.469  14.423  1.00  0.00     0.131 A 
HETATM   53  C25 UNL     1       1.762 -22.234  15.455  1.00  0.00     0.140 A 
HETATM   54  N15 UNL     1       3.967 -20.655  15.498  1.00  0.00    -0.337 N 
HETATM   55  C24 UNL     1       3.097 -20.633  16.524  1.00  0.00     0.183 A 
ATOM     56  H15 UNL     1       4.793 -20.058  15.524  1.00  0.00     0.168 HD
HETATM   57  N16 UNL     1       2.000 -21.410  16.518  1.00  0.00    -0.336 N 
ATOM     58  H16 UNL     1       1.349 -21.384  17.303  1.00  0.00     0.168 HD
BRANCH  52  59
HETATM   59  N14 UNL     1       4.561 -21.510  13.437  1.00  0.00    -0.383 N 
ATOM     60 2H14 UNL     1       5.197 -20.740  13.226  1.00  0.00     0.157 HD
ATOM     61 1H14 UNL     1       4.569 -22.340  12.844  1.00  0.00     0.157 HD
ENDBRANCH  52  59
ENDBRANCH  46  47
ENDBRANCH  43  46
ENDBRANCH  42  43
ENDBRANCH  14  42
BRANCH   7  62
HETATM   62  C3  UNL     1      -2.396 -24.951  12.999  1.00  0.00     0.038 A 
HETATM   63  C4  UNL     1      -3.573 -25.946  13.333  1.00  0.00     0.011 A 
HETATM   64  C5  UNL     1      -2.630 -26.288  12.279  1.00  0.00     0.011 A 
ENDBRANCH   7  62
TORSDOF 16
ENDMDL
