MODEL 1
REMARK VINA RESULT: -8.965627386      0.000      0.000
REMARK  19 active torsions:
REMARK  status: ('A' for Active; 'I' for Inactive)
REMARK    1  A    between atoms: C2_2  and  N1_3 
REMARK    2  A    between atoms: N1_3  and  C3_4 
REMARK    3  A    between atoms: N1_3  and  S1_21 
REMARK    4  A    between atoms: C3_4  and  C4_5 
REMARK    5  A    between atoms: C4_5  and  N2_6 
REMARK    6  A    between atoms: N2_6  and  C5_9 
REMARK    7  A    between atoms: C5_9  and  C7_11 
REMARK    8  A    between atoms: C8_12  and  C9_13 
REMARK    9  A    between atoms: S1_21  and  C14_22 
REMARK   10  A    between atoms: C17_26  and  O5_27 
REMARK   11  A    between atoms: O5_27  and  C18_28 
REMARK   12  A    between atoms: C19_29  and  N3_30 
REMARK   13  A    between atoms: C21_35  and  N4_36 
REMARK   14  A    between atoms: C22_40  and  O6_41 
REMARK   15  A    between atoms: O6_41  and  S2_42 
REMARK   16  A    between atoms: C23_46  and  O10_47 
REMARK   17  A    between atoms: C24_49  and  C25_50 
REMARK   18  A    between atoms: C25_50  and  O11_51 
REMARK   19  A    between atoms: C25_50  and  O12_53 
ROOT
HETATM    1  C14 UNL     1       3.276 -20.803  15.052  1.00  0.00     0.347 C 
HETATM    2  O4  UNL     1       2.933 -21.534  13.921  1.00  0.00    -0.343 OA
HETATM    3  C15 UNL     1       1.900 -22.408  14.124  1.00  0.00     0.153 C 
HETATM    4  C16 UNL     1       1.954 -23.460  13.037  1.00  0.00     0.042 C 
HETATM    5  C17 UNL     1       1.928 -23.044  15.497  1.00  0.00     0.184 C 
HETATM    6  C24 UNL     1       3.259 -22.860  16.159  1.00  0.00     0.211 C 
HETATM    7  O13 UNL     1       3.703 -21.544  16.113  1.00  0.00    -0.338 OA
ENDROOT
BRANCH   5   8
HETATM    8  O5  UNL     1       0.970 -22.515  16.350  1.00  0.00    -0.370 OA
BRANCH   8   9
HETATM    9  C18 UNL     1       0.112 -23.447  16.906  1.00  0.00     0.183 C 
HETATM   10  C19 UNL     1      -0.981 -23.664  15.884  1.00  0.00     0.217 C 
HETATM   11  C20 UNL     1      -2.147 -24.454  16.407  1.00  0.00     0.071 C 
HETATM   12  C21 UNL     1      -1.744 -25.126  17.690  1.00  0.00     0.218 C 
HETATM   13  C22 UNL     1      -1.357 -24.109  18.757  1.00  0.00     0.206 C 
HETATM   14  C23 UNL     1      -0.564 -22.959  18.175  1.00  0.00     0.181 C 
BRANCH  10  15
HETATM   15  N3  UNL     1      -1.422 -22.351  15.385  1.00  0.00    -0.072 N 
ATOM     16  H33 UNL     1      -2.020 -21.860  16.050  1.00  0.00     0.274 HD
ATOM     17  H32 UNL     1      -0.663 -21.669  15.351  1.00  0.00     0.274 HD
ATOM     18  H31 UNL     1      -1.870 -22.482  14.478  1.00  0.00     0.274 HD
ENDBRANCH  10  15
BRANCH  12  19
HETATM   19  N4  UNL     1      -2.904 -25.831  18.207  1.00  0.00    -0.072 N 
ATOM     20  H43 UNL     1      -3.214 -25.473  19.110  1.00  0.00     0.274 HD
ATOM     21  H42 UNL     1      -3.755 -25.631  17.682  1.00  0.00     0.274 HD
ATOM     22  H41 UNL     1      -2.681 -26.826  18.232  1.00  0.00     0.274 HD
ENDBRANCH  12  19
BRANCH  13  23
HETATM   23  O6  UNL     1      -0.593 -24.816  19.681  1.00  0.00    -0.247 OA
BRANCH  23  24
HETATM   24  S2  UNL     1      -1.463 -25.491  20.920  1.00  0.00     0.252 S 
HETATM   25  O7  UNL     1      -0.608 -25.475  22.165  1.00  0.00    -0.572 OA
HETATM   26  O8  UNL     1      -2.745 -24.740  21.110  1.00  0.00    -0.572 OA
HETATM   27  O9  UNL     1      -1.800 -27.097  20.512  1.00  0.00    -0.572 OA
ENDBRANCH  23  24
ENDBRANCH  13  23
BRANCH  14  28
HETATM   28  O10 UNL     1      -1.442 -21.903  17.899  1.00  0.00    -0.390 OA
ATOM     29  H10 UNL     1      -2.230 -21.972  18.425  1.00  0.00     0.210 HD
ENDBRANCH  14  28
ENDBRANCH   8   9
ENDBRANCH   5   8
BRANCH   6  30
HETATM   30  C25 UNL     1       4.296 -23.860  15.730  1.00  0.00     0.285 C 
BRANCH  30  31
HETATM   31  O11 UNL     1       5.098 -23.290  14.760  1.00  0.00    -0.369 OA
ATOM     32  H11 UNL     1       5.759 -22.753  15.181  1.00  0.00     0.212 HD
ENDBRANCH  30  31
BRANCH  30  33
HETATM   33  O12 UNL     1       5.021 -24.412  16.774  1.00  0.00    -0.369 OA
ATOM     34  H12 UNL     1       4.921 -25.352  16.864  1.00  0.00     0.212 HD
ENDBRANCH  30  33
ENDBRANCH   6  30
BRANCH   1  35
HETATM   35  S1  UNL     1       1.970 -19.630  15.391  1.00  0.00     0.008 SA
BRANCH  35  36
HETATM   36  N1  UNL     1       2.445 -18.094  15.983  1.00  0.00    -0.331 N 
BRANCH  36  37
HETATM   37  C2  UNL     1       2.045 -16.943  15.294  1.00  0.00     0.131 C 
HETATM   38  C1  UNL     1       2.904 -16.816  14.020  1.00  0.00     0.027 C 
ENDBRANCH  36  37
BRANCH  36  39
HETATM   39  C3  UNL     1       3.112 -18.007  17.210  1.00  0.00     0.099 C 
BRANCH  39  40
HETATM   40  C4  UNL     1       4.604 -18.158  17.211  1.00  0.00     0.279 C 
BRANCH  40  41
HETATM   41  N2  UNL     1       5.330 -17.040  16.692  1.00  0.00    -0.057 N 
ATOM     42  H22 UNL     1       4.766 -16.445  16.085  1.00  0.00     0.279 HD
ATOM     43  H21 UNL     1       5.544 -16.340  17.402  1.00  0.00     0.279 HD
BRANCH  41  44
HETATM   44  C5  UNL     1       6.522 -17.563  16.030  1.00  0.00     0.260 C 
HETATM   45  C6  UNL     1       6.471 -19.054  15.962  1.00  0.00     0.054 C 
BRANCH  44  46
HETATM   46  C7  UNL     1       6.676 -16.951  14.695  1.00  0.00    -0.073 C 
HETATM   47  C8  UNL     1       6.786 -16.467  13.597  1.00  0.00    -0.094 C 
BRANCH  47  48
HETATM   48  C9  UNL     1       6.923 -15.893  12.251  1.00  0.00     0.130 C 
HETATM   49  C10 UNL     1       5.555 -15.598  11.636  1.00  0.00     0.139 C 
HETATM   50  C11 UNL     1       5.658 -14.551  10.564  1.00  0.00     0.041 C 
HETATM   51  O1  UNL     1       5.088 -16.802  11.179  1.00  0.00    -0.349 OA
HETATM   52  C12 UNL     1       6.120 -17.677  10.977  1.00  0.00     0.330 C 
HETATM   53  O2  UNL     1       6.696 -17.678   9.717  1.00  0.00    -0.205 OA
HETATM   54  C13 UNL     1       7.412 -16.962  11.298  1.00  0.00     0.236 C 
HETATM   55  O3  UNL     1       7.360 -16.566   9.973  1.00  0.00    -0.226 OA
ENDBRANCH  47  48
ENDBRANCH  44  46
ENDBRANCH  41  44
ENDBRANCH  40  41
ENDBRANCH  39  40
ENDBRANCH  36  39
ENDBRANCH  35  36
ENDBRANCH   1  35
TORSDOF 19
ENDMDL
MODEL 2
REMARK VINA RESULT: -8.896971549      1.128      2.548
REMARK  19 active torsions:
REMARK  status: ('A' for Active; 'I' for Inactive)
REMARK    1  A    between atoms: C2_2  and  N1_3 
REMARK    2  A    between atoms: N1_3  and  C3_4 
REMARK    3  A    between atoms: N1_3  and  S1_21 
REMARK    4  A    between atoms: C3_4  and  C4_5 
REMARK    5  A    between atoms: C4_5  and  N2_6 
REMARK    6  A    between atoms: N2_6  and  C5_9 
REMARK    7  A    between atoms: C5_9  and  C7_11 
REMARK    8  A    between atoms: C8_12  and  C9_13 
REMARK    9  A    between atoms: S1_21  and  C14_22 
REMARK   10  A    between atoms: C17_26  and  O5_27 
REMARK   11  A    between atoms: O5_27  and  C18_28 
REMARK   12  A    between atoms: C19_29  and  N3_30 
REMARK   13  A    between atoms: C21_35  and  N4_36 
REMARK   14  A    between atoms: C22_40  and  O6_41 
REMARK   15  A    between atoms: O6_41  and  S2_42 
REMARK   16  A    between atoms: C23_46  and  O10_47 
REMARK   17  A    between atoms: C24_49  and  C25_50 
REMARK   18  A    between atoms: C25_50  and  O11_51 
REMARK   19  A    between atoms: C25_50  and  O12_53 
ROOT
HETATM    1  C14 UNL     1       3.292 -20.830  15.129  1.00  0.00     0.347 C 
HETATM    2  O4  UNL     1       2.919 -21.531  13.988  1.00  0.00    -0.343 OA
HETATM    3  C15 UNL     1       1.879 -22.397  14.191  1.00  0.00     0.153 C 
HETATM    4  C16 UNL     1       1.900 -23.424  13.078  1.00  0.00     0.042 C 
HETATM    5  C17 UNL     1       1.926 -23.065  15.548  1.00  0.00     0.184 C 
HETATM    6  C24 UNL     1       3.271 -22.913  16.188  1.00  0.00     0.211 C 
HETATM    7  O13 UNL     1       3.730 -21.601  16.164  1.00  0.00    -0.338 OA
ENDROOT
BRANCH   5   8
HETATM    8  O5  UNL     1       0.990 -22.546  16.431  1.00  0.00    -0.370 OA
BRANCH   8   9
HETATM    9  C18 UNL     1       0.131 -23.480  16.980  1.00  0.00     0.183 C 
HETATM   10  C19 UNL     1      -0.946 -23.710  15.945  1.00  0.00     0.217 C 
HETATM   11  C20 UNL     1      -2.114 -24.505  16.456  1.00  0.00     0.071 C 
HETATM   12  C21 UNL     1      -1.724 -25.168  17.748  1.00  0.00     0.218 C 
HETATM   13  C22 UNL     1      -1.359 -24.142  18.815  1.00  0.00     0.206 C 
HETATM   14  C23 UNL     1      -0.566 -22.990  18.237  1.00  0.00     0.181 C 
BRANCH  10  15
HETATM   15  N3  UNL     1      -1.389 -22.403  15.432  1.00  0.00    -0.072 N 
ATOM     16  H33 UNL     1      -1.634 -21.753  16.179  1.00  0.00     0.274 HD
ATOM     17  H32 UNL     1      -0.626 -21.864  15.023  1.00  0.00     0.274 HD
ATOM     18  H31 UNL     1      -2.157 -22.554  14.777  1.00  0.00     0.274 HD
ENDBRANCH  10  15
BRANCH  12  19
HETATM   19  N4  UNL     1      -2.886 -25.878  18.253  1.00  0.00    -0.072 N 
ATOM     20  H43 UNL     1      -3.745 -25.632  17.759  1.00  0.00     0.274 HD
ATOM     21  H42 UNL     1      -2.875 -26.871  18.021  1.00  0.00     0.274 HD
ATOM     22  H41 UNL     1      -2.946 -25.708  19.257  1.00  0.00     0.274 HD
ENDBRANCH  12  19
BRANCH  13  23
HETATM   23  O6  UNL     1      -0.603 -24.839  19.753  1.00  0.00    -0.247 OA
BRANCH  23  24
HETATM   24  S2  UNL     1      -1.484 -25.500  20.991  1.00  0.00     0.252 S 
HETATM   25  O7  UNL     1      -0.647 -25.452  22.248  1.00  0.00    -0.572 OA
HETATM   26  O8  UNL     1      -2.776 -24.760  21.149  1.00  0.00    -0.572 OA
HETATM   27  O9  UNL     1      -1.796 -27.118  20.609  1.00  0.00    -0.572 OA
ENDBRANCH  23  24
ENDBRANCH  13  23
BRANCH  14  28
HETATM   28  O10 UNL     1      -1.446 -21.942  17.943  1.00  0.00    -0.390 OA
ATOM     29  H10 UNL     1      -1.694 -21.476  18.734  1.00  0.00     0.210 HD
ENDBRANCH  14  28
ENDBRANCH   8   9
ENDBRANCH   5   8
BRANCH   6  30
HETATM   30  C25 UNL     1       4.288 -23.914  15.716  1.00  0.00     0.285 C 
BRANCH  30  31
HETATM   31  O11 UNL     1       5.078 -23.330  14.745  1.00  0.00    -0.369 OA
ATOM     32  H11 UNL     1       5.545 -24.011  14.274  1.00  0.00     0.212 HD
ENDBRANCH  30  31
BRANCH  30  33
HETATM   33  O12 UNL     1       5.026 -24.498  16.733  1.00  0.00    -0.369 OA
ATOM     34  H12 UNL     1       5.274 -23.900  17.428  1.00  0.00     0.212 HD
ENDBRANCH  30  33
ENDBRANCH   6  30
BRANCH   1  35
HETATM   35  S1  UNL     1       2.006 -19.650  15.520  1.00  0.00     0.008 SA
BRANCH  35  36
HETATM   36  N1  UNL     1       2.501 -18.182  16.251  1.00  0.00    -0.331 N 
BRANCH  36  37
HETATM   37  C2  UNL     1       3.420 -18.221  17.306  1.00  0.00     0.131 C 
HETATM   38  C1  UNL     1       4.829 -17.972  16.732  1.00  0.00     0.027 C 
ENDBRANCH  36  37
BRANCH  36  39
HETATM   39  C3  UNL     1       2.083 -16.966  15.700  1.00  0.00     0.099 C 
BRANCH  39  40
HETATM   40  C4  UNL     1       2.121 -16.820  14.209  1.00  0.00     0.279 C 
BRANCH  40  41
HETATM   41  N2  UNL     1       0.892 -17.107  13.536  1.00  0.00    -0.057 N 
ATOM     42  H22 UNL     1       0.596 -18.077  13.643  1.00  0.00     0.279 HD
ATOM     43  H21 UNL     1       0.083 -16.672  13.981  1.00  0.00     0.279 HD
BRANCH  41  44
HETATM   44  C5  UNL     1       1.054 -16.711  12.140  1.00  0.00     0.260 C 
HETATM   45  C6  UNL     1       0.899 -15.233  11.994  1.00  0.00     0.054 C 
BRANCH  44  46
HETATM   46  C7  UNL     1       2.352 -17.187  11.621  1.00  0.00    -0.073 C 
HETATM   47  C8  UNL     1       3.407 -17.596  11.205  1.00  0.00    -0.094 C 
BRANCH  47  48
HETATM   48  C9  UNL     1       4.695 -18.103  10.714  1.00  0.00     0.130 C 
HETATM   49  C10 UNL     1       5.603 -18.517  11.872  1.00  0.00     0.139 C 
HETATM   50  C11 UNL     1       6.638 -19.507  11.421  1.00  0.00     0.041 C 
HETATM   51  O1  UNL     1       6.137 -17.353  12.358  1.00  0.00    -0.349 OA
HETATM   52  C12 UNL     1       6.094 -16.368  11.410  1.00  0.00     0.330 C 
HETATM   53  O2  UNL     1       7.194 -16.259  10.576  1.00  0.00    -0.205 OA
HETATM   54  C13 UNL     1       5.502 -16.954  10.149  1.00  0.00     0.236 C 
HETATM   55  O3  UNL     1       6.811 -17.305   9.865  1.00  0.00    -0.226 OA
ENDBRANCH  47  48
ENDBRANCH  44  46
ENDBRANCH  41  44
ENDBRANCH  40  41
ENDBRANCH  39  40
ENDBRANCH  36  39
ENDBRANCH  35  36
ENDBRANCH   1  35
TORSDOF 19
ENDMDL
MODEL 3
REMARK VINA RESULT: -8.716458889      3.099      6.842
REMARK  19 active torsions:
REMARK  status: ('A' for Active; 'I' for Inactive)
REMARK    1  A    between atoms: C2_2  and  N1_3 
REMARK    2  A    between atoms: N1_3  and  C3_4 
REMARK    3  A    between atoms: N1_3  and  S1_21 
REMARK    4  A    between atoms: C3_4  and  C4_5 
REMARK    5  A    between atoms: C4_5  and  N2_6 
REMARK    6  A    between atoms: N2_6  and  C5_9 
REMARK    7  A    between atoms: C5_9  and  C7_11 
REMARK    8  A    between atoms: C8_12  and  C9_13 
REMARK    9  A    between atoms: S1_21  and  C14_22 
REMARK   10  A    between atoms: C17_26  and  O5_27 
REMARK   11  A    between atoms: O5_27  and  C18_28 
REMARK   12  A    between atoms: C19_29  and  N3_30 
REMARK   13  A    between atoms: C21_35  and  N4_36 
REMARK   14  A    between atoms: C22_40  and  O6_41 
REMARK   15  A    between atoms: O6_41  and  S2_42 
REMARK   16  A    between atoms: C23_46  and  O10_47 
REMARK   17  A    between atoms: C24_49  and  C25_50 
REMARK   18  A    between atoms: C25_50  and  O11_51 
REMARK   19  A    between atoms: C25_50  and  O12_53 
ROOT
HETATM    1  C14 UNL     1      -2.335 -24.059  15.516  1.00  0.00     0.347 C 
HETATM    2  O4  UNL     1      -2.102 -23.067  16.462  1.00  0.00    -0.343 OA
HETATM    3  C15 UNL     1      -0.774 -22.831  16.695  1.00  0.00     0.153 C 
HETATM    4  C16 UNL     1      -0.647 -22.145  18.038  1.00  0.00     0.042 C 
HETATM    5  C17 UNL     1       0.065 -24.091  16.647  1.00  0.00     0.184 C 
HETATM    6  C24 UNL     1      -0.787 -25.320  16.729  1.00  0.00     0.211 C 
HETATM    7  O13 UNL     1      -1.855 -25.292  15.840  1.00  0.00    -0.338 OA
ENDROOT
BRANCH   5   8
HETATM    8  O5  UNL     1       0.814 -24.189  15.483  1.00  0.00    -0.370 OA
BRANCH   8   9
HETATM    9  C18 UNL     1       1.604 -23.087  15.209  1.00  0.00     0.183 C 
HETATM   10  C19 UNL     1       2.084 -23.267  13.786  1.00  0.00     0.217 C 
HETATM   11  C20 UNL     1       3.161 -22.299  13.387  1.00  0.00     0.071 C 
HETATM   12  C21 UNL     1       3.207 -21.179  14.390  1.00  0.00     0.218 C 
HETATM   13  C22 UNL     1       3.539 -21.693  15.786  1.00  0.00     0.206 C 
HETATM   14  C23 UNL     1       2.843 -23.002  16.083  1.00  0.00     0.181 C 
BRANCH  10  15
HETATM   15  N3  UNL     1       2.543 -24.656  13.620  1.00  0.00    -0.072 N 
ATOM     16  H33 UNL     1       3.421 -24.839  14.105  1.00  0.00     0.274 HD
ATOM     17  H32 UNL     1       1.962 -25.324  14.127  1.00  0.00     0.274 HD
ATOM     18  H31 UNL     1       2.596 -24.863  12.622  1.00  0.00     0.274 HD
ENDBRANCH  10  15
BRANCH  12  19
HETATM   19  N4  UNL     1       4.295 -20.292  14.017  1.00  0.00    -0.072 N 
ATOM     20  H43 UNL     1       5.213 -20.674  14.247  1.00  0.00     0.274 HD
ATOM     21  H42 UNL     1       4.424 -20.226  13.008  1.00  0.00     0.274 HD
ATOM     22  H41 UNL     1       4.123 -19.386  14.453  1.00  0.00     0.274 HD
ENDBRANCH  12  19
BRANCH  13  23
HETATM   23  O6  UNL     1       3.108 -20.696  16.657  1.00  0.00    -0.247 OA
BRANCH  23  24
HETATM   24  S2  UNL     1       4.291 -19.636  17.130  1.00  0.00     0.252 S 
HETATM   25  O7  UNL     1       3.952 -19.132  18.513  1.00  0.00    -0.572 OA
HETATM   26  O8  UNL     1       5.627 -20.314  17.091  1.00  0.00    -0.572 OA
HETATM   27  O9  UNL     1       4.284 -18.329  16.058  1.00  0.00    -0.572 OA
ENDBRANCH  23  24
ENDBRANCH  13  23
BRANCH  14  28
HETATM   28  O10 UNL     1       3.725 -24.054  15.802  1.00  0.00    -0.390 OA
ATOM     29  H10 UNL     1       4.619 -23.739  15.744  1.00  0.00     0.210 HD
ENDBRANCH  14  28
ENDBRANCH   8   9
ENDBRANCH   5   8
BRANCH   6  30
HETATM   30  C25 UNL     1      -1.181 -25.695  18.130  1.00  0.00     0.285 C 
BRANCH  30  31
HETATM   31  O11 UNL     1      -2.505 -25.360  18.332  1.00  0.00    -0.369 OA
ATOM     32  H11 UNL     1      -2.846 -25.865  19.061  1.00  0.00     0.212 HD
ENDBRANCH  30  31
BRANCH  30  33
HETATM   33  O12 UNL     1      -0.900 -27.010  18.467  1.00  0.00    -0.369 OA
ATOM     34  H12 UNL     1      -0.740 -27.150  19.393  1.00  0.00     0.212 HD
ENDBRANCH  30  33
ENDBRANCH   6  30
BRANCH   1  35
HETATM   35  S1  UNL     1      -1.867 -23.433  13.907  1.00  0.00     0.008 SA
BRANCH  35  36
HETATM   36  N1  UNL     1      -2.826 -22.168  13.262  1.00  0.00    -0.331 N 
BRANCH  36  37
HETATM   37  C2  UNL     1      -3.617 -22.419  12.135  1.00  0.00     0.131 C 
HETATM   38  C1  UNL     1      -2.846 -23.374  11.202  1.00  0.00     0.027 C 
ENDBRANCH  36  37
BRANCH  36  39
HETATM   39  C3  UNL     1      -2.903 -20.949  13.944  1.00  0.00     0.099 C 
BRANCH  39  40
HETATM   40  C4  UNL     1      -3.111 -19.704  13.135  1.00  0.00     0.279 C 
BRANCH  40  41
HETATM   41  N2  UNL     1      -2.333 -18.574  13.543  1.00  0.00    -0.057 N 
ATOM     42  H22 UNL     1      -2.656 -18.163  14.418  1.00  0.00     0.279 HD
ATOM     43  H21 UNL     1      -1.395 -18.828  13.854  1.00  0.00     0.279 HD
BRANCH  41  44
HETATM   44  C5  UNL     1      -2.328 -17.624  12.434  1.00  0.00     0.260 C 
HETATM   45  C6  UNL     1      -3.240 -16.478  12.724  1.00  0.00     0.054 C 
BRANCH  44  46
HETATM   46  C7  UNL     1      -0.950 -17.179  12.148  1.00  0.00    -0.073 C 
HETATM   47  C8  UNL     1       0.184 -16.834  11.924  1.00  0.00    -0.094 C 
BRANCH  47  48
HETATM   48  C9  UNL     1       1.569 -16.418  11.668  1.00  0.00     0.130 C 
HETATM   49  C10 UNL     1       2.541 -17.581  11.868  1.00  0.00     0.139 C 
HETATM   50  C11 UNL     1       3.818 -17.357  11.111  1.00  0.00     0.041 C 
HETATM   51  O1  UNL     1       2.720 -17.683  13.222  1.00  0.00    -0.349 OA
HETATM   52  C12 UNL     1       2.416 -16.503  13.842  1.00  0.00     0.330 C 
HETATM   53  O2  UNL     1       3.453 -15.599  14.000  1.00  0.00    -0.205 OA
HETATM   54  C13 UNL     1       2.030 -15.501  12.779  1.00  0.00     0.236 C 
HETATM   55  O3  UNL     1       3.388 -15.237  12.731  1.00  0.00    -0.226 OA
ENDBRANCH  47  48
ENDBRANCH  44  46
ENDBRANCH  41  44
ENDBRANCH  40  41
ENDBRANCH  39  40
ENDBRANCH  36  39
ENDBRANCH  35  36
ENDBRANCH   1  35
TORSDOF 19
ENDMDL
MODEL 4
REMARK VINA RESULT: -8.603404267      3.285      8.276
REMARK  19 active torsions:
REMARK  status: ('A' for Active; 'I' for Inactive)
REMARK    1  A    between atoms: C2_2  and  N1_3 
REMARK    2  A    between atoms: N1_3  and  C3_4 
REMARK    3  A    between atoms: N1_3  and  S1_21 
REMARK    4  A    between atoms: C3_4  and  C4_5 
REMARK    5  A    between atoms: C4_5  and  N2_6 
REMARK    6  A    between atoms: N2_6  and  C5_9 
REMARK    7  A    between atoms: C5_9  and  C7_11 
REMARK    8  A    between atoms: C8_12  and  C9_13 
REMARK    9  A    between atoms: S1_21  and  C14_22 
REMARK   10  A    between atoms: C17_26  and  O5_27 
REMARK   11  A    between atoms: O5_27  and  C18_28 
REMARK   12  A    between atoms: C19_29  and  N3_30 
REMARK   13  A    between atoms: C21_35  and  N4_36 
REMARK   14  A    between atoms: C22_40  and  O6_41 
REMARK   15  A    between atoms: O6_41  and  S2_42 
REMARK   16  A    between atoms: C23_46  and  O10_47 
REMARK   17  A    between atoms: C24_49  and  C25_50 
REMARK   18  A    between atoms: C25_50  and  O11_51 
REMARK   19  A    between atoms: C25_50  and  O12_53 
ROOT
HETATM    1  C14 UNL     1       4.249 -15.684  12.558  1.00  0.00     0.347 C 
HETATM    2  O4  UNL     1       4.185 -16.830  11.773  1.00  0.00    -0.343 OA
HETATM    3  C15 UNL     1       4.520 -17.974  12.445  1.00  0.00     0.153 C 
HETATM    4  C16 UNL     1       4.900 -19.025  11.424  1.00  0.00     0.042 C 
HETATM    5  C17 UNL     1       5.635 -17.764  13.448  1.00  0.00     0.184 C 
HETATM    6  C24 UNL     1       6.351 -16.470  13.207  1.00  0.00     0.211 C 
HETATM    7  O13 UNL     1       5.482 -15.396  13.062  1.00  0.00    -0.338 OA
ENDROOT
BRANCH   5   8
HETATM    8  O5  UNL     1       5.178 -17.741  14.757  1.00  0.00    -0.370 OA
BRANCH   8   9
HETATM    9  C18 UNL     1       4.211 -18.687  15.050  1.00  0.00     0.183 C 
HETATM   10  C19 UNL     1       3.731 -18.369  16.448  1.00  0.00     0.217 C 
HETATM   11  C20 UNL     1       2.859 -19.437  17.043  1.00  0.00     0.071 C 
HETATM   12  C21 UNL     1       2.402 -20.360  15.948  1.00  0.00     0.218 C 
HETATM   13  C22 UNL     1       3.581 -21.048  15.269  1.00  0.00     0.206 C 
HETATM   14  C23 UNL     1       4.750 -20.106  15.083  1.00  0.00     0.181 C 
BRANCH  10  15
HETATM   15  N3  UNL     1       4.906 -18.118  17.300  1.00  0.00    -0.072 N 
ATOM     16  H33 UNL     1       5.470 -18.955  17.444  1.00  0.00     0.274 HD
ATOM     17  H32 UNL     1       5.614 -17.551  16.834  1.00  0.00     0.274 HD
ATOM     18  H31 UNL     1       4.588 -17.704  18.177  1.00  0.00     0.274 HD
ENDBRANCH  10  15
BRANCH  12  19
HETATM   19  N4  UNL     1       1.614 -21.417  16.556  1.00  0.00    -0.072 N 
ATOM     20  H43 UNL     1       2.107 -21.892  17.313  1.00  0.00     0.274 HD
ATOM     21  H42 UNL     1       0.832 -21.062  17.106  1.00  0.00     0.274 HD
ATOM     22  H41 UNL     1       1.319 -22.054  15.816  1.00  0.00     0.274 HD
ENDBRANCH  12  19
BRANCH  13  23
HETATM   23  O6  UNL     1       3.095 -21.480  14.038  1.00  0.00    -0.247 OA
BRANCH  23  24
HETATM   24  S2  UNL     1       3.152 -23.121  13.813  1.00  0.00     0.252 S 
HETATM   25  O7  UNL     1       4.601 -23.542  13.745  1.00  0.00    -0.572 OA
HETATM   26  O8  UNL     1       2.419 -23.813  14.922  1.00  0.00    -0.572 OA
HETATM   27  O9  UNL     1       2.413 -23.475  12.334  1.00  0.00    -0.572 OA
ENDBRANCH  23  24
ENDBRANCH  13  23
BRANCH  14  28
HETATM   28  O10 UNL     1       5.639 -20.278  16.151  1.00  0.00    -0.390 OA
ATOM     29  H10 UNL     1       6.127 -21.088  16.059  1.00  0.00     0.210 HD
ENDBRANCH  14  28
ENDBRANCH   8   9
ENDBRANCH   5   8
BRANCH   6  30
HETATM   30  C25 UNL     1       7.400 -16.546  12.133  1.00  0.00     0.285 C 
BRANCH  30  31
HETATM   31  O11 UNL     1       7.020 -15.743  11.075  1.00  0.00    -0.369 OA
ATOM     32  H11 UNL     1       7.413 -16.074  10.276  1.00  0.00     0.212 HD
ENDBRANCH  30  31
BRANCH  30  33
HETATM   33  O12 UNL     1       8.687 -16.282  12.574  1.00  0.00    -0.369 OA
ATOM     34  H12 UNL     1       9.309 -16.978  12.397  1.00  0.00     0.212 HD
ENDBRANCH  30  33
ENDBRANCH   6  30
BRANCH   1  35
HETATM   35  S1  UNL     1       2.909 -15.726  13.740  1.00  0.00     0.008 SA
BRANCH  35  36
HETATM   36  N1  UNL     1       1.424 -16.388  13.200  1.00  0.00    -0.331 N 
BRANCH  36  37
HETATM   37  C2  UNL     1       0.987 -16.114  11.899  1.00  0.00     0.131 C 
HETATM   38  C1  UNL     1       0.222 -14.775  11.916  1.00  0.00     0.027 C 
ENDBRANCH  36  37
BRANCH  36  39
HETATM   39  C3  UNL     1       0.738 -17.293  14.018  1.00  0.00     0.099 C 
BRANCH  39  40
HETATM   40  C4  UNL     1      -0.474 -17.970  13.454  1.00  0.00     0.279 C 
BRANCH  40  41
HETATM   41  N2  UNL     1      -1.727 -17.497  13.958  1.00  0.00    -0.057 N 
ATOM     42  H22 UNL     1      -1.818 -17.609  14.968  1.00  0.00     0.279 HD
ATOM     43  H21 UNL     1      -1.809 -16.480  13.930  1.00  0.00     0.279 HD
BRANCH  41  44
HETATM   44  C5  UNL     1      -2.783 -18.175  13.212  1.00  0.00     0.260 C 
HETATM   45  C6  UNL     1      -2.551 -18.044  11.742  1.00  0.00     0.054 C 
BRANCH  44  46
HETATM   46  C7  UNL     1      -2.884 -19.586  13.634  1.00  0.00    -0.073 C 
HETATM   47  C8  UNL     1      -2.944 -20.737  13.987  1.00  0.00    -0.094 C 
BRANCH  47  48
HETATM   48  C9  UNL     1      -3.002 -22.143  14.408  1.00  0.00     0.130 C 
HETATM   49  C10 UNL     1      -2.216 -22.366  15.699  1.00  0.00     0.139 C 
HETATM   50  C11 UNL     1      -2.694 -23.593  16.420  1.00  0.00     0.041 C 
HETATM   51  O1  UNL     1      -0.900 -22.433  15.323  1.00  0.00    -0.349 OA
HETATM   52  C12 UNL     1      -0.790 -22.770  14.002  1.00  0.00     0.330 C 
HETATM   53  O2  UNL     1      -0.708 -24.121  13.710  1.00  0.00    -0.205 OA
HETATM   54  C13 UNL     1      -2.182 -22.985  13.455  1.00  0.00     0.236 C 
HETATM   55  O3  UNL     1      -2.005 -24.284  13.900  1.00  0.00    -0.226 OA
ENDBRANCH  47  48
ENDBRANCH  44  46
ENDBRANCH  41  44
ENDBRANCH  40  41
ENDBRANCH  39  40
ENDBRANCH  36  39
ENDBRANCH  35  36
ENDBRANCH   1  35
TORSDOF 19
ENDMDL
MODEL 5
REMARK VINA RESULT: -8.476185141      2.898      4.830
REMARK  19 active torsions:
REMARK  status: ('A' for Active; 'I' for Inactive)
REMARK    1  A    between atoms: C2_2  and  N1_3 
REMARK    2  A    between atoms: N1_3  and  C3_4 
REMARK    3  A    between atoms: N1_3  and  S1_21 
REMARK    4  A    between atoms: C3_4  and  C4_5 
REMARK    5  A    between atoms: C4_5  and  N2_6 
REMARK    6  A    between atoms: N2_6  and  C5_9 
REMARK    7  A    between atoms: C5_9  and  C7_11 
REMARK    8  A    between atoms: C8_12  and  C9_13 
REMARK    9  A    between atoms: S1_21  and  C14_22 
REMARK   10  A    between atoms: C17_26  and  O5_27 
REMARK   11  A    between atoms: O5_27  and  C18_28 
REMARK   12  A    between atoms: C19_29  and  N3_30 
REMARK   13  A    between atoms: C21_35  and  N4_36 
REMARK   14  A    between atoms: C22_40  and  O6_41 
REMARK   15  A    between atoms: O6_41  and  S2_42 
REMARK   16  A    between atoms: C23_46  and  O10_47 
REMARK   17  A    between atoms: C24_49  and  C25_50 
REMARK   18  A    between atoms: C25_50  and  O11_51 
REMARK   19  A    between atoms: C25_50  and  O12_53 
ROOT
HETATM    1  C14 UNL     1       3.388 -20.742  14.966  1.00  0.00     0.347 C 
HETATM    2  O4  UNL     1       3.029 -21.455  13.828  1.00  0.00    -0.343 OA
HETATM    3  C15 UNL     1       1.980 -22.312  14.025  1.00  0.00     0.153 C 
HETATM    4  C16 UNL     1       2.012 -23.354  12.927  1.00  0.00     0.042 C 
HETATM    5  C17 UNL     1       2.000 -22.963  15.392  1.00  0.00     0.184 C 
HETATM    6  C24 UNL     1       3.337 -22.811  16.052  1.00  0.00     0.211 C 
HETATM    7  O13 UNL     1       3.804 -21.502  16.018  1.00  0.00    -0.338 OA
ENDROOT
BRANCH   5   8
HETATM    8  O5  UNL     1       1.054 -22.426  16.253  1.00  0.00    -0.370 OA
BRANCH   8   9
HETATM    9  C18 UNL     1       0.157 -23.341  16.771  1.00  0.00     0.183 C 
HETATM   10  C19 UNL     1      -0.929 -23.490  15.730  1.00  0.00     0.217 C 
HETATM   11  C20 UNL     1      -2.129 -24.252  16.215  1.00  0.00     0.071 C 
HETATM   12  C21 UNL     1      -1.768 -24.975  17.484  1.00  0.00     0.218 C 
HETATM   13  C22 UNL     1      -1.360 -24.002  18.584  1.00  0.00     0.206 C 
HETATM   14  C23 UNL     1      -0.519 -22.865  18.045  1.00  0.00     0.181 C 
BRANCH  10  15
HETATM   15  N3  UNL     1      -1.317 -22.149  15.263  1.00  0.00    -0.072 N 
ATOM     16  H33 UNL     1      -1.292 -22.066  14.247  1.00  0.00     0.274 HD
ATOM     17  H32 UNL     1      -2.311 -21.961  15.393  1.00  0.00     0.274 HD
ATOM     18  H31 UNL     1      -0.724 -21.460  15.726  1.00  0.00     0.274 HD
ENDBRANCH  10  15
BRANCH  12  19
HETATM   19  N4  UNL     1      -2.959 -25.652  17.966  1.00  0.00    -0.072 N 
ATOM     20  H43 UNL     1      -3.669 -25.766  17.242  1.00  0.00     0.274 HD
ATOM     21  H42 UNL     1      -2.801 -26.641  18.158  1.00  0.00     0.274 HD
ATOM     22  H41 UNL     1      -3.302 -25.142  18.779  1.00  0.00     0.274 HD
ENDBRANCH  12  19
BRANCH  13  23
HETATM   23  O6  UNL     1      -0.634 -24.762  19.497  1.00  0.00    -0.247 OA
BRANCH  23  24
HETATM   24  S2  UNL     1      -1.537 -25.403  20.730  1.00  0.00     0.252 S 
HETATM   25  O7  UNL     1      -0.693 -25.412  21.983  1.00  0.00    -0.572 OA
HETATM   26  O8  UNL     1      -2.795 -24.609  20.907  1.00  0.00    -0.572 OA
HETATM   27  O9  UNL     1      -1.923 -26.999  20.324  1.00  0.00    -0.572 OA
ENDBRANCH  23  24
ENDBRANCH  13  23
BRANCH  14  28
HETATM   28  O10 UNL     1      -1.355 -21.771  17.788  1.00  0.00    -0.390 OA
ATOM     29  H10 UNL     1      -1.838 -21.898  16.980  1.00  0.00     0.210 HD
ENDBRANCH  14  28
ENDBRANCH   8   9
ENDBRANCH   5   8
BRANCH   6  30
HETATM   30  C25 UNL     1       4.354 -23.825  15.609  1.00  0.00     0.285 C 
BRANCH  30  31
HETATM   31  O11 UNL     1       5.241 -23.223  14.738  1.00  0.00    -0.369 OA
ATOM     32  H11 UNL     1       6.094 -23.630  14.834  1.00  0.00     0.212 HD
ENDBRANCH  30  31
BRANCH  30  33
HETATM   33  O12 UNL     1       4.985 -24.488  16.649  1.00  0.00    -0.369 OA
ATOM     34  H12 UNL     1       5.883 -24.217  16.796  1.00  0.00     0.212 HD
ENDBRANCH  30  33
ENDBRANCH   6  30
BRANCH   1  35
HETATM   35  S1  UNL     1       2.105 -19.549  15.321  1.00  0.00     0.008 SA
BRANCH  35  36
HETATM   36  N1  UNL     1       2.580 -18.126  16.148  1.00  0.00    -0.331 N 
BRANCH  36  37
HETATM   37  C2  UNL     1       3.184 -18.238  17.406  1.00  0.00     0.131 C 
HETATM   38  C1  UNL     1       4.713 -18.203  17.215  1.00  0.00     0.027 C 
ENDBRANCH  36  37
BRANCH  36  39
HETATM   39  C3  UNL     1       2.477 -16.889  15.502  1.00  0.00     0.099 C 
BRANCH  39  40
HETATM   40  C4  UNL     1       3.046 -16.770  14.120  1.00  0.00     0.279 C 
BRANCH  40  41
HETATM   41  N2  UNL     1       2.600 -15.634  13.373  1.00  0.00    -0.057 N 
ATOM     42  H22 UNL     1       2.053 -14.979  13.932  1.00  0.00     0.279 HD
ATOM     43  H21 UNL     1       3.358 -14.997  13.126  1.00  0.00     0.279 HD
BRANCH  41  44
HETATM   44  C5  UNL     1       1.874 -16.134  12.209  1.00  0.00     0.260 C 
HETATM   45  C6  UNL     1       2.647 -17.222  11.539  1.00  0.00     0.054 C 
BRANCH  44  46
HETATM   46  C7  UNL     1       0.520 -16.573  12.599  1.00  0.00    -0.073 C 
HETATM   47  C8  UNL     1      -0.577 -16.943  12.937  1.00  0.00    -0.094 C 
BRANCH  47  48
HETATM   48  C9  UNL     1      -1.907 -17.410  13.351  1.00  0.00     0.130 C 
HETATM   49  C10 UNL     1      -2.205 -18.798  12.786  1.00  0.00     0.139 C 
HETATM   50  C11 UNL     1      -3.251 -19.502  13.601  1.00  0.00     0.041 C 
HETATM   51  O1  UNL     1      -2.576 -18.595  11.483  1.00  0.00    -0.349 OA
HETATM   52  C12 UNL     1      -3.016 -17.313  11.298  1.00  0.00     0.330 C 
HETATM   53  O2  UNL     1      -4.370 -17.088  11.482  1.00  0.00    -0.205 OA
HETATM   54  C13 UNL     1      -2.966 -16.603  12.631  1.00  0.00     0.236 C 
HETATM   55  O3  UNL     1      -4.240 -17.120  12.796  1.00  0.00    -0.226 OA
ENDBRANCH  47  48
ENDBRANCH  44  46
ENDBRANCH  41  44
ENDBRANCH  40  41
ENDBRANCH  39  40
ENDBRANCH  36  39
ENDBRANCH  35  36
ENDBRANCH   1  35
TORSDOF 19
ENDMDL
