MODEL 1
REMARK VINA RESULT: -6.859907938      0.000      0.000
REMARK  16 active torsions:
REMARK  status: ('A' for Active; 'I' for Inactive)
REMARK    1  A    between atoms: C2_2  and  C4_4 
REMARK    2  A    between atoms: C4_4  and  C5_5 
REMARK    3  A    between atoms: C6_8  and  O1_9 
REMARK    4  A    between atoms: C7_11  and  C8_12 
REMARK    5  A    between atoms: C8_12  and  C9_13 
REMARK    6  A    between atoms: C9_13  and  C10_14 
REMARK    7  A    between atoms: C10_14  and  C11_15 
REMARK    8  A    between atoms: C11_15  and  N2_16 
REMARK    9  A    between atoms: C13_22  and  O2_23 
REMARK   10  A    between atoms: C14_25  and  C15_26 
REMARK   11  A    between atoms: C17_30  and  C18_31 
REMARK   12  A    between atoms: C18_31  and  C19_32 
REMARK   13  A    between atoms: C19_32  and  C20_33 
REMARK   14  A    between atoms: C20_33  and  C21_34 
REMARK   15  A    between atoms: C22_36  and  O4_37 
REMARK   16  A    between atoms: C26_47  and  O6_48 
ROOT
HETATM    1  C5  UNL     1       6.572 -14.768  13.831  1.00  0.00     0.158 C 
HETATM    2  N1  UNL     1       5.959 -16.000  13.450  1.00  0.00    -0.357 N 
ATOM      3  H1  UNL     1       6.614 -16.600  12.949  1.00  0.00     0.162 HD
HETATM    4  C6  UNL     1       4.723 -16.601  13.574  1.00  0.00     0.164 C 
HETATM    5  C7  UNL     1       3.341 -16.301  13.081  1.00  0.00     0.083 C 
HETATM    6  N3  UNL     1       2.756 -15.122  13.640  1.00  0.00    -0.332 N 
HETATM    7  C12 UNL     1       3.155 -15.034  15.104  1.00  0.00     0.158 C 
HETATM    8  C13 UNL     1       1.922 -14.108  13.277  1.00  0.00     0.134 C 
HETATM    9  C14 UNL     1       1.684 -13.096  12.229  1.00  0.00     0.172 C 
HETATM   10  C16 UNL     1       2.628 -12.845  11.163  1.00  0.00     0.002 C 
HETATM   11  C17 UNL     1       3.052 -11.548  10.691  1.00  0.00    -0.035 C 
HETATM   12  C22 UNL     1       4.514 -11.533  10.218  1.00  0.00     0.250 C 
HETATM   13  N5  UNL     1       4.871 -12.715   9.485  1.00  0.00    -0.329 N 
ATOM     14  H5  UNL     1       4.110 -13.184   8.995  1.00  0.00     0.165 HD
HETATM   15  C23 UNL     1       6.138 -13.303   9.361  1.00  0.00     0.242 C 
HETATM   16  O5  UNL     1       6.569 -13.481   8.160  1.00  0.00    -0.271 OA
HETATM   17  C24 UNL     1       7.049 -13.754  10.443  1.00  0.00     0.171 C 
HETATM   18  C25 UNL     1       7.175 -15.236  10.271  1.00  0.00     0.042 C 
HETATM   19  N6  UNL     1       6.841 -13.217  11.723  1.00  0.00    -0.360 N 
ATOM     20  H6  UNL     1       7.162 -12.250  11.760  1.00  0.00     0.162 HD
HETATM   21  C26 UNL     1       6.333 -13.602  12.940  1.00  0.00     0.135 C 
ENDROOT
BRANCH   5  22
HETATM   22  C8  UNL     1       3.172 -16.749  11.709  1.00  0.00     0.007 C 
BRANCH  22  23
HETATM   23  C9  UNL     1       2.309 -17.814  11.260  1.00  0.00     0.031 C 
BRANCH  23  24
HETATM   24  C10 UNL     1       0.833 -17.554  11.189  1.00  0.00     0.031 C 
BRANCH  24  25
HETATM   25  C11 UNL     1       0.087 -17.962  12.441  1.00  0.00     0.230 C 
BRANCH  25  26
HETATM   26  N2  UNL     1      -0.344 -16.742  13.094  1.00  0.00    -0.079 N 
ATOM     27  H23 UNL     1       0.410 -16.068  13.221  1.00  0.00     0.274 HD
ATOM     28  H22 UNL     1      -0.940 -16.162  12.505  1.00  0.00     0.274 HD
ATOM     29  H21 UNL     1      -0.791 -17.014  13.970  1.00  0.00     0.274 HD
ENDBRANCH  25  26
ENDBRANCH  24  25
ENDBRANCH  23  24
ENDBRANCH  22  23
ENDBRANCH   5  22
BRANCH   4  30
HETATM   30  O1  UNL     1       4.726 -17.704  14.282  1.00  0.00    -0.345 OA
ATOM     31  H1  UNL     1       3.967 -17.812  14.843  1.00  0.00     0.219 HD
ENDBRANCH   4  30
BRANCH   8  32
HETATM   32  O2  UNL     1       0.932 -13.920  14.180  1.00  0.00    -0.348 OA
ATOM     33  H2  UNL     1       0.405 -14.702  14.297  1.00  0.00     0.219 HD
ENDBRANCH   8  32
BRANCH   1  34
HETATM   34  C4  UNL     1       8.071 -14.814  14.054  1.00  0.00     0.037 C 
BRANCH  34  35
HETATM   35  C2  UNL     1       8.898 -15.744  13.303  1.00  0.00    -0.020 C 
HETATM   36  C1  UNL     1       9.351 -16.953  14.063  1.00  0.00     0.009 C 
HETATM   37  C3  UNL     1      10.050 -15.095  12.551  1.00  0.00     0.009 C 
ENDBRANCH  34  35
ENDBRANCH   1  34
BRANCH   9  38
HETATM   38  C15 UNL     1       0.255 -13.254  11.700  1.00  0.00     0.246 C 
HETATM   39  N4  UNL     1      -0.570 -12.119  11.670  1.00  0.00    -0.061 NA
HETATM   40  O3  UNL     1      -0.099 -14.383  11.324  1.00  0.00    -0.276 OA
ENDBRANCH   9  38
BRANCH  21  41
HETATM   41  O6  UNL     1       5.458 -12.780  13.440  1.00  0.00    -0.348 OA
ATOM     42  H6  UNL     1       5.262 -12.066  12.846  1.00  0.00     0.219 HD
ENDBRANCH  21  41
BRANCH  11  43
HETATM   43  C18 UNL     1       2.845 -10.252  11.345  1.00  0.00     0.038 C 
BRANCH  43  44
HETATM   44  C19 UNL     1       1.744  -9.341  10.941  1.00  0.00     0.006 C 
BRANCH  44  45
HETATM   45  C20 UNL     1       1.173  -9.793   9.584  1.00  0.00     0.015 C 
BRANCH  45  46
HETATM   46  C21 UNL     1       1.624  -8.775   8.572  1.00  0.00     0.114 C 
HETATM   47 CL1  UNL     1       1.432  -7.127   9.198  1.00  0.00    -0.130 Cl
ENDBRANCH  45  46
ENDBRANCH  44  45
ENDBRANCH  43  44
ENDBRANCH  11  43
BRANCH  12  48
HETATM   48  O4  UNL     1       4.596 -10.448   9.309  1.00  0.00    -0.373 OA
ATOM     49  H4  UNL     1       4.577 -10.846   8.446  1.00  0.00     0.212 HD
ENDBRANCH  12  48
TORSDOF 16
ENDMDL
MODEL 2
REMARK VINA RESULT: -6.801848172      0.996      1.111
REMARK  16 active torsions:
REMARK  status: ('A' for Active; 'I' for Inactive)
REMARK    1  A    between atoms: C2_2  and  C4_4 
REMARK    2  A    between atoms: C4_4  and  C5_5 
REMARK    3  A    between atoms: C6_8  and  O1_9 
REMARK    4  A    between atoms: C7_11  and  C8_12 
REMARK    5  A    between atoms: C8_12  and  C9_13 
REMARK    6  A    between atoms: C9_13  and  C10_14 
REMARK    7  A    between atoms: C10_14  and  C11_15 
REMARK    8  A    between atoms: C11_15  and  N2_16 
REMARK    9  A    between atoms: C13_22  and  O2_23 
REMARK   10  A    between atoms: C14_25  and  C15_26 
REMARK   11  A    between atoms: C17_30  and  C18_31 
REMARK   12  A    between atoms: C18_31  and  C19_32 
REMARK   13  A    between atoms: C19_32  and  C20_33 
REMARK   14  A    between atoms: C20_33  and  C21_34 
REMARK   15  A    between atoms: C22_36  and  O4_37 
REMARK   16  A    between atoms: C26_47  and  O6_48 
ROOT
HETATM    1  C5  UNL     1       6.872 -14.664  13.879  1.00  0.00     0.158 C 
HETATM    2  N1  UNL     1       6.295 -15.934  13.575  1.00  0.00    -0.357 N 
ATOM      3  H1  UNL     1       6.950 -16.526  13.066  1.00  0.00     0.162 HD
HETATM    4  C6  UNL     1       5.093 -16.579  13.783  1.00  0.00     0.164 C 
HETATM    5  C7  UNL     1       3.677 -16.357  13.348  1.00  0.00     0.083 C 
HETATM    6  N3  UNL     1       3.070 -15.181  13.890  1.00  0.00    -0.332 N 
HETATM    7  C12 UNL     1       3.534 -15.018  15.328  1.00  0.00     0.158 C 
HETATM    8  C13 UNL     1       2.177 -14.217  13.530  1.00  0.00     0.134 C 
HETATM    9  C14 UNL     1       1.846 -13.258  12.458  1.00  0.00     0.172 C 
HETATM   10  C16 UNL     1       2.726 -13.012  11.337  1.00  0.00     0.002 C 
HETATM   11  C17 UNL     1       3.072 -11.719  10.796  1.00  0.00    -0.035 C 
HETATM   12  C22 UNL     1       4.507 -11.663  10.251  1.00  0.00     0.250 C 
HETATM   13  N5  UNL     1       4.880 -12.858   9.547  1.00  0.00    -0.329 N 
ATOM     14  H5  UNL     1       4.116 -13.377   9.113  1.00  0.00     0.165 HD
HETATM   15  C23 UNL     1       6.162 -13.399   9.382  1.00  0.00     0.242 C 
HETATM   16  O5  UNL     1       6.543 -13.606   8.170  1.00  0.00    -0.271 OA
HETATM   17  C24 UNL     1       7.143 -13.767  10.435  1.00  0.00     0.171 C 
HETATM   18  C25 UNL     1       7.324 -15.249  10.313  1.00  0.00     0.042 C 
HETATM   19  N6  UNL     1       6.973 -13.189  11.702  1.00  0.00    -0.360 N 
ATOM     20  H6  UNL     1       7.254 -12.208  11.687  1.00  0.00     0.162 HD
HETATM   21  C26 UNL     1       6.542 -13.545  12.957  1.00  0.00     0.135 C 
ENDROOT
BRANCH   5  22
HETATM   22  C8  UNL     1       3.462 -16.866  12.004  1.00  0.00     0.007 C 
BRANCH  22  23
HETATM   23  C9  UNL     1       3.675 -16.141  10.774  1.00  0.00     0.031 C 
BRANCH  23  24
HETATM   24  C10 UNL     1       2.660 -16.282   9.679  1.00  0.00     0.031 C 
BRANCH  24  25
HETATM   25  C11 UNL     1       1.969 -17.628   9.666  1.00  0.00     0.230 C 
BRANCH  25  26
HETATM   26  N2  UNL     1       0.654 -17.434  10.244  1.00  0.00    -0.079 N 
ATOM     27  H23 UNL     1       0.429 -16.453  10.407  1.00  0.00     0.274 HD
ATOM     28  H22 UNL     1      -0.104 -17.635   9.592  1.00  0.00     0.274 HD
ATOM     29  H21 UNL     1       0.614 -18.002  11.091  1.00  0.00     0.274 HD
ENDBRANCH  25  26
ENDBRANCH  24  25
ENDBRANCH  23  24
ENDBRANCH  22  23
ENDBRANCH   5  22
BRANCH   4  30
HETATM   30  O1  UNL     1       5.177 -17.652  14.532  1.00  0.00    -0.345 OA
ATOM     31  H1  UNL     1       4.677 -17.608  15.339  1.00  0.00     0.219 HD
ENDBRANCH   4  30
BRANCH   8  32
HETATM   32  O2  UNL     1       1.224 -14.034  14.473  1.00  0.00    -0.348 OA
ATOM     33  H2  UNL     1       1.170 -13.128  14.753  1.00  0.00     0.219 HD
ENDBRANCH   8  32
BRANCH   1  34
HETATM   34  C4  UNL     1       8.380 -14.640  14.028  1.00  0.00     0.037 C 
BRANCH  34  35
HETATM   35  C2  UNL     1       9.202 -15.642  13.370  1.00  0.00    -0.020 C 
HETATM   36  C1  UNL     1       9.736 -16.718  14.265  1.00  0.00     0.009 C 
HETATM   37  C3  UNL     1      10.289 -15.072  12.471  1.00  0.00     0.009 C 
ENDBRANCH  34  35
ENDBRANCH   1  34
BRANCH   9  38
HETATM   38  C15 UNL     1       0.402 -13.497  12.006  1.00  0.00     0.246 C 
HETATM   39  N4  UNL     1       0.030 -14.799  11.637  1.00  0.00    -0.061 NA
HETATM   40  O3  UNL     1      -0.366 -12.522  11.990  1.00  0.00    -0.276 OA
ENDBRANCH   9  38
BRANCH  21  41
HETATM   41  O6  UNL     1       5.656 -12.740  13.467  1.00  0.00    -0.348 OA
ATOM     42  H6  UNL     1       5.296 -12.150  12.817  1.00  0.00     0.219 HD
ENDBRANCH  21  41
BRANCH  11  43
HETATM   43  C18 UNL     1       2.841 -10.407  11.409  1.00  0.00     0.038 C 
BRANCH  43  44
HETATM   44  C19 UNL     1       1.615  -9.618  11.125  1.00  0.00     0.006 C 
BRANCH  44  45
HETATM   45  C20 UNL     1       1.017 -10.062   9.778  1.00  0.00     0.015 C 
BRANCH  45  46
HETATM   46  C21 UNL     1       1.483  -9.062   8.755  1.00  0.00     0.114 C 
HETATM   47 CL1  UNL     1       1.489  -7.420   9.426  1.00  0.00    -0.130 Cl
ENDBRANCH  45  46
ENDBRANCH  44  45
ENDBRANCH  43  44
ENDBRANCH  11  43
BRANCH  12  48
HETATM   48  O4  UNL     1       4.499 -10.613   9.298  1.00  0.00    -0.373 OA
ATOM     49  H4  UNL     1       5.390 -10.284   9.286  1.00  0.00     0.212 HD
ENDBRANCH  12  48
TORSDOF 16
ENDMDL
MODEL 3
REMARK VINA RESULT: -6.518612427      2.784      7.231
REMARK  16 active torsions:
REMARK  status: ('A' for Active; 'I' for Inactive)
REMARK    1  A    between atoms: C2_2  and  C4_4 
REMARK    2  A    between atoms: C4_4  and  C5_5 
REMARK    3  A    between atoms: C6_8  and  O1_9 
REMARK    4  A    between atoms: C7_11  and  C8_12 
REMARK    5  A    between atoms: C8_12  and  C9_13 
REMARK    6  A    between atoms: C9_13  and  C10_14 
REMARK    7  A    between atoms: C10_14  and  C11_15 
REMARK    8  A    between atoms: C11_15  and  N2_16 
REMARK    9  A    between atoms: C13_22  and  O2_23 
REMARK   10  A    between atoms: C14_25  and  C15_26 
REMARK   11  A    between atoms: C17_30  and  C18_31 
REMARK   12  A    between atoms: C18_31  and  C19_32 
REMARK   13  A    between atoms: C19_32  and  C20_33 
REMARK   14  A    between atoms: C20_33  and  C21_34 
REMARK   15  A    between atoms: C22_36  and  O4_37 
REMARK   16  A    between atoms: C26_47  and  O6_48 
ROOT
HETATM    1  C5  UNL     1       3.106 -12.426  11.264  1.00  0.00     0.158 C 
HETATM    2  N1  UNL     1       2.551 -13.313  10.293  1.00  0.00    -0.357 N 
ATOM      3  H1  UNL     1       1.573 -13.093  10.108  1.00  0.00     0.162 HD
HETATM    4  C6  UNL     1       2.975 -14.387   9.538  1.00  0.00     0.164 C 
HETATM    5  C7  UNL     1       3.464 -15.770   9.836  1.00  0.00     0.083 C 
HETATM    6  N3  UNL     1       4.725 -15.820  10.505  1.00  0.00    -0.332 N 
HETATM    7  C12 UNL     1       5.617 -14.728   9.936  1.00  0.00     0.158 C 
HETATM    8  C13 UNL     1       5.374 -16.572  11.439  1.00  0.00     0.134 C 
HETATM    9  C14 UNL     1       5.229 -17.163  12.784  1.00  0.00     0.172 C 
HETATM   10  C16 UNL     1       4.108 -16.863  13.647  1.00  0.00     0.002 C 
HETATM   11  C17 UNL     1       4.179 -16.559  15.057  1.00  0.00    -0.035 C 
HETATM   12  C22 UNL     1       3.108 -15.551  15.505  1.00  0.00     0.250 C 
HETATM   13  N5  UNL     1       1.835 -15.783  14.884  1.00  0.00    -0.329 N 
ATOM     14  H5  UNL     1       1.642 -16.745  14.605  1.00  0.00     0.165 HD
HETATM   15  C23 UNL     1       0.823 -14.851  14.615  1.00  0.00     0.242 C 
HETATM   16  O5  UNL     1      -0.340 -15.115  15.099  1.00  0.00    -0.271 OA
HETATM   17  C24 UNL     1       0.923 -13.590  13.836  1.00  0.00     0.171 C 
HETATM   18  C25 UNL     1       0.024 -13.778  12.653  1.00  0.00     0.042 C 
HETATM   19  N6  UNL     1       2.204 -13.046  13.657  1.00  0.00    -0.360 N 
ATOM     20  H6  UNL     1       2.533 -12.618  14.522  1.00  0.00     0.162 HD
HETATM   21  C26 UNL     1       3.148 -12.916  12.667  1.00  0.00     0.135 C 
ENDROOT
BRANCH   5  22
HETATM   22  C8  UNL     1       2.349 -16.671  10.083  1.00  0.00     0.007 C 
BRANCH  22  23
HETATM   23  C9  UNL     1       1.518 -16.695  11.262  1.00  0.00     0.031 C 
BRANCH  23  24
HETATM   24  C10 UNL     1       0.138 -17.270  11.150  1.00  0.00     0.031 C 
BRANCH  24  25
HETATM   25  C11 UNL     1      -0.126 -18.401  12.120  1.00  0.00     0.230 C 
BRANCH  25  26
HETATM   26  N2  UNL     1      -0.598 -17.802  13.352  1.00  0.00    -0.079 N 
ATOM     27  H23 UNL     1      -1.191 -16.987  13.199  1.00  0.00     0.274 HD
ATOM     28  H22 UNL     1      -1.288 -18.375  13.838  1.00  0.00     0.274 HD
ATOM     29  H21 UNL     1       0.225 -17.600  13.920  1.00  0.00     0.274 HD
ENDBRANCH  25  26
ENDBRANCH  24  25
ENDBRANCH  23  24
ENDBRANCH  22  23
ENDBRANCH   5  22
BRANCH   4  30
HETATM   30  O1  UNL     1       2.951 -14.181   8.243  1.00  0.00    -0.345 OA
ATOM     31  H1  UNL     1       3.799 -14.247   7.819  1.00  0.00     0.219 HD
ENDBRANCH   4  30
BRANCH   8  32
HETATM   32  O2  UNL     1       6.612 -16.932  11.027  1.00  0.00    -0.348 OA
ATOM     33  H2  UNL     1       7.159 -17.214  11.751  1.00  0.00     0.219 HD
ENDBRANCH   8  32
BRANCH   1  34
HETATM   34  C4  UNL     1       2.487 -11.044  11.331  1.00  0.00     0.037 C 
BRANCH  34  35
HETATM   35  C2  UNL     1       1.145 -10.812  10.821  1.00  0.00    -0.020 C 
HETATM   36  C1  UNL     1       1.076 -10.094   9.509  1.00  0.00     0.009 C 
HETATM   37  C3  UNL     1       0.181 -10.216  11.836  1.00  0.00     0.009 C 
ENDBRANCH  34  35
ENDBRANCH   1  34
BRANCH   9  38
HETATM   38  C15 UNL     1       5.495 -18.669  12.697  1.00  0.00     0.246 C 
HETATM   39  N4  UNL     1       4.589 -19.460  11.971  1.00  0.00    -0.061 NA
HETATM   40  O3  UNL     1       6.499 -19.112  13.274  1.00  0.00    -0.276 OA
ENDBRANCH   9  38
BRANCH  21  41
HETATM   41  O6  UNL     1       4.343 -13.294  13.014  1.00  0.00    -0.348 OA
ATOM     42  H6  UNL     1       4.975 -12.589  12.934  1.00  0.00     0.219 HD
ENDBRANCH  21  41
BRANCH  11  43
HETATM   43  C18 UNL     1       5.375 -16.224  15.836  1.00  0.00     0.038 C 
BRANCH  43  44
HETATM   44  C19 UNL     1       6.396 -17.246  16.177  1.00  0.00     0.006 C 
BRANCH  44  45
HETATM   45  C20 UNL     1       7.791 -16.595  16.191  1.00  0.00     0.015 C 
BRANCH  45  46
HETATM   46  C21 UNL     1       8.231 -16.499  14.756  1.00  0.00     0.114 C 
HETATM   47 CL1  UNL     1       8.162 -14.823  14.179  1.00  0.00    -0.130 Cl
ENDBRANCH  45  46
ENDBRANCH  44  45
ENDBRANCH  43  44
ENDBRANCH  11  43
BRANCH  12  48
HETATM   48  O4  UNL     1       2.936 -15.790  16.892  1.00  0.00    -0.373 OA
ATOM     49  H4  UNL     1       3.285 -15.017  17.321  1.00  0.00     0.212 HD
ENDBRANCH  12  48
TORSDOF 16
ENDMDL
MODEL 4
REMARK VINA RESULT: -6.425687752      3.418      7.528
REMARK  16 active torsions:
REMARK  status: ('A' for Active; 'I' for Inactive)
REMARK    1  A    between atoms: C2_2  and  C4_4 
REMARK    2  A    between atoms: C4_4  and  C5_5 
REMARK    3  A    between atoms: C6_8  and  O1_9 
REMARK    4  A    between atoms: C7_11  and  C8_12 
REMARK    5  A    between atoms: C8_12  and  C9_13 
REMARK    6  A    between atoms: C9_13  and  C10_14 
REMARK    7  A    between atoms: C10_14  and  C11_15 
REMARK    8  A    between atoms: C11_15  and  N2_16 
REMARK    9  A    between atoms: C13_22  and  O2_23 
REMARK   10  A    between atoms: C14_25  and  C15_26 
REMARK   11  A    between atoms: C17_30  and  C18_31 
REMARK   12  A    between atoms: C18_31  and  C19_32 
REMARK   13  A    between atoms: C19_32  and  C20_33 
REMARK   14  A    between atoms: C20_33  and  C21_34 
REMARK   15  A    between atoms: C22_36  and  O4_37 
REMARK   16  A    between atoms: C26_47  and  O6_48 
ROOT
HETATM    1  C5  UNL     1       3.044 -12.443  11.232  1.00  0.00     0.158 C 
HETATM    2  N1  UNL     1       2.494 -13.337  10.265  1.00  0.00    -0.357 N 
ATOM      3  H1  UNL     1       1.516 -13.120  10.074  1.00  0.00     0.162 HD
HETATM    4  C6  UNL     1       2.923 -14.415   9.518  1.00  0.00     0.164 C 
HETATM    5  C7  UNL     1       3.412 -15.796   9.827  1.00  0.00     0.083 C 
HETATM    6  N3  UNL     1       4.672 -15.840  10.502  1.00  0.00    -0.332 N 
HETATM    7  C12 UNL     1       5.564 -14.750   9.929  1.00  0.00     0.158 C 
HETATM    8  C13 UNL     1       5.317 -16.584  11.443  1.00  0.00     0.134 C 
HETATM    9  C14 UNL     1       5.168 -17.167  12.791  1.00  0.00     0.172 C 
HETATM   10  C16 UNL     1       4.042 -16.864  13.647  1.00  0.00     0.002 C 
HETATM   11  C17 UNL     1       4.107 -16.550  15.055  1.00  0.00    -0.035 C 
HETATM   12  C22 UNL     1       3.033 -15.542  15.493  1.00  0.00     0.250 C 
HETATM   13  N5  UNL     1       1.762 -15.779  14.868  1.00  0.00    -0.329 N 
ATOM     14  H5  UNL     1       1.572 -16.744  14.594  1.00  0.00     0.165 HD
HETATM   15  C23 UNL     1       0.750 -14.850  14.588  1.00  0.00     0.242 C 
HETATM   16  O5  UNL     1      -0.415 -15.114  15.069  1.00  0.00    -0.271 OA
HETATM   17  C24 UNL     1       0.852 -13.594  13.802  1.00  0.00     0.171 C 
HETATM   18  C25 UNL     1      -0.042 -13.791  12.616  1.00  0.00     0.042 C 
HETATM   19  N6  UNL     1       2.132 -13.049  13.625  1.00  0.00    -0.360 N 
ATOM     20  H6  UNL     1       2.457 -12.615  14.489  1.00  0.00     0.162 HD
HETATM   21  C26 UNL     1       3.080 -12.924  12.638  1.00  0.00     0.135 C 
ENDROOT
BRANCH   5  22
HETATM   22  C8  UNL     1       2.298 -16.696  10.075  1.00  0.00     0.007 C 
BRANCH  22  23
HETATM   23  C9  UNL     1       1.346 -16.596  11.153  1.00  0.00     0.031 C 
BRANCH  23  24
HETATM   24  C10 UNL     1       0.325 -17.685  11.307  1.00  0.00     0.031 C 
BRANCH  24  25
HETATM   25  C11 UNL     1       0.426 -18.426  12.623  1.00  0.00     0.230 C 
BRANCH  25  26
HETATM   26  N2  UNL     1      -0.632 -17.922  13.475  1.00  0.00    -0.079 N 
ATOM     27  H23 UNL     1      -1.479 -17.680  12.961  1.00  0.00     0.274 HD
ATOM     28  H22 UNL     1      -1.043 -18.641  14.071  1.00  0.00     0.274 HD
ATOM     29  H21 UNL     1      -0.244 -17.139  14.002  1.00  0.00     0.274 HD
ENDBRANCH  25  26
ENDBRANCH  24  25
ENDBRANCH  23  24
ENDBRANCH  22  23
ENDBRANCH   5  22
BRANCH   4  30
HETATM   30  O1  UNL     1       2.904 -14.217   8.221  1.00  0.00    -0.345 OA
ATOM     31  H1  UNL     1       3.762 -14.096   7.831  1.00  0.00     0.219 HD
ENDBRANCH   4  30
BRANCH   8  32
HETATM   32  O2  UNL     1       6.558 -16.945  11.039  1.00  0.00    -0.348 OA
ATOM     33  H2  UNL     1       7.225 -16.359  11.374  1.00  0.00     0.219 HD
ENDBRANCH   8  32
BRANCH   1  34
HETATM   34  C4  UNL     1       2.422 -11.062  11.288  1.00  0.00     0.037 C 
BRANCH  34  35
HETATM   35  C2  UNL     1       1.097 -10.828  10.738  1.00  0.00    -0.020 C 
HETATM   36  C1  UNL     1       1.066 -10.069   9.447  1.00  0.00     0.009 C 
HETATM   37  C3  UNL     1       0.091 -10.273  11.736  1.00  0.00     0.009 C 
ENDBRANCH  34  35
ENDBRANCH   1  34
BRANCH   9  38
HETATM   38  C15 UNL     1       5.436 -18.673  12.714  1.00  0.00     0.246 C 
HETATM   39  N4  UNL     1       4.561 -19.463  11.951  1.00  0.00    -0.061 NA
HETATM   40  O3  UNL     1       6.415 -19.117  13.333  1.00  0.00    -0.276 OA
ENDBRANCH   9  38
BRANCH  21  41
HETATM   41  O6  UNL     1       4.275 -13.298  12.993  1.00  0.00    -0.348 OA
ATOM     42  H6  UNL     1       4.363 -13.356  13.937  1.00  0.00     0.219 HD
ENDBRANCH  21  41
BRANCH  11  43
HETATM   43  C18 UNL     1       5.299 -16.208  15.838  1.00  0.00     0.038 C 
BRANCH  43  44
HETATM   44  C19 UNL     1       6.128 -17.251  16.493  1.00  0.00     0.006 C 
BRANCH  44  45
HETATM   45  C20 UNL     1       5.298 -18.536  16.666  1.00  0.00     0.015 C 
BRANCH  45  46
HETATM   46  C21 UNL     1       4.926 -18.610  18.122  1.00  0.00     0.114 C 
HETATM   47 CL1  UNL     1       3.195 -18.942  18.320  1.00  0.00    -0.130 Cl
ENDBRANCH  45  46
ENDBRANCH  44  45
ENDBRANCH  43  44
ENDBRANCH  11  43
BRANCH  12  48
HETATM   48  O4  UNL     1       2.855 -15.772  16.881  1.00  0.00    -0.373 OA
ATOM     49  H4  UNL     1       2.001 -15.410  17.084  1.00  0.00     0.212 HD
ENDBRANCH  12  48
TORSDOF 16
ENDMDL
MODEL 5
REMARK VINA RESULT: -6.226809563      3.189      6.652
REMARK  16 active torsions:
REMARK  status: ('A' for Active; 'I' for Inactive)
REMARK    1  A    between atoms: C2_2  and  C4_4 
REMARK    2  A    between atoms: C4_4  and  C5_5 
REMARK    3  A    between atoms: C6_8  and  O1_9 
REMARK    4  A    between atoms: C7_11  and  C8_12 
REMARK    5  A    between atoms: C8_12  and  C9_13 
REMARK    6  A    between atoms: C9_13  and  C10_14 
REMARK    7  A    between atoms: C10_14  and  C11_15 
REMARK    8  A    between atoms: C11_15  and  N2_16 
REMARK    9  A    between atoms: C13_22  and  O2_23 
REMARK   10  A    between atoms: C14_25  and  C15_26 
REMARK   11  A    between atoms: C17_30  and  C18_31 
REMARK   12  A    between atoms: C18_31  and  C19_32 
REMARK   13  A    between atoms: C19_32  and  C20_33 
REMARK   14  A    between atoms: C20_33  and  C21_34 
REMARK   15  A    between atoms: C22_36  and  O4_37 
REMARK   16  A    between atoms: C26_47  and  O6_48 
ROOT
HETATM    1  C5  UNL     1       2.241 -11.742  11.980  1.00  0.00     0.158 C 
HETATM    2  N1  UNL     1       2.875 -11.909  13.247  1.00  0.00    -0.357 N 
ATOM      3  H1  UNL     1       3.828 -11.545  13.236  1.00  0.00     0.162 HD
HETATM    4  C6  UNL     1       2.553 -12.429  14.485  1.00  0.00     0.164 C 
HETATM    5  C7  UNL     1       2.199 -13.786  15.009  1.00  0.00     0.083 C 
HETATM    6  N3  UNL     1       0.950 -14.295  14.537  1.00  0.00    -0.332 N 
HETATM    7  C12 UNL     1      -0.043 -13.146  14.466  1.00  0.00     0.158 C 
HETATM    8  C13 UNL     1       0.378 -15.483  14.193  1.00  0.00     0.134 C 
HETATM    9  C14 UNL     1       0.583 -16.697  13.378  1.00  0.00     0.172 C 
HETATM   10  C16 UNL     1       1.673 -16.826  12.437  1.00  0.00     0.002 C 
HETATM   11  C17 UNL     1       1.577 -17.345  11.093  1.00  0.00    -0.035 C 
HETATM   12  C22 UNL     1       2.548 -16.661  10.117  1.00  0.00     0.250 C 
HETATM   13  N5  UNL     1       3.836 -16.413  10.701  1.00  0.00    -0.329 N 
ATOM     14  H5  UNL     1       4.119 -17.048  11.447  1.00  0.00     0.165 HD
HETATM   15  C23 UNL     1       4.754 -15.405  10.371  1.00  0.00     0.242 C 
HETATM   16  O5  UNL     1       5.939 -15.795  10.051  1.00  0.00    -0.271 OA
HETATM   17  C24 UNL     1       4.532 -13.937  10.346  1.00  0.00     0.171 C 
HETATM   18  C25 UNL     1       5.442 -13.376  11.396  1.00  0.00     0.042 C 
HETATM   19  N6  UNL     1       3.205 -13.489  10.265  1.00  0.00    -0.360 N 
ATOM     20  H6  UNL     1       2.839 -13.630   9.323  1.00  0.00     0.162 HD
HETATM   21  C26 UNL     1       2.250 -12.919  11.071  1.00  0.00     0.135 C 
ENDROOT
BRANCH   5  22
HETATM   22  C8  UNL     1       3.395 -14.581  15.235  1.00  0.00     0.007 C 
BRANCH  22  23
HETATM   23  C9  UNL     1       4.265 -15.119  14.218  1.00  0.00     0.031 C 
BRANCH  23  24
HETATM   24  C10 UNL     1       5.361 -16.054  14.638  1.00  0.00     0.031 C 
BRANCH  24  25
HETATM   25  C11 UNL     1       6.718 -15.682  14.082  1.00  0.00     0.230 C 
BRANCH  25  26
HETATM   26  N2  UNL     1       6.953 -16.533  12.932  1.00  0.00    -0.079 N 
ATOM     27  H23 UNL     1       6.966 -17.526  13.165  1.00  0.00     0.274 HD
ATOM     28  H22 UNL     1       6.165 -16.560  12.286  1.00  0.00     0.274 HD
ATOM     29  H21 UNL     1       7.818 -16.212  12.496  1.00  0.00     0.274 HD
ENDBRANCH  25  26
ENDBRANCH  24  25
ENDBRANCH  23  24
ENDBRANCH  22  23
ENDBRANCH   5  22
BRANCH   4  30
HETATM   30  O1  UNL     1       2.554 -11.550  15.458  1.00  0.00    -0.345 OA
ATOM     31  H1  UNL     1       3.023 -11.826  16.236  1.00  0.00     0.219 HD
ENDBRANCH   4  30
BRANCH   8  32
HETATM   32  O2  UNL     1      -0.821 -15.661  14.795  1.00  0.00    -0.348 OA
ATOM     33  H2  UNL     1      -1.323 -16.355  14.387  1.00  0.00     0.219 HD
ENDBRANCH   8  32
BRANCH   1  34
HETATM   34  C4  UNL     1       2.726 -10.575  11.144  1.00  0.00     0.037 C 
BRANCH  34  35
HETATM   35  C2  UNL     1       1.991 -10.159   9.960  1.00  0.00    -0.020 C 
HETATM   36  C1  UNL     1       2.521  -8.938   9.275  1.00  0.00     0.009 C 
HETATM   37  C3  UNL     1       0.484 -10.083  10.151  1.00  0.00     0.009 C 
ENDBRANCH  34  35
ENDBRANCH   1  34
BRANCH   9  38
HETATM   38  C15 UNL     1       0.461 -17.928  14.281  1.00  0.00     0.246 C 
HETATM   39  N4  UNL     1       1.632 -18.438  14.866  1.00  0.00    -0.061 NA
HETATM   40  O3  UNL     1      -0.669 -18.412  14.449  1.00  0.00    -0.276 OA
ENDBRANCH   9  38
BRANCH  21  41
HETATM   41  O6  UNL     1       1.097 -13.520  11.044  1.00  0.00    -0.348 OA
ATOM     42  H6  UNL     1       0.664 -13.495  11.888  1.00  0.00     0.219 HD
ENDBRANCH  21  41
BRANCH  11  43
HETATM   43  C18 UNL     1       0.357 -17.587  10.316  1.00  0.00     0.038 C 
BRANCH  43  44
HETATM   44  C19 UNL     1      -0.667 -18.567  10.757  1.00  0.00     0.006 C 
BRANCH  44  45
HETATM   45  C20 UNL     1       0.015 -19.898  11.120  1.00  0.00     0.015 C 
BRANCH  45  46
HETATM   46  C21 UNL     1      -1.037 -20.752  11.773  1.00  0.00     0.114 C 
HETATM   47 CL1  UNL     1      -2.656 -20.073  11.518  1.00  0.00    -0.130 Cl
ENDBRANCH  45  46
ENDBRANCH  44  45
ENDBRANCH  43  44
ENDBRANCH  11  43
BRANCH  12  48
HETATM   48  O4  UNL     1       2.746 -17.601   9.075  1.00  0.00    -0.373 OA
ATOM     49  H4  UNL     1       3.461 -18.152   9.371  1.00  0.00     0.212 HD
ENDBRANCH  12  48
TORSDOF 16
ENDMDL
