MODEL 1
REMARK VINA RESULT: -8.691348569      0.000      0.000
REMARK  12 active torsions:
REMARK  status: ('A' for Active; 'I' for Inactive)
REMARK    1  A    between atoms: N2_9  and  S1_10 
REMARK    2  A    between atoms: S1_10  and  N3_13 
REMARK    3  A    between atoms: N3_13  and  C7_15 
REMARK    4  A    between atoms: C7_15  and  C8_16 
REMARK    5  A    between atoms: C8_16  and  N4_17 
REMARK       I    between atoms: N4_17  and  C9_19 
REMARK    6  A    between atoms: C9_19  and  C10_21 
REMARK    7  A    between atoms: C10_21  and  N5_22 
REMARK    8  A    between atoms: C10_21  and  C11_26 
REMARK    9  A    between atoms: C11_26  and  C12_27 
REMARK   10  A    between atoms: C12_27  and  C13_28 
REMARK   11  A    between atoms: C13_28  and  N6_29 
REMARK       I    between atoms: C14_31  and  N8_33 
REMARK   12  A    between atoms: N8_33  and  C15_35 
ROOT
HETATM    1  C10 UNL     1       1.511 -10.469  10.997  1.00  0.00     0.274 C 
ENDROOT
BRANCH   1   2
HETATM    2  C9  UNL     1       1.415 -11.072  12.365  1.00  0.00     0.248 C 
HETATM    3  N4  UNL     1       2.556 -11.096  13.184  1.00  0.00    -0.358 N 
ATOM      4  H4  UNL     1       3.423 -10.699  12.824  1.00  0.00     0.162 HD
HETATM    5  O3  UNL     1       0.302 -11.536  12.727  1.00  0.00    -0.271 OA
BRANCH   3   6
HETATM    6  C8  UNL     1       2.552 -11.655  14.501  1.00  0.00     0.143 C 
BRANCH   6   7
HETATM    7  C7  UNL     1       2.976 -13.073  14.498  1.00  0.00     0.153 C 
BRANCH   7   8
HETATM    8  N3  UNL     1       2.240 -13.915  13.591  1.00  0.00    -0.300 N 
ATOM      9  H3  UNL     1       2.361 -13.868  12.579  1.00  0.00     0.173 HD
BRANCH   8  10
HETATM   10  S1  UNL     1       1.160 -14.984  14.326  1.00  0.00     0.337 S 
HETATM   11  O1  UNL     1      -0.071 -14.200  14.763  1.00  0.00    -0.181 OA
HETATM   12  O2  UNL     1       1.792 -15.425  15.643  1.00  0.00    -0.181 OA
BRANCH  10  13
HETATM   13  N2  UNL     1       0.732 -16.295  13.367  1.00  0.00    -0.170 N 
HETATM   14  C4  UNL     1       0.262 -16.036  12.059  1.00  0.00     0.127 C 
HETATM   15  N1  UNL     1      -0.466 -17.124  11.457  1.00  0.00    -0.379 N 
HETATM   16  C5  UNL     1      -0.717 -14.853  12.068  1.00  0.00     0.065 C 
HETATM   17  C6  UNL     1       1.439 -15.598  11.212  1.00  0.00     0.065 C 
HETATM   18  C2  UNL     1       0.130 -18.409  11.550  1.00  0.00     0.103 C 
ATOM     19  H1  UNL     1      -1.360 -16.979  10.990  1.00  0.00     0.157 HD
HETATM   20  C1  UNL     1      -0.953 -19.414  11.970  1.00  0.00     0.048 C 
HETATM   21  C3  UNL     1       0.703 -18.938  10.260  1.00  0.00     0.048 C 
HETATM   22  C25 UNL     1       1.186 -18.514  12.601  1.00  0.00     0.264 C 
HETATM   23  N9  UNL     1       1.458 -17.446  13.498  1.00  0.00    -0.253 N 
HETATM   24  O4  UNL     1       1.830 -19.585  12.663  1.00  0.00    -0.269 OA
ATOM     25  H9  UNL     1       2.174 -17.536  14.218  1.00  0.00     0.191 HD
ENDBRANCH  10  13
ENDBRANCH   8  10
ENDBRANCH   7   8
ENDBRANCH   6   7
ENDBRANCH   3   6
ENDBRANCH   1   2
BRANCH   1  26
HETATM   26  N5  UNL     1       0.343  -9.705  10.684  1.00  0.00    -0.067 N 
ATOM     27  H53 UNL     1      -0.269 -10.203  10.038  1.00  0.00     0.275 HD
ATOM     28  H52 UNL     1      -0.290  -9.643  11.482  1.00  0.00     0.275 HD
ATOM     29  H51 UNL     1       0.589  -8.781  10.328  1.00  0.00     0.275 HD
ENDBRANCH   1  26
BRANCH   1  30
HETATM   30  C11 UNL     1       2.789  -9.665  10.954  1.00  0.00     0.044 C 
BRANCH  30  31
HETATM   31  C12 UNL     1       3.753 -10.163   9.902  1.00  0.00     0.022 C 
BRANCH  31  32
HETATM   32  C13 UNL     1       4.309 -11.505  10.337  1.00  0.00     0.122 C 
BRANCH  32  33
HETATM   33  N6  UNL     1       5.229 -11.982   9.355  1.00  0.00    -0.365 N 
HETATM   34  C14 UNL     1       5.845 -13.097   9.343  1.00  0.00     0.184 C 
HETATM   35  N7  UNL     1       6.724 -13.404   8.286  1.00  0.00    -0.064 NA
HETATM   36  N8  UNL     1       5.649 -14.027  10.385  1.00  0.00    -0.355 N 
ATOM     37  H8  UNL     1       4.726 -14.455  10.467  1.00  0.00     0.163 HD
ATOM     38  H6  UNL     1       5.415 -11.357   8.571  1.00  0.00     0.162 HD
BRANCH  36  39
HETATM   39  C15 UNL     1       6.650 -14.421  11.340  1.00  0.00     0.036 C 
HETATM   40  C16 UNL     1       7.466 -15.551  10.746  1.00  0.00     0.036 C 
HETATM   41  C17 UNL     1       8.424 -16.083  11.803  1.00  0.00    -0.009 C 
HETATM   42  C18 UNL     1       9.387 -14.983  12.163  1.00  0.00     0.009 C 
HETATM   43  C22 UNL     1       7.631 -16.573  12.972  1.00  0.00     0.048 C 
HETATM   44  C19 UNL     1       8.587 -13.833  12.710  1.00  0.00    -0.009 C 
HETATM   45  C20 UNL     1       7.917 -14.293  13.971  1.00  0.00     0.048 C 
HETATM   46  C24 UNL     1       7.634 -13.321  11.675  1.00  0.00     0.036 C 
HETATM   47  C21 UNL     1       6.942 -15.385  13.611  1.00  0.00     0.106 C 
HETATM   48  F1  UNL     1       6.257 -15.753  14.743  1.00  0.00    -0.243 F 
HETATM   49  C23 UNL     1       5.969 -14.833  12.618  1.00  0.00     0.074 C 
ENDBRANCH  36  39
ENDBRANCH  32  33
ENDBRANCH  31  32
ENDBRANCH  30  31
ENDBRANCH   1  30
TORSDOF 12
ENDMDL
MODEL 2
REMARK VINA RESULT: -8.647130776      1.716      2.320
REMARK  12 active torsions:
REMARK  status: ('A' for Active; 'I' for Inactive)
REMARK    1  A    between atoms: N2_9  and  S1_10 
REMARK    2  A    between atoms: S1_10  and  N3_13 
REMARK    3  A    between atoms: N3_13  and  C7_15 
REMARK    4  A    between atoms: C7_15  and  C8_16 
REMARK    5  A    between atoms: C8_16  and  N4_17 
REMARK       I    between atoms: N4_17  and  C9_19 
REMARK    6  A    between atoms: C9_19  and  C10_21 
REMARK    7  A    between atoms: C10_21  and  N5_22 
REMARK    8  A    between atoms: C10_21  and  C11_26 
REMARK    9  A    between atoms: C11_26  and  C12_27 
REMARK   10  A    between atoms: C12_27  and  C13_28 
REMARK   11  A    between atoms: C13_28  and  N6_29 
REMARK       I    between atoms: C14_31  and  N8_33 
REMARK   12  A    between atoms: N8_33  and  C15_35 
ROOT
HETATM    1  C10 UNL     1       1.631  -8.799   9.255  1.00  0.00     0.274 C 
ENDROOT
BRANCH   1   2
HETATM    2  C9  UNL     1       1.010  -9.928  10.019  1.00  0.00     0.248 C 
HETATM    3  N4  UNL     1       0.381  -9.661  11.246  1.00  0.00    -0.358 N 
ATOM      4  H4  UNL     1       0.361  -8.700  11.585  1.00  0.00     0.162 HD
HETATM    5  O3  UNL     1       1.079 -11.083   9.522  1.00  0.00    -0.271 OA
BRANCH   3   6
HETATM    6  C8  UNL     1      -0.234 -10.681  12.039  1.00  0.00     0.143 C 
BRANCH   6   7
HETATM    7  C7  UNL     1       0.722 -11.283  12.997  1.00  0.00     0.153 C 
BRANCH   7   8
HETATM    8  N3  UNL     1       1.438 -12.424  12.490  1.00  0.00    -0.300 N 
ATOM      9  H3  UNL     1       1.699 -12.515  11.508  1.00  0.00     0.173 HD
BRANCH   8  10
HETATM   10  S1  UNL     1       1.814 -13.600  13.641  1.00  0.00     0.337 S 
HETATM   11  O1  UNL     1       1.219 -13.173  14.977  1.00  0.00    -0.181 OA
HETATM   12  O2  UNL     1       3.319 -13.530  13.878  1.00  0.00    -0.181 OA
BRANCH  10  13
HETATM   13  N2  UNL     1       1.317 -15.150  13.226  1.00  0.00    -0.170 N 
HETATM   14  C4  UNL     1      -0.072 -15.402  13.141  1.00  0.00     0.127 C 
HETATM   15  N1  UNL     1      -0.434 -16.795  13.200  1.00  0.00    -0.379 N 
HETATM   16  C5  UNL     1      -0.807 -14.745  14.320  1.00  0.00     0.065 C 
HETATM   17  C6  UNL     1      -0.600 -14.727  11.892  1.00  0.00     0.065 C 
HETATM   18  C2  UNL     1       0.305 -17.675  12.365  1.00  0.00     0.103 C 
ATOM     19  H1  UNL     1      -1.180 -17.132  13.808  1.00  0.00     0.157 HD
HETATM   20  C1  UNL     1       0.696 -18.910  13.191  1.00  0.00     0.048 C 
HETATM   21  C3  UNL     1      -0.449 -18.200  11.171  1.00  0.00     0.048 C 
HETATM   22  C25 UNL     1       1.599 -17.106  11.881  1.00  0.00     0.264 C 
HETATM   23  N9  UNL     1       2.081 -15.849  12.334  1.00  0.00    -0.253 N 
HETATM   24  O4  UNL     1       2.249 -17.783  11.052  1.00  0.00    -0.269 OA
ATOM     25  H9  UNL     1       2.972 -15.479  12.003  1.00  0.00     0.191 HD
ENDBRANCH  10  13
ENDBRANCH   8  10
ENDBRANCH   7   8
ENDBRANCH   6   7
ENDBRANCH   3   6
ENDBRANCH   1   2
BRANCH   1  26
HETATM   26  N5  UNL     1       1.506  -7.563   9.966  1.00  0.00    -0.067 N 
ATOM     27  H53 UNL     1       0.611  -7.497  10.450  1.00  0.00     0.275 HD
ATOM     28  H52 UNL     1       2.125  -7.532  10.776  1.00  0.00     0.275 HD
ATOM     29  H51 UNL     1       1.658  -6.765   9.349  1.00  0.00     0.275 HD
ENDBRANCH   1  26
BRANCH   1  30
HETATM   30  C11 UNL     1       3.060  -9.189   8.967  1.00  0.00     0.044 C 
BRANCH  30  31
HETATM   31  C12 UNL     1       3.794  -9.661  10.200  1.00  0.00     0.022 C 
BRANCH  31  32
HETATM   32  C13 UNL     1       4.698 -10.819   9.825  1.00  0.00     0.122 C 
BRANCH  32  33
HETATM   33  N6  UNL     1       3.922 -12.012   9.707  1.00  0.00    -0.365 N 
HETATM   34  C14 UNL     1       4.005 -13.068  10.415  1.00  0.00     0.184 C 
HETATM   35  N7  UNL     1       3.153 -14.159  10.155  1.00  0.00    -0.064 NA
HETATM   36  N8  UNL     1       4.947 -13.147  11.463  1.00  0.00    -0.355 N 
ATOM     37  H8  UNL     1       4.812 -12.530  12.264  1.00  0.00     0.163 HD
ATOM     38  H6  UNL     1       3.219 -12.021   8.967  1.00  0.00     0.162 HD
BRANCH  36  39
HETATM   39  C15 UNL     1       6.082 -14.030  11.487  1.00  0.00     0.036 C 
HETATM   40  C16 UNL     1       5.633 -15.377  12.016  1.00  0.00     0.036 C 
HETATM   41  C17 UNL     1       6.851 -16.272  12.197  1.00  0.00    -0.009 C 
HETATM   42  C18 UNL     1       7.466 -16.511  10.844  1.00  0.00     0.009 C 
HETATM   43  C22 UNL     1       7.791 -15.622  13.161  1.00  0.00     0.048 C 
HETATM   44  C19 UNL     1       7.874 -15.177  10.284  1.00  0.00    -0.009 C 
HETATM   45  C20 UNL     1       8.931 -14.601  11.178  1.00  0.00     0.048 C 
HETATM   46  C24 UNL     1       6.678 -14.291  10.120  1.00  0.00     0.036 C 
HETATM   47  C21 UNL     1       8.314 -14.349  12.530  1.00  0.00     0.106 C 
HETATM   48  F1  UNL     1       9.247 -13.739  13.332  1.00  0.00    -0.243 F 
HETATM   49  C23 UNL     1       7.157 -13.420  12.347  1.00  0.00     0.074 C 
ENDBRANCH  36  39
ENDBRANCH  32  33
ENDBRANCH  31  32
ENDBRANCH  30  31
ENDBRANCH   1  30
TORSDOF 12
ENDMDL
MODEL 3
REMARK VINA RESULT: -8.636731863      0.759      1.383
REMARK  12 active torsions:
REMARK  status: ('A' for Active; 'I' for Inactive)
REMARK    1  A    between atoms: N2_9  and  S1_10 
REMARK    2  A    between atoms: S1_10  and  N3_13 
REMARK    3  A    between atoms: N3_13  and  C7_15 
REMARK    4  A    between atoms: C7_15  and  C8_16 
REMARK    5  A    between atoms: C8_16  and  N4_17 
REMARK       I    between atoms: N4_17  and  C9_19 
REMARK    6  A    between atoms: C9_19  and  C10_21 
REMARK    7  A    between atoms: C10_21  and  N5_22 
REMARK    8  A    between atoms: C10_21  and  C11_26 
REMARK    9  A    between atoms: C11_26  and  C12_27 
REMARK   10  A    between atoms: C12_27  and  C13_28 
REMARK   11  A    between atoms: C13_28  and  N6_29 
REMARK       I    between atoms: C14_31  and  N8_33 
REMARK   12  A    between atoms: N8_33  and  C15_35 
ROOT
HETATM    1  C10 UNL     1       1.517 -10.453  10.996  1.00  0.00     0.274 C 
ENDROOT
BRANCH   1   2
HETATM    2  C9  UNL     1       1.400 -11.044  12.367  1.00  0.00     0.248 C 
HETATM    3  N4  UNL     1       2.530 -11.067  13.201  1.00  0.00    -0.358 N 
ATOM      4  H4  UNL     1       3.404 -10.677  12.850  1.00  0.00     0.162 HD
HETATM    5  O3  UNL     1       0.280 -11.500  12.719  1.00  0.00    -0.271 OA
BRANCH   3   6
HETATM    6  C8  UNL     1       2.507 -11.615  14.523  1.00  0.00     0.143 C 
BRANCH   6   7
HETATM    7  C7  UNL     1       2.917 -13.037  14.536  1.00  0.00     0.153 C 
BRANCH   7   8
HETATM    8  N3  UNL     1       2.197 -13.875  13.613  1.00  0.00    -0.300 N 
ATOM      9  H3  UNL     1       2.329 -13.819  12.603  1.00  0.00     0.173 HD
BRANCH   8  10
HETATM   10  S1  UNL     1       1.118 -14.960  14.326  1.00  0.00     0.337 S 
HETATM   11  O1  UNL     1      -0.121 -14.188  14.762  1.00  0.00    -0.181 OA
HETATM   12  O2  UNL     1       1.741 -15.412  15.643  1.00  0.00    -0.181 OA
BRANCH  10  13
HETATM   13  N2  UNL     1       0.706 -16.262  13.348  1.00  0.00    -0.170 N 
HETATM   14  C4  UNL     1       0.239 -15.990  12.041  1.00  0.00     0.127 C 
HETATM   15  N1  UNL     1      -0.476 -17.077  11.422  1.00  0.00    -0.379 N 
HETATM   16  C5  UNL     1      -0.752 -14.816  12.063  1.00  0.00     0.065 C 
HETATM   17  C6  UNL     1       1.415 -15.530  11.205  1.00  0.00     0.065 C 
HETATM   18  C2  UNL     1       0.131 -18.357  11.500  1.00  0.00     0.103 C 
ATOM     19  H1  UNL     1      -1.370 -16.934  10.953  1.00  0.00     0.157 HD
HETATM   20  C1  UNL     1      -0.944 -19.378  11.903  1.00  0.00     0.048 C 
HETATM   21  C3  UNL     1       0.714 -18.863  10.206  1.00  0.00     0.048 C 
HETATM   22  C25 UNL     1       1.184 -18.466  12.555  1.00  0.00     0.264 C 
HETATM   23  N9  UNL     1       1.442 -17.408  13.467  1.00  0.00    -0.253 N 
HETATM   24  O4  UNL     1       1.838 -19.532  12.605  1.00  0.00    -0.269 OA
ATOM     25  H9  UNL     1       2.156 -17.501  14.188  1.00  0.00     0.191 HD
ENDBRANCH  10  13
ENDBRANCH   8  10
ENDBRANCH   7   8
ENDBRANCH   6   7
ENDBRANCH   3   6
ENDBRANCH   1   2
BRANCH   1  26
HETATM   26  N5  UNL     1       0.351  -9.697  10.656  1.00  0.00    -0.067 N 
ATOM     27  H53 UNL     1      -0.253 -10.207  10.012  1.00  0.00     0.275 HD
ATOM     28  H52 UNL     1      -0.291  -9.622  11.446  1.00  0.00     0.275 HD
ATOM     29  H51 UNL     1       0.600  -8.779  10.288  1.00  0.00     0.275 HD
ENDBRANCH   1  26
BRANCH   1  30
HETATM   30  C11 UNL     1       2.792  -9.644  10.967  1.00  0.00     0.044 C 
BRANCH  30  31
HETATM   31  C12 UNL     1       3.772 -10.143   9.931  1.00  0.00     0.022 C 
BRANCH  31  32
HETATM   32  C13 UNL     1       4.276 -11.512  10.345  1.00  0.00     0.122 C 
BRANCH  32  33
HETATM   33  N6  UNL     1       5.215 -11.988   9.381  1.00  0.00    -0.365 N 
HETATM   34  C14 UNL     1       5.821 -13.108   9.372  1.00  0.00     0.184 C 
HETATM   35  N7  UNL     1       6.722 -13.413   8.333  1.00  0.00    -0.064 NA
HETATM   36  N8  UNL     1       5.590 -14.047  10.399  1.00  0.00    -0.355 N 
ATOM     37  H8  UNL     1       4.662 -14.467  10.454  1.00  0.00     0.163 HD
ATOM     38  H6  UNL     1       5.426 -11.356   8.608  1.00  0.00     0.162 HD
BRANCH  36  39
HETATM   39  C15 UNL     1       6.564 -14.460  11.374  1.00  0.00     0.036 C 
HETATM   40  C16 UNL     1       7.477 -13.288  11.669  1.00  0.00     0.036 C 
HETATM   41  C17 UNL     1       8.607 -13.752  12.578  1.00  0.00    -0.009 C 
HETATM   42  C18 UNL     1       8.008 -14.189  13.889  1.00  0.00     0.009 C 
HETATM   43  C22 UNL     1       9.365 -14.841  11.888  1.00  0.00     0.048 C 
HETATM   44  C19 UNL     1       7.062 -15.323  13.606  1.00  0.00    -0.009 C 
HETATM   45  C20 UNL     1       7.860 -16.467  13.057  1.00  0.00     0.048 C 
HETATM   46  C24 UNL     1       5.960 -14.869  12.700  1.00  0.00     0.036 C 
HETATM   47  C21 UNL     1       8.449 -16.037  11.737  1.00  0.00     0.106 C 
HETATM   48  F1  UNL     1       9.108 -17.105  11.181  1.00  0.00    -0.243 F 
HETATM   49  C23 UNL     1       7.326 -15.641  10.833  1.00  0.00     0.074 C 
ENDBRANCH  36  39
ENDBRANCH  32  33
ENDBRANCH  31  32
ENDBRANCH  30  31
ENDBRANCH   1  30
TORSDOF 12
ENDMDL
MODEL 4
REMARK VINA RESULT: -8.425069120      3.970      7.772
REMARK  12 active torsions:
REMARK  status: ('A' for Active; 'I' for Inactive)
REMARK    1  A    between atoms: N2_9  and  S1_10 
REMARK    2  A    between atoms: S1_10  and  N3_13 
REMARK    3  A    between atoms: N3_13  and  C7_15 
REMARK    4  A    between atoms: C7_15  and  C8_16 
REMARK    5  A    between atoms: C8_16  and  N4_17 
REMARK       I    between atoms: N4_17  and  C9_19 
REMARK    6  A    between atoms: C9_19  and  C10_21 
REMARK    7  A    between atoms: C10_21  and  N5_22 
REMARK    8  A    between atoms: C10_21  and  C11_26 
REMARK    9  A    between atoms: C11_26  and  C12_27 
REMARK   10  A    between atoms: C12_27  and  C13_28 
REMARK   11  A    between atoms: C13_28  and  N6_29 
REMARK       I    between atoms: C14_31  and  N8_33 
REMARK   12  A    between atoms: N8_33  and  C15_35 
ROOT
HETATM    1  C10 UNL     1       0.082 -14.371  13.263  1.00  0.00     0.274 C 
ENDROOT
BRANCH   1   2
HETATM    2  C9  UNL     1       0.646 -12.993  13.100  1.00  0.00     0.248 C 
HETATM    3  N4  UNL     1      -0.117 -12.016  12.440  1.00  0.00    -0.358 N 
ATOM      4  H4  UNL     1      -1.040 -12.271  12.090  1.00  0.00     0.162 HD
HETATM    5  O3  UNL     1       1.793 -12.766  13.567  1.00  0.00    -0.271 OA
BRANCH   3   6
HETATM    6  C8  UNL     1       0.346 -10.677  12.238  1.00  0.00     0.143 C 
BRANCH   6   7
HETATM    7  C7  UNL     1       1.066 -10.532  10.953  1.00  0.00     0.153 C 
BRANCH   7   8
HETATM    8  N3  UNL     1       0.508  -9.546  10.064  1.00  0.00    -0.300 N 
ATOM      9  H3  UNL     1      -0.485  -9.514   9.835  1.00  0.00     0.173 HD
BRANCH   8  10
HETATM   10  S1  UNL     1       1.621  -8.448   9.427  1.00  0.00     0.337 S 
HETATM   11  O1  UNL     1       2.990  -9.117   9.389  1.00  0.00    -0.181 OA
HETATM   12  O2  UNL     1       1.793  -7.336  10.458  1.00  0.00    -0.181 OA
BRANCH  10  13
HETATM   13  N2  UNL     1       1.202  -7.842   7.918  1.00  0.00    -0.170 N 
HETATM   14  C4  UNL     1       1.218  -6.439   7.738  1.00  0.00     0.127 C 
HETATM   15  N1  UNL     1       0.468  -5.973   6.599  1.00  0.00    -0.379 N 
HETATM   16  C5  UNL     1       0.587  -5.739   8.950  1.00  0.00     0.065 C 
HETATM   17  C6  UNL     1       2.662  -5.984   7.696  1.00  0.00     0.065 C 
HETATM   18  C2  UNL     1       0.690  -6.657   5.375  1.00  0.00     0.103 C 
ATOM     19  H1  UNL     1      -0.187  -5.195   6.669  1.00  0.00     0.157 HD
HETATM   20  C1  UNL     1      -0.674  -6.940   4.726  1.00  0.00     0.048 C 
HETATM   21  C3  UNL     1       1.479  -5.883   4.350  1.00  0.00     0.048 C 
HETATM   22  C25 UNL     1       1.329  -7.997   5.536  1.00  0.00     0.264 C 
HETATM   23  N9  UNL     1       1.565  -8.565   6.816  1.00  0.00    -0.253 N 
HETATM   24  O4  UNL     1       1.655  -8.607   4.492  1.00  0.00    -0.269 OA
ATOM     25  H9  UNL     1       1.992  -9.486   6.910  1.00  0.00     0.191 HD
ENDBRANCH  10  13
ENDBRANCH   8  10
ENDBRANCH   7   8
ENDBRANCH   6   7
ENDBRANCH   3   6
ENDBRANCH   1   2
BRANCH   1  26
HETATM   26  N5  UNL     1      -0.918 -14.404  14.286  1.00  0.00    -0.067 N 
ATOM     27  H53 UNL     1      -0.614 -13.911  15.125  1.00  0.00     0.275 HD
ATOM     28  H52 UNL     1      -1.721 -13.822  14.044  1.00  0.00     0.275 HD
ATOM     29  H51 UNL     1      -1.200 -15.362  14.497  1.00  0.00     0.275 HD
ENDBRANCH   1  26
BRANCH   1  30
HETATM   30  C11 UNL     1      -0.422 -14.810  11.910  1.00  0.00     0.044 C 
BRANCH  30  31
HETATM   31  C12 UNL     1       0.022 -16.208  11.549  1.00  0.00     0.022 C 
BRANCH  31  32
HETATM   32  C13 UNL     1       1.417 -16.147  10.960  1.00  0.00     0.122 C 
BRANCH  32  33
HETATM   33  N6  UNL     1       2.359 -16.649  11.908  1.00  0.00    -0.365 N 
HETATM   34  C14 UNL     1       3.366 -16.043  12.400  1.00  0.00     0.184 C 
HETATM   35  N7  UNL     1       4.195 -16.698  13.332  1.00  0.00    -0.064 NA
HETATM   36  N8  UNL     1       3.652 -14.716  12.018  1.00  0.00    -0.355 N 
ATOM     37  H8  UNL     1       2.988 -13.992  12.295  1.00  0.00     0.163 HD
ATOM     38  H6  UNL     1       2.209 -17.606  12.229  1.00  0.00     0.162 HD
BRANCH  36  39
HETATM   39  C15 UNL     1       4.808 -14.305  11.268  1.00  0.00     0.036 C 
HETATM   40  C16 UNL     1       5.972 -14.145  12.224  1.00  0.00     0.036 C 
HETATM   41  C17 UNL     1       7.159 -13.559  11.473  1.00  0.00    -0.009 C 
HETATM   42  C18 UNL     1       7.585 -14.547  10.419  1.00  0.00     0.009 C 
HETATM   43  C22 UNL     1       6.766 -12.232  10.907  1.00  0.00     0.048 C 
HETATM   44  C19 UNL     1       6.422 -14.753   9.487  1.00  0.00    -0.009 C 
HETATM   45  C20 UNL     1       6.135 -13.447   8.809  1.00  0.00     0.048 C 
HETATM   46  C24 UNL     1       5.251 -15.315  10.231  1.00  0.00     0.036 C 
HETATM   47  C21 UNL     1       5.695 -12.460   9.860  1.00  0.00     0.106 C 
HETATM   48  F1  UNL     1       5.343 -11.286   9.241  1.00  0.00    -0.243 F 
HETATM   49  C23 UNL     1       4.493 -13.019  10.550  1.00  0.00     0.074 C 
ENDBRANCH  36  39
ENDBRANCH  32  33
ENDBRANCH  31  32
ENDBRANCH  30  31
ENDBRANCH   1  30
TORSDOF 12
ENDMDL
MODEL 5
REMARK VINA RESULT: -8.416028754      1.494      2.041
REMARK  12 active torsions:
REMARK  status: ('A' for Active; 'I' for Inactive)
REMARK    1  A    between atoms: N2_9  and  S1_10 
REMARK    2  A    between atoms: S1_10  and  N3_13 
REMARK    3  A    between atoms: N3_13  and  C7_15 
REMARK    4  A    between atoms: C7_15  and  C8_16 
REMARK    5  A    between atoms: C8_16  and  N4_17 
REMARK       I    between atoms: N4_17  and  C9_19 
REMARK    6  A    between atoms: C9_19  and  C10_21 
REMARK    7  A    between atoms: C10_21  and  N5_22 
REMARK    8  A    between atoms: C10_21  and  C11_26 
REMARK    9  A    between atoms: C11_26  and  C12_27 
REMARK   10  A    between atoms: C12_27  and  C13_28 
REMARK   11  A    between atoms: C13_28  and  N6_29 
REMARK       I    between atoms: C14_31  and  N8_33 
REMARK   12  A    between atoms: N8_33  and  C15_35 
ROOT
HETATM    1  C10 UNL     1       2.368 -11.264  10.448  1.00  0.00     0.274 C 
ENDROOT
BRANCH   1   2
HETATM    2  C9  UNL     1       2.032 -11.165  11.905  1.00  0.00     0.248 C 
HETATM    3  N4  UNL     1       2.997 -11.533  12.857  1.00  0.00    -0.358 N 
ATOM      4  H4  UNL     1       3.906 -11.858  12.530  1.00  0.00     0.162 HD
HETATM    5  O3  UNL     1       0.885 -10.750  12.218  1.00  0.00    -0.271 OA
BRANCH   3   6
HETATM    6  C8  UNL     1       2.757 -11.472  14.266  1.00  0.00     0.143 C 
BRANCH   6   7
HETATM    7  C7  UNL     1       2.310 -12.776  14.805  1.00  0.00     0.153 C 
BRANCH   7   8
HETATM    8  N3  UNL     1       1.280 -13.420  14.032  1.00  0.00    -0.300 N 
ATOM      9  H3  UNL     1       0.780 -12.945  13.281  1.00  0.00     0.173 HD
BRANCH   8  10
HETATM   10  S1  UNL     1       0.961 -15.021  14.462  1.00  0.00     0.337 S 
HETATM   11  O1  UNL     1      -0.418 -15.081  15.106  1.00  0.00    -0.181 OA
HETATM   12  O2  UNL     1       1.907 -15.375  15.605  1.00  0.00    -0.181 OA
BRANCH  10  13
HETATM   13  N2  UNL     1       1.082 -16.111  13.190  1.00  0.00    -0.170 N 
HETATM   14  C4  UNL     1       2.280 -16.851  13.061  1.00  0.00     0.127 C 
HETATM   15  N1  UNL     1       2.488 -17.432  11.759  1.00  0.00    -0.379 N 
HETATM   16  C5  UNL     1       3.496 -15.942  13.295  1.00  0.00     0.065 C 
HETATM   17  C6  UNL     1       2.316 -17.889  14.163  1.00  0.00     0.065 C 
HETATM   18  C2  UNL     1       1.386 -18.127  11.195  1.00  0.00     0.103 C 
ATOM     19  H1  UNL     1       3.379 -17.350  11.270  1.00  0.00     0.157 HD
HETATM   20  C1  UNL     1       1.243 -17.694   9.728  1.00  0.00     0.048 C 
HETATM   21  C3  UNL     1       1.527 -19.627  11.170  1.00  0.00     0.048 C 
HETATM   22  C25 UNL     1       0.073 -17.796  11.827  1.00  0.00     0.264 C 
HETATM   23  N9  UNL     1      -0.048 -16.781  12.813  1.00  0.00    -0.253 N 
HETATM   24  O4  UNL     1      -0.925 -18.453  11.455  1.00  0.00    -0.269 OA
ATOM     25  H9  UNL     1      -0.953 -16.559  13.227  1.00  0.00     0.191 HD
ENDBRANCH  10  13
ENDBRANCH   8  10
ENDBRANCH   7   8
ENDBRANCH   6   7
ENDBRANCH   3   6
ENDBRANCH   1   2
BRANCH   1  26
HETATM   26  N5  UNL     1       2.909 -10.035   9.956  1.00  0.00    -0.067 N 
ATOM     27  H53 UNL     1       2.365  -9.672   9.173  1.00  0.00     0.275 HD
ATOM     28  H52 UNL     1       2.763  -9.270  10.616  1.00  0.00     0.275 HD
ATOM     29  H51 UNL     1       3.894 -10.135   9.713  1.00  0.00     0.275 HD
ENDBRANCH   1  26
BRANCH   1  30
HETATM   30  C11 UNL     1       3.299 -12.442  10.286  1.00  0.00     0.044 C 
BRANCH  30  31
HETATM   31  C12 UNL     1       2.561 -13.735  10.029  1.00  0.00     0.022 C 
BRANCH  31  32
HETATM   32  C13 UNL     1       3.504 -14.720   9.366  1.00  0.00     0.122 C 
BRANCH  32  33
HETATM   33  N6  UNL     1       4.601 -14.014   8.785  1.00  0.00    -0.365 N 
HETATM   34  C14 UNL     1       5.844 -14.205   8.988  1.00  0.00     0.184 C 
HETATM   35  N7  UNL     1       6.796 -13.408   8.323  1.00  0.00    -0.064 NA
HETATM   36  N8  UNL     1       6.271 -15.215   9.875  1.00  0.00    -0.355 N 
ATOM     37  H8  UNL     1       6.090 -16.183   9.609  1.00  0.00     0.163 HD
ATOM     38  H6  UNL     1       4.361 -13.270   8.130  1.00  0.00     0.162 HD
BRANCH  36  39
HETATM   39  C15 UNL     1       6.941 -14.984  11.127  1.00  0.00     0.036 C 
HETATM   40  C16 UNL     1       8.374 -14.585  10.840  1.00  0.00     0.036 C 
HETATM   41  C17 UNL     1       9.139 -14.492  12.153  1.00  0.00    -0.009 C 
HETATM   42  C18 UNL     1       8.528 -13.389  12.976  1.00  0.00     0.009 C 
HETATM   43  C22 UNL     1       9.096 -15.823  12.833  1.00  0.00     0.048 C 
HETATM   44  C19 UNL     1       7.090 -13.748  13.230  1.00  0.00    -0.009 C 
HETATM   45  C20 UNL     1       7.063 -15.005  14.047  1.00  0.00     0.048 C 
HETATM   46  C24 UNL     1       6.343 -13.854  11.937  1.00  0.00     0.036 C 
HETATM   47  C21 UNL     1       7.661 -16.114  13.219  1.00  0.00     0.106 C 
HETATM   48  F1  UNL     1       7.561 -17.290  13.921  1.00  0.00    -0.243 F 
HETATM   49  C23 UNL     1       6.865 -16.237  11.959  1.00  0.00     0.074 C 
ENDBRANCH  36  39
ENDBRANCH  32  33
ENDBRANCH  31  32
ENDBRANCH  30  31
ENDBRANCH   1  30
TORSDOF 12
ENDMDL
