MODEL 1
REMARK VINA RESULT: -8.465196645      0.000      0.000
REMARK  15 active torsions:
REMARK  status: ('A' for Active; 'I' for Inactive)
REMARK    1  A    between atoms: C2_2  and  C3_3 
REMARK    2  A    between atoms: C2_2  and  N4_10 
REMARK    3  A    between atoms: C3_3  and  C4_4 
REMARK    4  A    between atoms: C4_4  and  N1_5 
REMARK       I    between atoms: N1_5  and  C5_7 
REMARK    5  A    between atoms: N4_10  and  C6_12 
REMARK    6  A    between atoms: C6_12  and  N5_13 
REMARK    7  A    between atoms: C6_12  and  C16_32 
REMARK       I    between atoms: N5_13  and  C7_15 
REMARK    8  A    between atoms: C7_15  and  C8_17 
REMARK    9  A    between atoms: C8_17  and  C9_18 
REMARK   10  A    between atoms: C16_32  and  N8_33 
REMARK   11  A    between atoms: C16_32  and  C17_37 
REMARK   12  A    between atoms: C17_37  and  C18_38 
REMARK   13  A    between atoms: C18_38  and  C19_39 
REMARK   14  A    between atoms: C19_39  and  C20_40 
REMARK   15  A    between atoms: C20_40  and  N9_41 
ROOT
HETATM    1  C6  UNL     1       2.173 -10.409   9.960  1.00  0.00     0.114 C 
ENDROOT
BRANCH   1   2
HETATM    2  N4  UNL     1       1.487 -11.634  10.137  1.00  0.00    -0.352 N 
ATOM      3  H4  UNL     1       1.590 -12.321   9.391  1.00  0.00     0.166 HD
BRANCH   2   4
HETATM    4  C2  UNL     1       0.759 -11.974  11.117  1.00  0.00    -0.014 C 
HETATM    5  C1  UNL     1      -0.007 -11.024  11.924  1.00  0.00     0.063 C 
BRANCH   4   6
HETATM    6  C3  UNL     1       0.700 -13.427  11.442  1.00  0.00     0.071 C 
BRANCH   6   7
HETATM    7  C4  UNL     1      -0.716 -13.828  11.808  1.00  0.00     0.127 C 
BRANCH   7   8
HETATM    8  N1  UNL     1      -0.785 -14.848  12.792  1.00  0.00    -0.367 N 
HETATM    9  C5  UNL     1      -0.701 -14.763  14.051  1.00  0.00     0.196 C 
HETATM   10  N2  UNL     1      -0.505 -13.490  14.654  1.00  0.00    -0.067 NA
HETATM   11  N3  UNL     1      -0.802 -15.936  14.869  1.00  0.00    -0.067 NA
ATOM     12  H1  UNL     1      -0.924 -15.791  12.431  1.00  0.00     0.161 HD
ENDBRANCH   7   8
ENDBRANCH   6   7
ENDBRANCH   4   6
ENDBRANCH   2   4
ENDBRANCH   1   2
BRANCH   1  13
HETATM   13  N5  UNL     1       3.438 -10.355  10.062  1.00  0.00    -0.315 N 
HETATM   14  C7  UNL     1       4.448 -11.283   9.984  1.00  0.00     0.227 C 
HETATM   15  O1  UNL     1       5.610 -10.917   9.552  1.00  0.00    -0.273 OA
ATOM     16  H5  UNL     1       3.780  -9.411  10.243  1.00  0.00     0.170 HD
BRANCH  14  17
HETATM   17  C8  UNL     1       4.326 -12.708  10.363  1.00  0.00     0.146 C 
BRANCH  17  18
HETATM   18  C9  UNL     1       5.306 -13.105  11.405  1.00  0.00     0.012 A 
HETATM   19  C10 UNL     1       5.112 -12.960  12.758  1.00  0.00     0.132 A 
HETATM   20 BR1  UNL     1       3.552 -12.213  13.608  1.00  0.00    -0.022 Br
HETATM   21  O2  UNL     1       6.182 -13.424  13.354  1.00  0.00    -0.285 OA
HETATM   22  C11 UNL     1       7.072 -13.865  12.492  1.00  0.00     0.166 A 
HETATM   23  N6  UNL     1       8.292 -14.417  12.634  1.00  0.00    -0.326 N 
HETATM   24  C15 UNL     1       6.525 -13.668  11.222  1.00  0.00     0.093 A 
HETATM   25  C12 UNL     1       9.025 -14.796  11.575  1.00  0.00     0.081 A 
ATOM     26  H6  UNL     1       8.669 -14.551  13.572  1.00  0.00     0.169 HD
HETATM   27  C13 UNL     1      10.384 -15.410  11.770  1.00  0.00     0.089 C 
HETATM   28  N7  UNL     1       8.512 -14.611  10.350  1.00  0.00    -0.312 N 
HETATM   29  C14 UNL     1       7.301 -14.066  10.149  1.00  0.00     0.262 A 
ATOM     30  H7  UNL     1       9.062 -14.896   9.540  1.00  0.00     0.170 HD
HETATM   31  O3  UNL     1       6.825 -13.897   8.996  1.00  0.00    -0.267 OA
ENDBRANCH  17  18
ENDBRANCH  14  17
ENDBRANCH   1  13
BRANCH   1  32
HETATM   32  C16 UNL     1       1.474  -9.142   9.641  1.00  0.00     0.250 C 
BRANCH  32  33
HETATM   33  N8  UNL     1       1.864  -8.172  10.690  1.00  0.00    -0.068 N 
ATOM     34  H83 UNL     1       2.604  -8.516  11.302  1.00  0.00     0.275 HD
ATOM     35  H82 UNL     1       2.367  -7.363  10.325  1.00  0.00     0.275 HD
ATOM     36  H81 UNL     1       1.009  -7.926  11.188  1.00  0.00     0.275 HD
ENDBRANCH  32  33
BRANCH  32  37
HETATM   37  C17 UNL     1       2.021  -8.584   8.321  1.00  0.00     0.041 C 
BRANCH  37  38
HETATM   38  C18 UNL     1       1.103  -8.690   7.173  1.00  0.00     0.004 C 
BRANCH  38  39
HETATM   39  C19 UNL     1       1.032  -7.490   6.314  1.00  0.00     0.020 C 
BRANCH  39  40
HETATM   40  C20 UNL     1       0.251  -6.352   6.832  1.00  0.00     0.122 C 
BRANCH  40  41
HETATM   41  N9  UNL     1       1.036  -5.183   7.063  1.00  0.00    -0.367 N 
HETATM   42  C21 UNL     1       1.333  -4.747   8.248  1.00  0.00     0.196 C 
HETATM   43  N10 UNL     1       2.119  -3.577   8.396  1.00  0.00    -0.067 NA
HETATM   44  N11 UNL     1       0.840  -5.486   9.344  1.00  0.00    -0.067 NA
ATOM     45  H9  UNL     1       1.381  -4.665   6.255  1.00  0.00     0.161 HD
ENDBRANCH  40  41
ENDBRANCH  39  40
ENDBRANCH  38  39
ENDBRANCH  37  38
ENDBRANCH  32  37
ENDBRANCH   1  32
TORSDOF 15
ENDMDL
MODEL 2
REMARK VINA RESULT: -8.216187055      1.469      6.823
REMARK  15 active torsions:
REMARK  status: ('A' for Active; 'I' for Inactive)
REMARK    1  A    between atoms: C2_2  and  C3_3 
REMARK    2  A    between atoms: C2_2  and  N4_10 
REMARK    3  A    between atoms: C3_3  and  C4_4 
REMARK    4  A    between atoms: C4_4  and  N1_5 
REMARK       I    between atoms: N1_5  and  C5_7 
REMARK    5  A    between atoms: N4_10  and  C6_12 
REMARK    6  A    between atoms: C6_12  and  N5_13 
REMARK    7  A    between atoms: C6_12  and  C16_32 
REMARK       I    between atoms: N5_13  and  C7_15 
REMARK    8  A    between atoms: C7_15  and  C8_17 
REMARK    9  A    between atoms: C8_17  and  C9_18 
REMARK   10  A    between atoms: C16_32  and  N8_33 
REMARK   11  A    between atoms: C16_32  and  C17_37 
REMARK   12  A    between atoms: C17_37  and  C18_38 
REMARK   13  A    between atoms: C18_38  and  C19_39 
REMARK   14  A    between atoms: C19_39  and  C20_40 
REMARK   15  A    between atoms: C20_40  and  N9_41 
ROOT
HETATM    1  C6  UNL     1       1.531  -9.563  10.565  1.00  0.00     0.114 C 
ENDROOT
BRANCH   1   2
HETATM    2  N4  UNL     1       0.840  -8.796   9.598  1.00  0.00    -0.352 N 
ATOM      3  H4  UNL     1      -0.143  -9.027   9.456  1.00  0.00     0.166 HD
BRANCH   2   4
HETATM    4  C2  UNL     1       1.302  -7.854   8.888  1.00  0.00    -0.014 C 
HETATM    5  C1  UNL     1       1.182  -6.439   9.244  1.00  0.00     0.063 C 
BRANCH   4   6
HETATM    6  C3  UNL     1       1.999  -8.236   7.627  1.00  0.00     0.071 C 
BRANCH   6   7
HETATM    7  C4  UNL     1       0.994  -8.430   6.508  1.00  0.00     0.127 C 
BRANCH   7   8
HETATM    8  N1  UNL     1       1.213  -7.584   5.391  1.00  0.00    -0.367 N 
HETATM    9  C5  UNL     1       0.655  -6.492   5.082  1.00  0.00     0.196 C 
HETATM   10  N2  UNL     1      -0.356  -5.960   5.929  1.00  0.00    -0.067 NA
HETATM   11  N3  UNL     1       1.036  -5.790   3.892  1.00  0.00    -0.067 NA
ATOM     12  H1  UNL     1       1.927  -7.905   4.737  1.00  0.00     0.161 HD
ENDBRANCH   7   8
ENDBRANCH   6   7
ENDBRANCH   4   6
ENDBRANCH   2   4
ENDBRANCH   1   2
BRANCH   1  13
HETATM   13  N5  UNL     1       2.801  -9.581  10.592  1.00  0.00    -0.315 N 
HETATM   14  C7  UNL     1       3.753 -10.534  10.323  1.00  0.00     0.227 C 
HETATM   15  O1  UNL     1       4.906 -10.165   9.870  1.00  0.00    -0.273 OA
ATOM     16  H5  UNL     1       3.203  -8.688  10.877  1.00  0.00     0.170 HD
BRANCH  14  17
HETATM   17  C8  UNL     1       3.577 -11.991  10.511  1.00  0.00     0.146 C 
BRANCH  17  18
HETATM   18  C9  UNL     1       4.570 -12.567  11.453  1.00  0.00     0.012 A 
HETATM   19  C10 UNL     1       4.428 -12.597  12.820  1.00  0.00     0.132 A 
HETATM   20 BR1  UNL     1       2.934 -11.904  13.821  1.00  0.00    -0.022 Br
HETATM   21  O2  UNL     1       5.493 -13.183  13.307  1.00  0.00    -0.285 OA
HETATM   22  C11 UNL     1       6.332 -13.542  12.360  1.00  0.00     0.166 A 
HETATM   23  N6  UNL     1       7.528 -14.160  12.380  1.00  0.00    -0.326 N 
HETATM   24  C15 UNL     1       5.754 -13.152  11.150  1.00  0.00     0.093 A 
HETATM   25  C12 UNL     1       8.208 -14.424  11.252  1.00  0.00     0.081 A 
ATOM     26  H6  UNL     1       7.928 -14.435  13.277  1.00  0.00     0.169 HD
HETATM   27  C13 UNL     1       9.541 -15.117  11.311  1.00  0.00     0.089 C 
HETATM   28  N7  UNL     1       7.664 -14.055  10.084  1.00  0.00    -0.312 N 
HETATM   29  C14 UNL     1       6.474 -13.436  10.004  1.00  0.00     0.262 A 
ATOM     30  H7  UNL     1       8.173 -14.251   9.222  1.00  0.00     0.170 HD
HETATM   31  O3  UNL     1       5.970 -13.092   8.903  1.00  0.00    -0.267 OA
ENDBRANCH  17  18
ENDBRANCH  14  17
ENDBRANCH   1  13
BRANCH   1  32
HETATM   32  C16 UNL     1       0.830 -10.369  11.592  1.00  0.00     0.250 C 
BRANCH  32  33
HETATM   33  N8  UNL     1      -0.195  -9.483  12.192  1.00  0.00    -0.068 N 
ATOM     34  H83 UNL     1       0.176  -8.582  12.492  1.00  0.00     0.275 HD
ATOM     35  H82 UNL     1      -0.867  -9.126  11.513  1.00  0.00     0.275 HD
ATOM     36  H81 UNL     1      -0.628 -10.013  12.949  1.00  0.00     0.275 HD
ENDBRANCH  32  33
BRANCH  32  37
HETATM   37  C17 UNL     1       0.060 -11.504  10.903  1.00  0.00     0.041 C 
BRANCH  37  38
HETATM   38  C18 UNL     1      -0.184 -12.688  11.744  1.00  0.00     0.004 C 
BRANCH  38  39
HETATM   39  C19 UNL     1       0.615 -13.881  11.394  1.00  0.00     0.020 C 
BRANCH  39  40
HETATM   40  C20 UNL     1       0.020 -15.192  11.713  1.00  0.00     0.122 C 
BRANCH  40  41
HETATM   41  N9  UNL     1      -0.757 -15.187  12.909  1.00  0.00    -0.367 N 
HETATM   42  C21 UNL     1      -0.336 -15.677  14.034  1.00  0.00     0.196 C 
HETATM   43  N10 UNL     1      -1.167 -15.634  15.181  1.00  0.00    -0.067 NA
HETATM   44  N11 UNL     1       0.959 -16.237  14.043  1.00  0.00    -0.067 NA
ATOM     45  H9  UNL     1      -1.691 -14.776  12.878  1.00  0.00     0.161 HD
ENDBRANCH  40  41
ENDBRANCH  39  40
ENDBRANCH  38  39
ENDBRANCH  37  38
ENDBRANCH  32  37
ENDBRANCH   1  32
TORSDOF 15
ENDMDL
MODEL 3
REMARK VINA RESULT: -8.025650815      1.997      6.866
REMARK  15 active torsions:
REMARK  status: ('A' for Active; 'I' for Inactive)
REMARK    1  A    between atoms: C2_2  and  C3_3 
REMARK    2  A    between atoms: C2_2  and  N4_10 
REMARK    3  A    between atoms: C3_3  and  C4_4 
REMARK    4  A    between atoms: C4_4  and  N1_5 
REMARK       I    between atoms: N1_5  and  C5_7 
REMARK    5  A    between atoms: N4_10  and  C6_12 
REMARK    6  A    between atoms: C6_12  and  N5_13 
REMARK    7  A    between atoms: C6_12  and  C16_32 
REMARK       I    between atoms: N5_13  and  C7_15 
REMARK    8  A    between atoms: C7_15  and  C8_17 
REMARK    9  A    between atoms: C8_17  and  C9_18 
REMARK   10  A    between atoms: C16_32  and  N8_33 
REMARK   11  A    between atoms: C16_32  and  C17_37 
REMARK   12  A    between atoms: C17_37  and  C18_38 
REMARK   13  A    between atoms: C18_38  and  C19_39 
REMARK   14  A    between atoms: C19_39  and  C20_40 
REMARK   15  A    between atoms: C20_40  and  N9_41 
ROOT
HETATM    1  C6  UNL     1       2.918 -12.763  11.666  1.00  0.00     0.114 C 
ENDROOT
BRANCH   1   2
HETATM    2  N4  UNL     1       3.065 -11.368  11.847  1.00  0.00    -0.352 N 
ATOM      3  H4  UNL     1       3.176 -11.046  12.809  1.00  0.00     0.166 HD
BRANCH   2   4
HETATM    4  C2  UNL     1       3.075 -10.472  10.951  1.00  0.00    -0.014 C 
HETATM    5  C1  UNL     1       4.121 -10.356   9.935  1.00  0.00     0.063 C 
BRANCH   4   6
HETATM    6  C3  UNL     1       1.948  -9.496  10.959  1.00  0.00     0.071 C 
BRANCH   6   7
HETATM    7  C4  UNL     1       1.873  -8.768   9.630  1.00  0.00     0.127 C 
BRANCH   7   8
HETATM    8  N1  UNL     1       1.551  -7.392   9.750  1.00  0.00    -0.367 N 
HETATM    9  C5  UNL     1       1.239  -6.554   8.856  1.00  0.00     0.196 C 
HETATM   10  N2  UNL     1       1.179  -6.971   7.498  1.00  0.00    -0.067 NA
HETATM   11  N3  UNL     1       0.945  -5.194   9.202  1.00  0.00    -0.067 NA
ATOM     12  H1  UNL     1       1.575  -7.022  10.700  1.00  0.00     0.161 HD
ENDBRANCH   7   8
ENDBRANCH   6   7
ENDBRANCH   4   6
ENDBRANCH   2   4
ENDBRANCH   1   2
BRANCH   1  13
HETATM   13  N5  UNL     1       3.693 -13.578  12.257  1.00  0.00    -0.315 N 
HETATM   14  C7  UNL     1       5.008 -13.536  12.652  1.00  0.00     0.227 C 
HETATM   15  O1  UNL     1       5.376 -14.205  13.695  1.00  0.00    -0.273 OA
ATOM     16  H5  UNL     1       3.237 -14.460  12.489  1.00  0.00     0.170 HD
BRANCH  14  17
HETATM   17  C8  UNL     1       6.078 -12.775  11.970  1.00  0.00     0.146 C 
BRANCH  17  18
HETATM   18  C9  UNL     1       7.110 -13.658  11.369  1.00  0.00     0.012 A 
HETATM   19  C10 UNL     1       7.035 -14.205  10.110  1.00  0.00     0.132 A 
HETATM   20 BR1  UNL     1       5.596 -13.965   8.851  1.00  0.00    -0.022 Br
HETATM   21  O2  UNL     1       8.122 -14.913   9.931  1.00  0.00    -0.285 OA
HETATM   22  C11 UNL     1       8.911 -14.876  10.982  1.00  0.00     0.166 A 
HETATM   23  N6  UNL     1      10.105 -15.436  11.253  1.00  0.00    -0.326 N 
HETATM   24  C15 UNL     1       8.274 -14.069  11.927  1.00  0.00     0.093 A 
HETATM   25  C12 UNL     1      10.727 -15.244  12.428  1.00  0.00     0.081 A 
ATOM     26  H6  UNL     1      10.549 -16.022  10.547  1.00  0.00     0.169 HD
HETATM   27  C13 UNL     1      12.061 -15.884  12.697  1.00  0.00     0.089 C 
HETATM   28  N7  UNL     1      10.126 -14.471  13.344  1.00  0.00    -0.312 N 
HETATM   29  C14 UNL     1       8.936 -13.888  13.128  1.00  0.00     0.262 A 
ATOM     30  H7  UNL     1      10.591 -14.320  14.239  1.00  0.00     0.170 HD
HETATM   31  O3  UNL     1       8.378 -13.162  13.992  1.00  0.00    -0.267 OA
ENDBRANCH  17  18
ENDBRANCH  14  17
ENDBRANCH   1  13
BRANCH   1  32
HETATM   32  C16 UNL     1       1.866 -13.349  10.803  1.00  0.00     0.250 C 
BRANCH  32  33
HETATM   33  N8  UNL     1       2.150 -14.801  10.722  1.00  0.00    -0.068 N 
ATOM     34  H83 UNL     1       1.912 -15.209   9.818  1.00  0.00     0.275 HD
ATOM     35  H82 UNL     1       3.147 -15.017  10.701  1.00  0.00     0.275 HD
ATOM     36  H81 UNL     1       1.659 -15.235  11.503  1.00  0.00     0.275 HD
ENDBRANCH  32  33
BRANCH  32  37
HETATM   37  C17 UNL     1       0.508 -13.221  11.506  1.00  0.00     0.041 C 
BRANCH  37  38
HETATM   38  C18 UNL     1      -0.275 -14.467  11.575  1.00  0.00     0.004 C 
BRANCH  38  39
HETATM   39  C19 UNL     1      -0.984 -14.691  12.853  1.00  0.00     0.020 C 
BRANCH  39  40
HETATM   40  C20 UNL     1      -0.321 -15.575  13.830  1.00  0.00     0.122 C 
BRANCH  40  41
HETATM   41  N9  UNL     1       0.612 -14.896  14.668  1.00  0.00    -0.367 N 
HETATM   42  C21 UNL     1       1.894 -15.084  14.606  1.00  0.00     0.196 C 
HETATM   43  N10 UNL     1       2.758 -14.370  15.473  1.00  0.00    -0.067 NA
HETATM   44  N11 UNL     1       2.359 -16.014  13.652  1.00  0.00    -0.067 NA
ATOM     45  H9  UNL     1       0.252 -14.227  15.350  1.00  0.00     0.161 HD
ENDBRANCH  40  41
ENDBRANCH  39  40
ENDBRANCH  38  39
ENDBRANCH  37  38
ENDBRANCH  32  37
ENDBRANCH   1  32
TORSDOF 15
ENDMDL
MODEL 4
REMARK VINA RESULT: -8.015149900      1.612      7.132
REMARK  15 active torsions:
REMARK  status: ('A' for Active; 'I' for Inactive)
REMARK    1  A    between atoms: C2_2  and  C3_3 
REMARK    2  A    between atoms: C2_2  and  N4_10 
REMARK    3  A    between atoms: C3_3  and  C4_4 
REMARK    4  A    between atoms: C4_4  and  N1_5 
REMARK       I    between atoms: N1_5  and  C5_7 
REMARK    5  A    between atoms: N4_10  and  C6_12 
REMARK    6  A    between atoms: C6_12  and  N5_13 
REMARK    7  A    between atoms: C6_12  and  C16_32 
REMARK       I    between atoms: N5_13  and  C7_15 
REMARK    8  A    between atoms: C7_15  and  C8_17 
REMARK    9  A    between atoms: C8_17  and  C9_18 
REMARK   10  A    between atoms: C16_32  and  N8_33 
REMARK   11  A    between atoms: C16_32  and  C17_37 
REMARK   12  A    between atoms: C17_37  and  C18_38 
REMARK   13  A    between atoms: C18_38  and  C19_39 
REMARK   14  A    between atoms: C19_39  and  C20_40 
REMARK   15  A    between atoms: C20_40  and  N9_41 
ROOT
HETATM    1  C6  UNL     1       0.870 -10.849  10.524  1.00  0.00     0.114 C 
ENDROOT
BRANCH   1   2
HETATM    2  N4  UNL     1       0.741  -9.620   9.836  1.00  0.00    -0.352 N 
ATOM      3  H4  UNL     1      -0.172  -9.426   9.424  1.00  0.00     0.166 HD
BRANCH   2   4
HETATM    4  C2  UNL     1       1.630  -8.732   9.671  1.00  0.00    -0.014 C 
HETATM    5  C1  UNL     1       2.464  -8.213  10.756  1.00  0.00     0.063 C 
BRANCH   4   6
HETATM    6  C3  UNL     1       1.812  -8.205   8.290  1.00  0.00     0.071 C 
BRANCH   6   7
HETATM    7  C4  UNL     1       1.601  -6.703   8.267  1.00  0.00     0.127 C 
BRANCH   7   8
HETATM    8  N1  UNL     1       0.447  -6.299   7.546  1.00  0.00    -0.367 N 
HETATM    9  C5  UNL     1       0.326  -5.976   6.330  1.00  0.00     0.196 C 
HETATM   10  N2  UNL     1       1.470  -5.991   5.485  1.00  0.00    -0.067 NA
HETATM   11  N3  UNL     1      -0.951  -5.598   5.800  1.00  0.00    -0.067 NA
ATOM     12  H1  UNL     1      -0.414  -6.264   8.091  1.00  0.00     0.161 HD
ENDBRANCH   7   8
ENDBRANCH   6   7
ENDBRANCH   4   6
ENDBRANCH   2   4
ENDBRANCH   1   2
BRANCH   1  13
HETATM   13  N5  UNL     1       1.493 -11.823   9.999  1.00  0.00    -0.315 N 
HETATM   14  C7  UNL     1       2.722 -12.400  10.207  1.00  0.00     0.227 C 
HETATM   15  O1  UNL     1       2.875 -13.663   9.977  1.00  0.00    -0.273 OA
ATOM     16  H5  UNL     1       0.962 -12.279   9.257  1.00  0.00     0.170 HD
BRANCH  14  17
HETATM   17  C8  UNL     1       3.928 -11.686  10.681  1.00  0.00     0.146 C 
BRANCH  17  18
HETATM   18  C9  UNL     1       4.764 -12.519  11.584  1.00  0.00     0.012 A 
HETATM   19  C10 UNL     1       4.511 -12.721  12.920  1.00  0.00     0.132 A 
HETATM   20 BR1  UNL     1       3.043 -11.978  13.923  1.00  0.00    -0.022 Br
HETATM   21  O2  UNL     1       5.452 -13.509  13.376  1.00  0.00    -0.285 OA
HETATM   22  C11 UNL     1       6.311 -13.843  12.438  1.00  0.00     0.166 A 
HETATM   23  N6  UNL     1       7.414 -14.616  12.436  1.00  0.00    -0.326 N 
HETATM   24  C15 UNL     1       5.884 -13.212  11.268  1.00  0.00     0.093 A 
HETATM   25  C12 UNL     1       8.142 -14.809  11.325  1.00  0.00     0.081 A 
ATOM     26  H6  UNL     1       7.705 -15.065  13.304  1.00  0.00     0.169 HD
HETATM   27  C13 UNL     1       9.368 -15.679  11.358  1.00  0.00     0.089 C 
HETATM   28  N7  UNL     1       7.743 -14.208  10.194  1.00  0.00    -0.312 N 
HETATM   29  C14 UNL     1       6.651 -13.428  10.137  1.00  0.00     0.262 A 
ATOM     30  H7  UNL     1       8.289 -14.350   9.345  1.00  0.00     0.170 HD
HETATM   31  O3  UNL     1       6.282 -12.868   9.072  1.00  0.00    -0.267 OA
ENDBRANCH  17  18
ENDBRANCH  14  17
ENDBRANCH   1  13
BRANCH   1  32
HETATM   32  C16 UNL     1       0.305 -11.069  11.876  1.00  0.00     0.250 C 
BRANCH  32  33
HETATM   33  N8  UNL     1      -0.485  -9.859  12.201  1.00  0.00    -0.068 N 
ATOM     34  H83 UNL     1      -0.393  -9.117  11.507  1.00  0.00     0.275 HD
ATOM     35  H82 UNL     1      -1.492  -9.997  12.107  1.00  0.00     0.275 HD
ATOM     36  H81 UNL     1      -0.203  -9.572  13.139  1.00  0.00     0.275 HD
ENDBRANCH  32  33
BRANCH  32  37
HETATM   37  C17 UNL     1      -0.697 -12.229  11.821  1.00  0.00     0.041 C 
BRANCH  37  38
HETATM   38  C18 UNL     1      -0.235 -13.479  12.449  1.00  0.00     0.004 C 
BRANCH  38  39
HETATM   39  C19 UNL     1      -0.721 -14.719  11.809  1.00  0.00     0.020 C 
BRANCH  39  40
HETATM   40  C20 UNL     1       0.193 -15.877  11.835  1.00  0.00     0.122 C 
BRANCH  40  41
HETATM   41  N9  UNL     1      -0.329 -16.995  12.550  1.00  0.00    -0.367 N 
HETATM   42  C21 UNL     1       0.055 -17.318  13.747  1.00  0.00     0.196 C 
HETATM   43  N10 UNL     1      -0.512 -18.444  14.394  1.00  0.00    -0.067 NA
HETATM   44  N11 UNL     1       1.039 -16.502  14.344  1.00  0.00    -0.067 NA
ATOM     45  H9  UNL     1      -1.041 -17.570  12.098  1.00  0.00     0.161 HD
ENDBRANCH  40  41
ENDBRANCH  39  40
ENDBRANCH  38  39
ENDBRANCH  37  38
ENDBRANCH  32  37
ENDBRANCH   1  32
TORSDOF 15
ENDMDL
MODEL 5
REMARK VINA RESULT: -7.987942557      2.703      7.829
REMARK  15 active torsions:
REMARK  status: ('A' for Active; 'I' for Inactive)
REMARK    1  A    between atoms: C2_2  and  C3_3 
REMARK    2  A    between atoms: C2_2  and  N4_10 
REMARK    3  A    between atoms: C3_3  and  C4_4 
REMARK    4  A    between atoms: C4_4  and  N1_5 
REMARK       I    between atoms: N1_5  and  C5_7 
REMARK    5  A    between atoms: N4_10  and  C6_12 
REMARK    6  A    between atoms: C6_12  and  N5_13 
REMARK    7  A    between atoms: C6_12  and  C16_32 
REMARK       I    between atoms: N5_13  and  C7_15 
REMARK    8  A    between atoms: C7_15  and  C8_17 
REMARK    9  A    between atoms: C8_17  and  C9_18 
REMARK   10  A    between atoms: C16_32  and  N8_33 
REMARK   11  A    between atoms: C16_32  and  C17_37 
REMARK   12  A    between atoms: C17_37  and  C18_38 
REMARK   13  A    between atoms: C18_38  and  C19_39 
REMARK   14  A    between atoms: C19_39  and  C20_40 
REMARK   15  A    between atoms: C20_40  and  N9_41 
ROOT
HETATM    1  C6  UNL     1       1.602 -11.047  11.563  1.00  0.00     0.114 C 
ENDROOT
BRANCH   1   2
HETATM    2  N4  UNL     1       2.066  -9.748  11.249  1.00  0.00    -0.352 N 
ATOM      3  H4  UNL     1       2.098  -9.081  12.021  1.00  0.00     0.166 HD
BRANCH   2   4
HETATM    4  C2  UNL     1       2.447  -9.317  10.120  1.00  0.00    -0.014 C 
HETATM    5  C1  UNL     1       3.805  -9.498   9.602  1.00  0.00     0.063 C 
BRANCH   4   6
HETATM    6  C3  UNL     1       1.440  -8.590   9.298  1.00  0.00     0.071 C 
BRANCH   6   7
HETATM    7  C4  UNL     1       2.124  -7.825   8.182  1.00  0.00     0.127 C 
BRANCH   7   8
HETATM    8  N1  UNL     1       2.199  -6.426   8.411  1.00  0.00    -0.367 N 
HETATM    9  C5  UNL     1       1.444  -5.498   8.002  1.00  0.00     0.196 C 
HETATM   10  N2  UNL     1       0.327  -5.817   7.181  1.00  0.00    -0.067 NA
HETATM   11  N3  UNL     1       1.706  -4.135   8.359  1.00  0.00    -0.067 NA
ATOM     12  H1  UNL     1       2.980  -6.124   8.993  1.00  0.00     0.161 HD
ENDBRANCH   7   8
ENDBRANCH   6   7
ENDBRANCH   4   6
ENDBRANCH   2   4
ENDBRANCH   1   2
BRANCH   1  13
HETATM   13  N5  UNL     1       2.236 -12.074  11.168  1.00  0.00    -0.315 N 
HETATM   14  C7  UNL     1       3.136 -12.930  11.753  1.00  0.00     0.227 C 
HETATM   15  O1  UNL     1       3.179 -14.163  11.368  1.00  0.00    -0.273 OA
ATOM     16  H5  UNL     1       2.029 -12.318  10.199  1.00  0.00     0.170 HD
BRANCH  14  17
HETATM   17  C8  UNL     1       4.097 -12.559  12.816  1.00  0.00     0.146 C 
BRANCH  17  18
HETATM   18  C9  UNL     1       4.819 -13.735  13.366  1.00  0.00     0.012 A 
HETATM   19  C10 UNL     1       6.058 -14.158  12.948  1.00  0.00     0.132 A 
HETATM   20 BR1  UNL     1       7.131 -13.344  11.570  1.00  0.00    -0.022 Br
HETATM   21  O2  UNL     1       6.368 -15.211  13.663  1.00  0.00    -0.285 OA
HETATM   22  C11 UNL     1       5.421 -15.516  14.523  1.00  0.00     0.166 A 
HETATM   23  N6  UNL     1       5.298 -16.491  15.443  1.00  0.00    -0.326 N 
HETATM   24  C15 UNL     1       4.407 -14.573  14.347  1.00  0.00     0.093 A 
HETATM   25  C12 UNL     1       4.209 -16.597  16.221  1.00  0.00     0.081 A 
ATOM     26  H6  UNL     1       6.053 -17.169  15.552  1.00  0.00     0.169 HD
HETATM   27  C13 UNL     1       4.104 -17.698  17.240  1.00  0.00     0.089 C 
HETATM   28  N7  UNL     1       3.227 -15.697  16.063  1.00  0.00    -0.312 N 
HETATM   29  C14 UNL     1       3.297 -14.704  15.161  1.00  0.00     0.262 A 
ATOM     30  H7  UNL     1       2.396 -15.770  16.649  1.00  0.00     0.170 HD
HETATM   31  O3  UNL     1       2.371 -13.862  15.018  1.00  0.00    -0.267 OA
ENDBRANCH  17  18
ENDBRANCH  14  17
ENDBRANCH   1  13
BRANCH   1  32
HETATM   32  C16 UNL     1       0.378 -11.284  12.364  1.00  0.00     0.250 C 
BRANCH  32  33
HETATM   33  N8  UNL     1      -0.472 -10.083  12.196  1.00  0.00    -0.068 N 
ATOM     34  H83 UNL     1      -0.148  -9.279  12.734  1.00  0.00     0.275 HD
ATOM     35  H82 UNL     1      -0.393  -9.658  11.272  1.00  0.00     0.275 HD
ATOM     36  H81 UNL     1      -1.423 -10.368  12.429  1.00  0.00     0.275 HD
ENDBRANCH  32  33
BRANCH  32  37
HETATM   37  C17 UNL     1      -0.408 -12.450  11.750  1.00  0.00     0.041 C 
BRANCH  37  38
HETATM   38  C18 UNL     1      -0.410 -13.687  12.551  1.00  0.00     0.004 C 
BRANCH  38  39
HETATM   39  C19 UNL     1      -0.495 -14.939  11.770  1.00  0.00     0.020 C 
BRANCH  39  40
HETATM   40  C20 UNL     1       0.315 -16.074  12.251  1.00  0.00     0.122 C 
BRANCH  40  41
HETATM   41  N9  UNL     1      -0.456 -17.092  12.887  1.00  0.00    -0.367 N 
HETATM   42  C21 UNL     1      -0.015 -17.807  13.875  1.00  0.00     0.196 C 
HETATM   43  N10 UNL     1      -0.842 -18.801  14.455  1.00  0.00    -0.067 NA
HETATM   44  N11 UNL     1       1.297 -17.542  14.322  1.00  0.00    -0.067 NA
ATOM     45  H9  UNL     1      -1.402 -17.266  12.547  1.00  0.00     0.161 HD
ENDBRANCH  40  41
ENDBRANCH  39  40
ENDBRANCH  38  39
ENDBRANCH  37  38
ENDBRANCH  32  37
ENDBRANCH   1  32
TORSDOF 15
ENDMDL
