MODEL 1
REMARK VINA RESULT: -6.896321756      0.000      0.000
REMARK  11 active torsions:
REMARK  status: ('A' for Active; 'I' for Inactive)
REMARK    1  A    between atoms: S1_2  and  C2_3 
REMARK    2  A    between atoms: C2_3  and  C3_4 
REMARK    3  A    between atoms: C3_4  and  O1_5 
REMARK    4  A    between atoms: C5_9  and  O3_10 
REMARK    5  A    between atoms: C5_9  and  C6_12 
REMARK    6  A    between atoms: C6_12  and  O4_14 
REMARK    7  A    between atoms: C9_19  and  S2_20 
REMARK    8  A    between atoms: S2_20  and  C10_21 
REMARK    9  A    between atoms: C10_21  and  N3_25 
REMARK   10  A    between atoms: N3_25  and  N4_27 
REMARK   11  A    between atoms: N4_27  and  N5_28 
ROOT
HETATM    1  C3  UNL     1      64.574  98.907 119.856  1.00  0.00     0.276 C 
HETATM    2  O2  UNL     1      63.439  99.619 119.597  1.00  0.00    -0.333 OA
HETATM    3  C4  UNL     1      62.713  99.219 118.509  1.00  0.00     0.222 C 
HETATM    4  C5  UNL     1      63.564  99.437 117.276  1.00  0.00     0.164 C 
HETATM    5  C8  UNL     1      64.760  98.570 117.425  1.00  0.00     0.145 A 
HETATM    6  N1  UNL     1      65.559  97.911 116.572  1.00  0.00    -0.321 N 
ATOM      7  H1  UNL     1      65.470  97.893 115.557  1.00  0.00     0.169 HD
HETATM    8  C9  UNL     1      66.491  97.285 117.291  1.00  0.00     0.168 A 
HETATM    9  N6  UNL     1      66.244  97.574 118.580  1.00  0.00    -0.271 N 
ATOM     10  H6  UNL     1      66.795  97.236 119.369  1.00  0.00     0.189 HD
HETATM   11  N7  UNL     1      65.197  98.351 118.678  1.00  0.00    -0.214 N 
ENDROOT
BRANCH   8  12
HETATM   12  S2  UNL     1      67.831  96.249 116.681  1.00  0.00    -0.016 SA
BRANCH  12  13
HETATM   13  C10 UNL     1      67.631  94.567 117.234  1.00  0.00     0.158 C 
HETATM   14  N2  UNL     1      66.626  93.903 116.807  1.00  0.00    -0.379 N 
ATOM     15  H22 UNL     1      65.950  94.317 116.165  1.00  0.00     0.158 HD
ATOM     16  H21 UNL     1      66.512  92.941 117.124  1.00  0.00     0.158 HD
BRANCH  13  17
HETATM   17  N3  UNL     1      68.574  93.990 118.131  1.00  0.00    -0.264 N 
ATOM     18  H3  UNL     1      68.756  94.478 119.009  1.00  0.00     0.186 HD
BRANCH  17  19
HETATM   19  N4  UNL     1      69.260  92.814 117.894  1.00  0.00    -0.028 NA
BRANCH  19  20
HETATM   20  N5  UNL     1      68.782  91.737 118.637  1.00  0.00    -0.329 N 
ATOM     21  H52 UNL     1      68.694  90.798 118.246  1.00  0.00     0.174 HD
ATOM     22  H51 UNL     1      68.536  91.983 119.596  1.00  0.00     0.174 HD
ENDBRANCH  19  20
ENDBRANCH  17  19
ENDBRANCH  13  17
ENDBRANCH  12  13
ENDBRANCH   8  12
BRANCH   4  23
HETATM   23  O3  UNL     1      63.993 100.759 117.300  1.00  0.00    -0.377 OA
ATOM     24  H3  UNL     1      64.385 100.943 116.454  1.00  0.00     0.211 HD
ENDBRANCH   4  23
BRANCH   4  25
HETATM   25  C6  UNL     1      62.800  99.120 116.009  1.00  0.00     0.158 C 
HETATM   26  C7  UNL     1      61.651 100.067 115.793  1.00  0.00     0.043 C 
BRANCH  25  27
HETATM   27  O4  UNL     1      63.654  99.217 114.913  1.00  0.00    -0.392 OA
ATOM     28  H4  UNL     1      63.328  99.878 114.313  1.00  0.00     0.210 HD
ENDBRANCH  25  27
ENDBRANCH   4  25
BRANCH   1  29
HETATM   29  C2  UNL     1      64.258  97.820 120.868  1.00  0.00     0.169 C 
BRANCH  29  30
HETATM   30  S1  UNL     1      65.342  97.979 122.327  1.00  0.00    -0.166 SA
HETATM   31  C1  UNL     1      66.508  96.598 122.317  1.00  0.00     0.090 C 
ENDBRANCH  29  30
ENDBRANCH   1  29
BRANCH   1  32
HETATM   32  O1  UNL     1      65.473  99.783 120.512  1.00  0.00    -0.347 OA
ATOM     33  H1  UNL     1      66.325  99.369 120.443  1.00  0.00     0.215 HD
ENDBRANCH   1  32
TORSDOF 11
ENDMDL
MODEL 2
REMARK VINA RESULT: -6.727870969      1.067      1.870
REMARK  11 active torsions:
REMARK  status: ('A' for Active; 'I' for Inactive)
REMARK    1  A    between atoms: S1_2  and  C2_3 
REMARK    2  A    between atoms: C2_3  and  C3_4 
REMARK    3  A    between atoms: C3_4  and  O1_5 
REMARK    4  A    between atoms: C5_9  and  O3_10 
REMARK    5  A    between atoms: C5_9  and  C6_12 
REMARK    6  A    between atoms: C6_12  and  O4_14 
REMARK    7  A    between atoms: C9_19  and  S2_20 
REMARK    8  A    between atoms: S2_20  and  C10_21 
REMARK    9  A    between atoms: C10_21  and  N3_25 
REMARK   10  A    between atoms: N3_25  and  N4_27 
REMARK   11  A    between atoms: N4_27  and  N5_28 
ROOT
HETATM    1  C3  UNL     1      65.092  99.019 119.731  1.00  0.00     0.276 C 
HETATM    2  O2  UNL     1      63.928  99.667 119.433  1.00  0.00    -0.333 OA
HETATM    3  C4  UNL     1      63.123  99.062 118.507  1.00  0.00     0.222 C 
HETATM    4  C5  UNL     1      63.868  99.034 117.190  1.00  0.00     0.164 C 
HETATM    5  C8  UNL     1      65.085  98.212 117.406  1.00  0.00     0.145 A 
HETATM    6  N1  UNL     1      65.823  97.398 116.636  1.00  0.00    -0.321 N 
ATOM      7  H1  UNL     1      65.652  97.181 115.654  1.00  0.00     0.169 HD
HETATM    8  C9  UNL     1      66.819  96.924 117.384  1.00  0.00     0.168 A 
HETATM    9  N6  UNL     1      66.673  97.460 118.607  1.00  0.00    -0.271 N 
ATOM     10  H6  UNL     1      67.291  97.283 119.399  1.00  0.00     0.189 HD
HETATM   11  N7  UNL     1      65.625  98.243 118.638  1.00  0.00    -0.214 N 
ENDROOT
BRANCH   8  12
HETATM   12  S2  UNL     1      68.121  95.788 116.880  1.00  0.00    -0.016 SA
BRANCH  12  13
HETATM   13  C10 UNL     1      67.616  94.097 117.131  1.00  0.00     0.158 C 
HETATM   14  N2  UNL     1      68.380  93.330 117.810  1.00  0.00    -0.379 N 
ATOM     15  H22 UNL     1      69.258  93.668 118.203  1.00  0.00     0.158 HD
ATOM     16  H21 UNL     1      68.092  92.363 117.953  1.00  0.00     0.158 HD
BRANCH  13  17
HETATM   17  N3  UNL     1      66.390  93.625 116.582  1.00  0.00    -0.264 N 
ATOM     18  H3  UNL     1      66.103  93.991 115.674  1.00  0.00     0.186 HD
BRANCH  17  19
HETATM   19  N4  UNL     1      65.562  92.705 117.196  1.00  0.00    -0.028 NA
BRANCH  19  20
HETATM   20  N5  UNL     1      64.363  92.500 116.516  1.00  0.00    -0.329 N 
ATOM     21  H52 UNL     1      64.006  93.159 115.824  1.00  0.00     0.174 HD
ATOM     22  H51 UNL     1      63.890  91.636 116.781  1.00  0.00     0.174 HD
ENDBRANCH  19  20
ENDBRANCH  17  19
ENDBRANCH  13  17
ENDBRANCH  12  13
ENDBRANCH   8  12
BRANCH   4  23
HETATM   23  O3  UNL     1      64.277 100.335 116.920  1.00  0.00    -0.377 OA
ATOM     24  H3  UNL     1      65.066 100.492 117.425  1.00  0.00     0.211 HD
ENDBRANCH   4  23
BRANCH   4  25
HETATM   25  C6  UNL     1      63.009  98.475 116.076  1.00  0.00     0.158 C 
HETATM   26  C7  UNL     1      61.858  99.386 115.743  1.00  0.00     0.043 C 
BRANCH  25  27
HETATM   27  O4  UNL     1      63.781  98.315 114.928  1.00  0.00    -0.392 OA
ATOM     28  H4  UNL     1      63.306  97.787 114.296  1.00  0.00     0.210 HD
ENDBRANCH  25  27
ENDBRANCH   4  25
BRANCH   1  29
HETATM   29  C2  UNL     1      64.875  98.151 120.959  1.00  0.00     0.169 C 
BRANCH  29  30
HETATM   30  S1  UNL     1      63.920  99.063 122.218  1.00  0.00    -0.166 SA
HETATM   31  C1  UNL     1      62.288  98.298 122.351  1.00  0.00     0.090 C 
ENDBRANCH  29  30
ENDBRANCH   1  29
BRANCH   1  32
HETATM   32  O1  UNL     1      66.026 100.006 120.127  1.00  0.00    -0.347 OA
ATOM     33  H1  UNL     1      65.524 100.807 120.219  1.00  0.00     0.215 HD
ENDBRANCH   1  32
TORSDOF 11
ENDMDL
MODEL 3
REMARK VINA RESULT: -6.703624791      1.387      1.391
REMARK  11 active torsions:
REMARK  status: ('A' for Active; 'I' for Inactive)
REMARK    1  A    between atoms: S1_2  and  C2_3 
REMARK    2  A    between atoms: C2_3  and  C3_4 
REMARK    3  A    between atoms: C3_4  and  O1_5 
REMARK    4  A    between atoms: C5_9  and  O3_10 
REMARK    5  A    between atoms: C5_9  and  C6_12 
REMARK    6  A    between atoms: C6_12  and  O4_14 
REMARK    7  A    between atoms: C9_19  and  S2_20 
REMARK    8  A    between atoms: S2_20  and  C10_21 
REMARK    9  A    between atoms: C10_21  and  N3_25 
REMARK   10  A    between atoms: N3_25  and  N4_27 
REMARK   11  A    between atoms: N4_27  and  N5_28 
ROOT
HETATM    1  C3  UNL     1      63.668  97.669 119.481  1.00  0.00     0.276 C 
HETATM    2  O2  UNL     1      62.717  98.623 119.260  1.00  0.00    -0.333 OA
HETATM    3  C4  UNL     1      62.435  98.898 117.950  1.00  0.00     0.222 C 
HETATM    4  C5  UNL     1      63.682  99.478 117.317  1.00  0.00     0.164 C 
HETATM    5  C8  UNL     1      64.726  98.426 117.392  1.00  0.00     0.145 A 
HETATM    6  N1  UNL     1      65.772  98.079 116.627  1.00  0.00    -0.321 N 
ATOM      7  H1  UNL     1      66.061  98.534 115.762  1.00  0.00     0.169 HD
HETATM    8  C9  UNL     1      66.367  97.033 117.202  1.00  0.00     0.168 A 
HETATM    9  N6  UNL     1      65.668  96.756 118.316  1.00  0.00    -0.271 N 
ATOM     10  H6  UNL     1      65.886  96.003 118.969  1.00  0.00     0.189 HD
HETATM   11  N7  UNL     1      64.670  97.591 118.446  1.00  0.00    -0.214 N 
ENDROOT
BRANCH   8  12
HETATM   12  S2  UNL     1      67.820  96.145 116.621  1.00  0.00    -0.016 SA
BRANCH  12  13
HETATM   13  C10 UNL     1      67.762  94.437 117.126  1.00  0.00     0.158 C 
HETATM   14  N2  UNL     1      66.779  93.721 116.731  1.00  0.00    -0.379 N 
ATOM     15  H22 UNL     1      66.043  94.109 116.142  1.00  0.00     0.158 HD
ATOM     16  H21 UNL     1      66.745  92.744 117.021  1.00  0.00     0.158 HD
BRANCH  13  17
HETATM   17  N3  UNL     1      68.789  93.896 117.949  1.00  0.00    -0.264 N 
ATOM     18  H3  UNL     1      69.226  94.515 118.633  1.00  0.00     0.186 HD
BRANCH  17  19
HETATM   19  N4  UNL     1      69.235  92.590 117.886  1.00  0.00    -0.028 NA
BRANCH  19  20
HETATM   20  N5  UNL     1      68.745  91.788 118.915  1.00  0.00    -0.329 N 
ATOM     21  H52 UNL     1      67.769  91.812 119.210  1.00  0.00     0.174 HD
ATOM     22  H51 UNL     1      69.455  91.186 119.332  1.00  0.00     0.174 HD
ENDBRANCH  19  20
ENDBRANCH  17  19
ENDBRANCH  13  17
ENDBRANCH  12  13
ENDBRANCH   8  12
BRANCH   4  23
HETATM   23  O3  UNL     1      64.092 100.540 118.113  1.00  0.00    -0.377 OA
ATOM     24  H3  UNL     1      64.054 100.247 119.016  1.00  0.00     0.211 HD
ENDBRANCH   4  23
BRANCH   4  25
HETATM   25  C6  UNL     1      63.431  99.912 115.889  1.00  0.00     0.158 C 
HETATM   26  C7  UNL     1      62.249 100.839 115.783  1.00  0.00     0.043 C 
BRANCH  25  27
HETATM   27  O4  UNL     1      64.551 100.581 115.402  1.00  0.00    -0.392 OA
ATOM     28  H4  UNL     1      64.774 100.243 114.542  1.00  0.00     0.210 HD
ENDBRANCH  25  27
ENDBRANCH   4  25
BRANCH   1  29
HETATM   29  C2  UNL     1      62.986  96.326 119.680  1.00  0.00     0.169 C 
BRANCH  29  30
HETATM   30  S1  UNL     1      63.570  95.541 121.220  1.00  0.00    -0.166 SA
HETATM   31  C1  UNL     1      64.698  94.201 120.778  1.00  0.00     0.090 C 
ENDBRANCH  29  30
ENDBRANCH   1  29
BRANCH   1  32
HETATM   32  O1  UNL     1      64.276  97.970 120.724  1.00  0.00    -0.347 OA
ATOM     33  H1  UNL     1      64.682  98.821 120.607  1.00  0.00     0.215 HD
ENDBRANCH   1  32
TORSDOF 11
ENDMDL
MODEL 4
REMARK VINA RESULT: -6.542676583      2.169      2.768
REMARK  11 active torsions:
REMARK  status: ('A' for Active; 'I' for Inactive)
REMARK    1  A    between atoms: S1_2  and  C2_3 
REMARK    2  A    between atoms: C2_3  and  C3_4 
REMARK    3  A    between atoms: C3_4  and  O1_5 
REMARK    4  A    between atoms: C5_9  and  O3_10 
REMARK    5  A    between atoms: C5_9  and  C6_12 
REMARK    6  A    between atoms: C6_12  and  O4_14 
REMARK    7  A    between atoms: C9_19  and  S2_20 
REMARK    8  A    between atoms: S2_20  and  C10_21 
REMARK    9  A    between atoms: C10_21  and  N3_25 
REMARK   10  A    between atoms: N3_25  and  N4_27 
REMARK   11  A    between atoms: N4_27  and  N5_28 
ROOT
HETATM    1  C3  UNL     1      63.936  99.077 120.128  1.00  0.00     0.276 C 
HETATM    2  O2  UNL     1      63.380 100.083 119.392  1.00  0.00    -0.333 OA
HETATM    3  C4  UNL     1      62.612  99.696 118.328  1.00  0.00     0.222 C 
HETATM    4  C5  UNL     1      63.510  98.982 117.341  1.00  0.00     0.164 C 
HETATM    5  C8  UNL     1      64.039  97.782 118.038  1.00  0.00     0.145 A 
HETATM    6  N1  UNL     1      64.399  96.549 117.650  1.00  0.00    -0.321 N 
ATOM      7  H1  UNL     1      64.368  96.185 116.699  1.00  0.00     0.169 HD
HETATM    8  C9  UNL     1      64.807  95.886 118.733  1.00  0.00     0.168 A 
HETATM    9  N6  UNL     1      64.687  96.732 119.771  1.00  0.00    -0.271 N 
ATOM     10  H6  UNL     1      64.925  96.506 120.737  1.00  0.00     0.189 HD
HETATM   11  N7  UNL     1      64.221  97.885 119.367  1.00  0.00    -0.214 N 
ENDROOT
BRANCH   8  12
HETATM   12  S2  UNL     1      65.405  94.191 118.817  1.00  0.00    -0.016 SA
BRANCH  12  13
HETATM   13  C10 UNL     1      65.830  93.589 117.195  1.00  0.00     0.158 C 
HETATM   14  N2  UNL     1      66.892  94.036 116.641  1.00  0.00    -0.379 N 
ATOM     15  H22 UNL     1      67.488  94.718 117.108  1.00  0.00     0.158 HD
ATOM     16  H21 UNL     1      67.135  93.691 115.712  1.00  0.00     0.158 HD
BRANCH  13  17
HETATM   17  N3  UNL     1      64.997  92.636 116.542  1.00  0.00    -0.264 N 
ATOM     18  H3  UNL     1      64.829  92.756 115.543  1.00  0.00     0.186 HD
BRANCH  17  19
HETATM   19  N4  UNL     1      64.403  91.558 117.170  1.00  0.00    -0.028 NA
BRANCH  19  20
HETATM   20  N5  UNL     1      63.289  91.069 116.491  1.00  0.00    -0.329 N 
ATOM     21  H52 UNL     1      62.344  91.409 116.671  1.00  0.00     0.174 HD
ATOM     22  H51 UNL     1      63.516  90.348 115.806  1.00  0.00     0.174 HD
ENDBRANCH  19  20
ENDBRANCH  17  19
ENDBRANCH  13  17
ENDBRANCH  12  13
ENDBRANCH   8  12
BRANCH   4  23
HETATM   23  O3  UNL     1      64.583  99.824 117.075  1.00  0.00    -0.377 OA
ATOM     24  H3  UNL     1      65.243  99.657 117.737  1.00  0.00     0.211 HD
ENDBRANCH   4  23
BRANCH   4  25
HETATM   25  C6  UNL     1      62.764  98.609 116.079  1.00  0.00     0.158 C 
HETATM   26  C7  UNL     1      61.978  99.769 115.526  1.00  0.00     0.043 C 
BRANCH  25  27
HETATM   27  O4  UNL     1      63.671  98.198 115.105  1.00  0.00    -0.392 OA
ATOM     28  H4  UNL     1      63.573  97.266 114.952  1.00  0.00     0.210 HD
ENDBRANCH  25  27
ENDBRANCH   4  25
BRANCH   1  29
HETATM   29  C2  UNL     1      63.030  98.765 121.307  1.00  0.00     0.169 C 
BRANCH  29  30
HETATM   30  S1  UNL     1      63.121 100.101 122.546  1.00  0.00    -0.166 SA
HETATM   31  C1  UNL     1      61.529 100.954 122.575  1.00  0.00     0.090 C 
ENDBRANCH  29  30
ENDBRANCH   1  29
BRANCH   1  32
HETATM   32  O1  UNL     1      65.129  99.588 120.694  1.00  0.00    -0.347 OA
ATOM     33  H1  UNL     1      65.834  99.212 120.180  1.00  0.00     0.215 HD
ENDBRANCH   1  32
TORSDOF 11
ENDMDL
MODEL 5
REMARK VINA RESULT: -6.527869783      3.844      6.335
REMARK  11 active torsions:
REMARK  status: ('A' for Active; 'I' for Inactive)
REMARK    1  A    between atoms: S1_2  and  C2_3 
REMARK    2  A    between atoms: C2_3  and  C3_4 
REMARK    3  A    between atoms: C3_4  and  O1_5 
REMARK    4  A    between atoms: C5_9  and  O3_10 
REMARK    5  A    between atoms: C5_9  and  C6_12 
REMARK    6  A    between atoms: C6_12  and  O4_14 
REMARK    7  A    between atoms: C9_19  and  S2_20 
REMARK    8  A    between atoms: S2_20  and  C10_21 
REMARK    9  A    between atoms: C10_21  and  N3_25 
REMARK   10  A    between atoms: N3_25  and  N4_27 
REMARK   11  A    between atoms: N4_27  and  N5_28 
ROOT
HETATM    1  C3  UNL     1      66.054  92.521 119.416  1.00  0.00     0.276 C 
HETATM    2  O2  UNL     1      66.946  92.090 118.478  1.00  0.00    -0.333 OA
HETATM    3  C4  UNL     1      67.914  92.985 118.113  1.00  0.00     0.222 C 
HETATM    4  C5  UNL     1      67.234  94.163 117.449  1.00  0.00     0.164 C 
HETATM    5  C8  UNL     1      66.348  94.775 118.472  1.00  0.00     0.145 A 
HETATM    6  N1  UNL     1      65.925  96.022 118.728  1.00  0.00    -0.321 N 
ATOM      7  H1  UNL     1      66.168  96.860 118.201  1.00  0.00     0.169 HD
HETATM    8  C9  UNL     1      65.129  95.969 119.796  1.00  0.00     0.168 A 
HETATM    9  N6  UNL     1      65.080  94.681 120.177  1.00  0.00    -0.271 N 
ATOM     10  H6  UNL     1      64.544  94.328 120.971  1.00  0.00     0.189 HD
HETATM   11  N7  UNL     1      65.815  93.944 119.386  1.00  0.00    -0.214 N 
ENDROOT
BRANCH   8  12
HETATM   12  S2  UNL     1      64.275  97.338 120.593  1.00  0.00    -0.016 SA
BRANCH  12  13
HETATM   13  C10 UNL     1      64.614  98.871 119.751  1.00  0.00     0.158 C 
HETATM   14  N2  UNL     1      65.167  99.816 120.412  1.00  0.00    -0.379 N 
ATOM     15  H22 UNL     1      65.412  99.704 121.395  1.00  0.00     0.158 HD
ATOM     16  H21 UNL     1      65.361 100.694 119.930  1.00  0.00     0.158 HD
BRANCH  13  17
HETATM   17  N3  UNL     1      64.272  99.027 118.378  1.00  0.00    -0.264 N 
ATOM     18  H3  UNL     1      63.324  99.334 118.156  1.00  0.00     0.186 HD
BRANCH  17  19
HETATM   19  N4  UNL     1      65.136  98.792 117.326  1.00  0.00    -0.028 NA
BRANCH  19  20
HETATM   20  N5  UNL     1      64.534  98.138 116.252  1.00  0.00    -0.329 N 
ATOM     21  H52 UNL     1      64.384  97.129 116.239  1.00  0.00     0.174 HD
ATOM     22  H51 UNL     1      64.263  98.767 115.496  1.00  0.00     0.174 HD
ENDBRANCH  19  20
ENDBRANCH  17  19
ENDBRANCH  13  17
ENDBRANCH  12  13
ENDBRANCH   8  12
BRANCH   4  23
HETATM   23  O3  UNL     1      66.426  93.657 116.438  1.00  0.00    -0.377 OA
ATOM     24  H3  UNL     1      66.505  94.243 115.694  1.00  0.00     0.211 HD
ENDBRANCH   4  23
BRANCH   4  25
HETATM   25  C6  UNL     1      68.240  95.159 116.916  1.00  0.00     0.158 C 
HETATM   26  C7  UNL     1      67.651  96.033 115.840  1.00  0.00     0.043 C 
BRANCH  25  27
HETATM   27  O4  UNL     1      68.676  95.982 117.952  1.00  0.00    -0.392 OA
ATOM     28  H4  UNL     1      67.954  96.159 118.543  1.00  0.00     0.210 HD
ENDBRANCH  25  27
ENDBRANCH   4  25
BRANCH   1  29
HETATM   29  C2  UNL     1      66.528  92.080 120.790  1.00  0.00     0.169 C 
BRANCH  29  30
HETATM   30  S1  UNL     1      65.101  91.798 121.892  1.00  0.00    -0.166 SA
HETATM   31  C1  UNL     1      65.241  92.929 123.295  1.00  0.00     0.090 C 
ENDBRANCH  29  30
ENDBRANCH   1  29
BRANCH   1  32
HETATM   32  O1  UNL     1      64.845  91.821 119.192  1.00  0.00    -0.347 OA
ATOM     33  H1  UNL     1      64.221  92.478 118.908  1.00  0.00     0.215 HD
ENDBRANCH   1  32
TORSDOF 11
ENDMDL
