MODEL 1
REMARK VINA RESULT: -7.990796726      0.000      0.000
REMARK  12 active torsions:
REMARK  status: ('A' for Active; 'I' for Inactive)
REMARK    1  A    between atoms: N1_1  and  C1_5 
REMARK    2  A    between atoms: C1_5  and  C2_6 
REMARK    3  A    between atoms: C1_5  and  C3_10 
REMARK    4  A    between atoms: C2_6  and  N2_7 
REMARK       I    between atoms: C3_10  and  N3_12 
REMARK    5  A    between atoms: N3_12  and  N4_14 
REMARK       I    between atoms: N4_14  and  C4_16 
REMARK    6  A    between atoms: C4_16  and  C5_18 
REMARK       I    between atoms: C5_18  and  N5_20 
REMARK    7  A    between atoms: N5_20  and  O6_22 
REMARK    8  A    between atoms: O6_22  and  C6_23 
REMARK    9  A    between atoms: C6_23  and  C7_25 
REMARK   10  A    between atoms: C8_27  and  O9_28 
REMARK   11  A    between atoms: C9_30  and  O10_31 
REMARK   12  A    between atoms: C10_33  and  O11_34 
ROOT
HETATM    1  C5  UNL     1      64.090  98.781 116.866  1.00  0.00     0.335 C 
HETATM    2  O5  UNL     1      64.157  99.730 117.675  1.00  0.00    -0.260 OA
HETATM    3  N5  UNL     1      63.644  99.006 115.553  1.00  0.00    -0.217 N 
ATOM      4  H5  UNL     1      63.600  98.208 114.919  1.00  0.00     0.198 HD
ENDROOT
BRANCH   1   5
HETATM    5  C4  UNL     1      64.475  97.454 117.299  1.00  0.00     0.329 C 
HETATM    6  N4  UNL     1      65.829  97.071 117.274  1.00  0.00    -0.259 N 
ATOM      7  H4  UNL     1      66.527  97.742 116.952  1.00  0.00     0.190 HD
HETATM    8  O4  UNL     1      63.574  96.633 117.705  1.00  0.00    -0.261 OA
BRANCH   6   9
HETATM    9  N3  UNL     1      66.241  95.823 117.670  1.00  0.00    -0.265 N 
HETATM   10  C3  UNL     1      66.548  95.456 118.991  1.00  0.00     0.268 C 
HETATM   11  O3  UNL     1      66.433  96.332 119.908  1.00  0.00    -0.269 OA
ATOM     12  H3  UNL     1      66.332  95.106 116.950  1.00  0.00     0.190 HD
BRANCH  10  13
HETATM   13  C1  UNL     1      67.001  94.082 119.338  1.00  0.00     0.300 C 
BRANCH  13  14
HETATM   14  N1  UNL     1      68.263  94.203 120.051  1.00  0.00    -0.065 N 
ATOM     15  H13 UNL     1      68.909  94.854 119.604  1.00  0.00     0.275 HD
ATOM     16  H12 UNL     1      68.169  94.694 120.940  1.00  0.00     0.275 HD
ATOM     17  H11 UNL     1      68.655  93.268 120.155  1.00  0.00     0.275 HD
ENDBRANCH  13  14
BRANCH  13  18
HETATM   18  C2  UNL     1      67.236  93.212 118.123  1.00  0.00     0.243 C 
BRANCH  18  19
HETATM   19  N2  UNL     1      68.599  93.384 117.631  1.00  0.00    -0.153 N 
HETATM   20  O1  UNL     1      69.466  92.517 117.957  1.00  0.00    -0.536 OA
HETATM   21  O2  UNL     1      68.974  94.427 116.843  1.00  0.00    -0.536 OA
ENDBRANCH  18  19
ENDBRANCH  13  18
ENDBRANCH  10  13
ENDBRANCH   6   9
ENDBRANCH   1   5
BRANCH   3  22
HETATM   22  O6  UNL     1      63.261 100.243 115.065  1.00  0.00    -0.190 OA
BRANCH  22  23
HETATM   23  C6  UNL     1      62.030 100.786 115.305  1.00  0.00     0.342 C 
HETATM   24  O7  UNL     1      61.992 102.040 115.508  1.00  0.00    -0.255 OA
BRANCH  23  25
HETATM   25  C7  UNL     1      60.761 100.073 115.347  1.00  0.00     0.191 A 
HETATM   26  O8  UNL     1      59.759 100.202 114.526  1.00  0.00    -0.277 OA
HETATM   27  C8  UNL     1      58.750  99.436 114.810  1.00  0.00     0.221 A 
HETATM   28  C9  UNL     1      59.078  98.709 115.926  1.00  0.00     0.161 A 
HETATM   29  C10 UNL     1      60.367  99.109 116.280  1.00  0.00     0.144 A 
BRANCH  27  30
HETATM   30  O9  UNL     1      57.520  99.341 114.117  1.00  0.00    -0.339 OA
ATOM     31  H9  UNL     1      56.694  99.750 114.347  1.00  0.00     0.220 HD
ENDBRANCH  27  30
BRANCH  28  32
HETATM   32  O10 UNL     1      58.371  97.755 116.640  1.00  0.00    -0.354 OA
ATOM     33  H10 UNL     1      58.378  96.806 116.598  1.00  0.00     0.218 HD
ENDBRANCH  28  32
BRANCH  29  34
HETATM   34  O11 UNL     1      61.120  98.647 117.346  1.00  0.00    -0.355 OA
ATOM     35  H11 UNL     1      60.866  97.967 117.959  1.00  0.00     0.218 HD
ENDBRANCH  29  34
ENDBRANCH  23  25
ENDBRANCH  22  23
ENDBRANCH   3  22
TORSDOF 12
ENDMDL
MODEL 2
REMARK VINA RESULT: -7.924860557      1.339      2.069
REMARK  12 active torsions:
REMARK  status: ('A' for Active; 'I' for Inactive)
REMARK    1  A    between atoms: N1_1  and  C1_5 
REMARK    2  A    between atoms: C1_5  and  C2_6 
REMARK    3  A    between atoms: C1_5  and  C3_10 
REMARK    4  A    between atoms: C2_6  and  N2_7 
REMARK       I    between atoms: C3_10  and  N3_12 
REMARK    5  A    between atoms: N3_12  and  N4_14 
REMARK       I    between atoms: N4_14  and  C4_16 
REMARK    6  A    between atoms: C4_16  and  C5_18 
REMARK       I    between atoms: C5_18  and  N5_20 
REMARK    7  A    between atoms: N5_20  and  O6_22 
REMARK    8  A    between atoms: O6_22  and  C6_23 
REMARK    9  A    between atoms: C6_23  and  C7_25 
REMARK   10  A    between atoms: C8_27  and  O9_28 
REMARK   11  A    between atoms: C9_30  and  O10_31 
REMARK   12  A    between atoms: C10_33  and  O11_34 
ROOT
HETATM    1  C5  UNL     1      64.036  99.438 117.233  1.00  0.00     0.335 C 
HETATM    2  O5  UNL     1      63.991 100.040 118.326  1.00  0.00    -0.260 OA
HETATM    3  N5  UNL     1      63.512 100.040 116.077  1.00  0.00    -0.217 N 
ATOM      4  H5  UNL     1      63.564  99.519 115.201  1.00  0.00     0.198 HD
ENDROOT
BRANCH   1   5
HETATM    5  C4  UNL     1      64.630  98.119 117.175  1.00  0.00     0.329 C 
HETATM    6  N4  UNL     1      65.909  97.947 116.612  1.00  0.00    -0.259 N 
ATOM      7  H4  UNL     1      66.405  98.763 116.253  1.00  0.00     0.190 HD
HETATM    8  O4  UNL     1      63.984  97.111 117.642  1.00  0.00    -0.261 OA
BRANCH   6   9
HETATM    9  N3  UNL     1      66.511  96.715 116.532  1.00  0.00    -0.265 N 
HETATM   10  C3  UNL     1      67.517  96.251 117.395  1.00  0.00     0.268 C 
HETATM   11  O3  UNL     1      67.908  97.013 118.338  1.00  0.00    -0.269 OA
ATOM     12  H3  UNL     1      66.204  96.090 115.788  1.00  0.00     0.190 HD
BRANCH  10  13
HETATM   13  C1  UNL     1      68.129  94.905 117.233  1.00  0.00     0.300 C 
BRANCH  13  14
HETATM   14  N1  UNL     1      67.187  94.082 116.490  1.00  0.00    -0.065 N 
ATOM     15  H13 UNL     1      66.225  94.409 116.573  1.00  0.00     0.275 HD
ATOM     16  H12 UNL     1      67.280  94.189 115.479  1.00  0.00     0.275 HD
ATOM     17  H11 UNL     1      67.304  93.117 116.797  1.00  0.00     0.275 HD
ENDBRANCH  13  14
BRANCH  13  18
HETATM   18  C2  UNL     1      68.406  94.218 118.551  1.00  0.00     0.243 C 
BRANCH  18  19
HETATM   19  N2  UNL     1      68.466  92.771 118.368  1.00  0.00    -0.153 N 
HETATM   20  O1  UNL     1      67.438  92.089 118.659  1.00  0.00    -0.536 OA
HETATM   21  O2  UNL     1      69.572  92.132 117.901  1.00  0.00    -0.536 OA
ENDBRANCH  18  19
ENDBRANCH  13  18
ENDBRANCH  10  13
ENDBRANCH   6   9
ENDBRANCH   1   5
BRANCH   3  22
HETATM   22  O6  UNL     1      62.932 101.295 116.051  1.00  0.00    -0.190 OA
BRANCH  22  23
HETATM   23  C6  UNL     1      61.584 101.487 115.925  1.00  0.00     0.342 C 
HETATM   24  O7  UNL     1      61.173 102.688 115.980  1.00  0.00    -0.255 OA
BRANCH  23  25
HETATM   25  C7  UNL     1      60.576 100.454 115.732  1.00  0.00     0.191 A 
HETATM   26  O8  UNL     1      60.596  99.239 116.199  1.00  0.00    -0.277 OA
HETATM   27  C8  UNL     1      59.559  98.534 115.864  1.00  0.00     0.221 A 
HETATM   28  C9  UNL     1      58.744  99.328 115.097  1.00  0.00     0.161 A 
HETATM   29  C10 UNL     1      59.386 100.563 115.006  1.00  0.00     0.144 A 
BRANCH  27  30
HETATM   30  O9  UNL     1      59.284  97.190 116.208  1.00  0.00    -0.339 OA
ATOM     31  H9  UNL     1      59.020  96.486 115.626  1.00  0.00     0.220 HD
ENDBRANCH  27  30
BRANCH  28  32
HETATM   32  O10 UNL     1      57.525  99.075 114.490  1.00  0.00    -0.354 OA
ATOM     33  H10 UNL     1      56.825  98.471 114.710  1.00  0.00     0.218 HD
ENDBRANCH  28  32
BRANCH  29  34
HETATM   34  O11 UNL     1      58.940 101.687 114.330  1.00  0.00    -0.355 OA
ATOM     35  H11 UNL     1      58.047 102.009 114.306  1.00  0.00     0.218 HD
ENDBRANCH  29  34
ENDBRANCH  23  25
ENDBRANCH  22  23
ENDBRANCH   3  22
TORSDOF 12
ENDMDL
MODEL 3
REMARK VINA RESULT: -7.884428162      1.217      1.991
REMARK  12 active torsions:
REMARK  status: ('A' for Active; 'I' for Inactive)
REMARK    1  A    between atoms: N1_1  and  C1_5 
REMARK    2  A    between atoms: C1_5  and  C2_6 
REMARK    3  A    between atoms: C1_5  and  C3_10 
REMARK    4  A    between atoms: C2_6  and  N2_7 
REMARK       I    between atoms: C3_10  and  N3_12 
REMARK    5  A    between atoms: N3_12  and  N4_14 
REMARK       I    between atoms: N4_14  and  C4_16 
REMARK    6  A    between atoms: C4_16  and  C5_18 
REMARK       I    between atoms: C5_18  and  N5_20 
REMARK    7  A    between atoms: N5_20  and  O6_22 
REMARK    8  A    between atoms: O6_22  and  C6_23 
REMARK    9  A    between atoms: C6_23  and  C7_25 
REMARK   10  A    between atoms: C8_27  and  O9_28 
REMARK   11  A    between atoms: C9_30  and  O10_31 
REMARK   12  A    between atoms: C10_33  and  O11_34 
ROOT
HETATM    1  C5  UNL     1      63.970  99.529 116.261  1.00  0.00     0.335 C 
HETATM    2  O5  UNL     1      63.646  99.122 115.126  1.00  0.00    -0.260 OA
HETATM    3  N5  UNL     1      63.527 100.784 116.712  1.00  0.00    -0.217 N 
ATOM      4  H5  UNL     1      63.812 101.085 117.644  1.00  0.00     0.198 HD
ENDROOT
BRANCH   1   5
HETATM    5  C4  UNL     1      64.804  98.694 117.100  1.00  0.00     0.329 C 
HETATM    6  N4  UNL     1      65.358  97.508 116.584  1.00  0.00    -0.259 N 
ATOM      7  H4  UNL     1      65.166  97.253 115.615  1.00  0.00     0.190 HD
HETATM    8  O4  UNL     1      65.033  99.045 118.315  1.00  0.00    -0.261 OA
BRANCH   6   9
HETATM    9  N3  UNL     1      66.151  96.682 117.343  1.00  0.00    -0.265 N 
HETATM   10  C3  UNL     1      65.690  95.586 118.092  1.00  0.00     0.268 C 
HETATM   11  O3  UNL     1      64.446  95.315 118.069  1.00  0.00    -0.269 OA
ATOM     12  H3  UNL     1      67.151  96.880 117.366  1.00  0.00     0.190 HD
BRANCH  10  13
HETATM   13  C1  UNL     1      66.614  94.747 118.901  1.00  0.00     0.300 C 
BRANCH  13  14
HETATM   14  N1  UNL     1      67.793  95.547 119.191  1.00  0.00    -0.065 N 
ATOM     15  H13 UNL     1      68.475  95.535 118.433  1.00  0.00     0.275 HD
ATOM     16  H12 UNL     1      67.602  96.549 119.186  1.00  0.00     0.275 HD
ATOM     17  H11 UNL     1      68.181  95.223 120.076  1.00  0.00     0.275 HD
ENDBRANCH  13  14
BRANCH  13  18
HETATM   18  C2  UNL     1      67.066  93.498 118.178  1.00  0.00     0.243 C 
BRANCH  18  19
HETATM   19  N2  UNL     1      68.394  93.693 117.608  1.00  0.00    -0.153 N 
HETATM   20  O1  UNL     1      69.352  93.005 118.075  1.00  0.00    -0.536 OA
HETATM   21  O2  UNL     1      68.644  94.576 116.605  1.00  0.00    -0.536 OA
ENDBRANCH  18  19
ENDBRANCH  13  18
ENDBRANCH  10  13
ENDBRANCH   6   9
ENDBRANCH   1   5
BRANCH   3  22
HETATM   22  O6  UNL     1      62.729 101.636 115.971  1.00  0.00    -0.190 OA
BRANCH  22  23
HETATM   23  C6  UNL     1      61.370 101.686 116.108  1.00  0.00     0.342 C 
HETATM   24  O7  UNL     1      60.878 102.791 116.498  1.00  0.00    -0.255 OA
BRANCH  23  25
HETATM   25  C7  UNL     1      60.431 100.603 115.849  1.00  0.00     0.191 A 
HETATM   26  O8  UNL     1      60.499  99.382 116.293  1.00  0.00    -0.277 OA
HETATM   27  C8  UNL     1      59.520  98.626 115.897  1.00  0.00     0.221 A 
HETATM   28  C9  UNL     1      58.697  99.390 115.109  1.00  0.00     0.161 A 
HETATM   29  C10 UNL     1      59.271 100.660 115.071  1.00  0.00     0.144 A 
BRANCH  27  30
HETATM   30  O9  UNL     1      59.307  97.262 116.203  1.00  0.00    -0.339 OA
ATOM     31  H9  UNL     1      58.875  96.609 115.664  1.00  0.00     0.220 HD
ENDBRANCH  27  30
BRANCH  28  32
HETATM   32  O10 UNL     1      57.523  99.082 114.440  1.00  0.00    -0.354 OA
ATOM     33  H10 UNL     1      57.367  98.733 113.571  1.00  0.00     0.218 HD
ENDBRANCH  28  32
BRANCH  29  34
HETATM   34  O11 UNL     1      58.793 101.772 114.396  1.00  0.00    -0.355 OA
ATOM     35  H11 UNL     1      58.673 101.849 113.457  1.00  0.00     0.218 HD
ENDBRANCH  29  34
ENDBRANCH  23  25
ENDBRANCH  22  23
ENDBRANCH   3  22
TORSDOF 12
ENDMDL
MODEL 4
REMARK VINA RESULT: -7.853770344      2.446      8.425
REMARK  12 active torsions:
REMARK  status: ('A' for Active; 'I' for Inactive)
REMARK    1  A    between atoms: N1_1  and  C1_5 
REMARK    2  A    between atoms: C1_5  and  C2_6 
REMARK    3  A    between atoms: C1_5  and  C3_10 
REMARK    4  A    between atoms: C2_6  and  N2_7 
REMARK       I    between atoms: C3_10  and  N3_12 
REMARK    5  A    between atoms: N3_12  and  N4_14 
REMARK       I    between atoms: N4_14  and  C4_16 
REMARK    6  A    between atoms: C4_16  and  C5_18 
REMARK       I    between atoms: C5_18  and  N5_20 
REMARK    7  A    between atoms: N5_20  and  O6_22 
REMARK    8  A    between atoms: O6_22  and  C6_23 
REMARK    9  A    between atoms: C6_23  and  C7_25 
REMARK   10  A    between atoms: C8_27  and  O9_28 
REMARK   11  A    between atoms: C9_30  and  O10_31 
REMARK   12  A    between atoms: C10_33  and  O11_34 
ROOT
HETATM    1  C5  UNL     1      65.699  97.854 117.376  1.00  0.00     0.335 C 
HETATM    2  O5  UNL     1      66.068  98.069 118.549  1.00  0.00    -0.260 OA
HETATM    3  N5  UNL     1      66.476  97.045 116.530  1.00  0.00    -0.217 N 
ATOM      4  H5  UNL     1      66.145  96.892 115.578  1.00  0.00     0.198 HD
ENDROOT
BRANCH   1   5
HETATM    5  C4  UNL     1      64.465  98.447 116.903  1.00  0.00     0.329 C 
HETATM    6  N4  UNL     1      63.339  97.636 116.668  1.00  0.00    -0.259 N 
ATOM      7  H4  UNL     1      63.407  96.633 116.839  1.00  0.00     0.190 HD
HETATM    8  O4  UNL     1      64.408  99.714 116.702  1.00  0.00    -0.261 OA
BRANCH   6   9
HETATM    9  N3  UNL     1      62.150  98.153 116.215  1.00  0.00    -0.265 N 
HETATM   10  C3  UNL     1      61.030  98.423 117.018  1.00  0.00     0.268 C 
HETATM   11  O3  UNL     1      61.106  98.186 118.267  1.00  0.00    -0.269 OA
ATOM     12  H3  UNL     1      62.074  98.356 115.218  1.00  0.00     0.190 HD
BRANCH  10  13
HETATM   13  C1  UNL     1      59.770  98.972 116.447  1.00  0.00     0.300 C 
BRANCH  13  14
HETATM   14  N1  UNL     1      58.818  97.877 116.353  1.00  0.00    -0.065 N 
ATOM     15  H13 UNL     1      59.207  97.053 115.895  1.00  0.00     0.275 HD
ATOM     16  H12 UNL     1      58.617  97.448 117.257  1.00  0.00     0.275 HD
ATOM     17  H11 UNL     1      57.982  98.229 115.888  1.00  0.00     0.275 HD
ENDBRANCH  13  14
BRANCH  13  18
HETATM   18  C2  UNL     1      59.952  99.551 115.062  1.00  0.00     0.243 C 
BRANCH  18  19
HETATM   19  N2  UNL     1      58.715 100.176 114.606  1.00  0.00    -0.153 N 
HETATM   20  O1  UNL     1      58.657 101.443 114.588  1.00  0.00    -0.536 OA
HETATM   21  O2  UNL     1      57.631  99.460 114.203  1.00  0.00    -0.536 OA
ENDBRANCH  18  19
ENDBRANCH  13  18
ENDBRANCH  10  13
ENDBRANCH   6   9
ENDBRANCH   1   5
BRANCH   3  22
HETATM   22  O6  UNL     1      67.663  96.444 116.909  1.00  0.00    -0.190 OA
BRANCH  22  23
HETATM   23  C6  UNL     1      67.820  95.088 116.974  1.00  0.00     0.342 C 
HETATM   24  O7  UNL     1      68.964  94.632 116.661  1.00  0.00    -0.255 OA
BRANCH  23  25
HETATM   25  C7  UNL     1      66.809  94.116 117.368  1.00  0.00     0.191 A 
HETATM   26  O8  UNL     1      66.116  93.342 116.585  1.00  0.00    -0.277 OA
HETATM   27  C8  UNL     1      65.280  92.573 117.216  1.00  0.00     0.221 A 
HETATM   28  C9  UNL     1      65.404  92.835 118.557  1.00  0.00     0.161 A 
HETATM   29  C10 UNL     1      66.383  93.823 118.667  1.00  0.00     0.144 A 
BRANCH  27  30
HETATM   30  O9  UNL     1      64.391  91.627 116.657  1.00  0.00    -0.339 OA
ATOM     31  H9  UNL     1      63.489  91.462 116.908  1.00  0.00     0.220 HD
ENDBRANCH  27  30
BRANCH  28  32
HETATM   32  O10 UNL     1      64.757  92.301 119.659  1.00  0.00    -0.354 OA
ATOM     33  H10 UNL     1      64.919  92.395 120.591  1.00  0.00     0.218 HD
ENDBRANCH  28  32
BRANCH  29  34
HETATM   34  O11 UNL     1      66.850  94.408 119.832  1.00  0.00    -0.355 OA
ATOM     35  H11 UNL     1      66.894  93.997 120.687  1.00  0.00     0.218 HD
ENDBRANCH  29  34
ENDBRANCH  23  25
ENDBRANCH  22  23
ENDBRANCH   3  22
TORSDOF 12
ENDMDL
MODEL 5
REMARK VINA RESULT: -7.805012719      1.564      2.501
REMARK  12 active torsions:
REMARK  status: ('A' for Active; 'I' for Inactive)
REMARK    1  A    between atoms: N1_1  and  C1_5 
REMARK    2  A    between atoms: C1_5  and  C2_6 
REMARK    3  A    between atoms: C1_5  and  C3_10 
REMARK    4  A    between atoms: C2_6  and  N2_7 
REMARK       I    between atoms: C3_10  and  N3_12 
REMARK    5  A    between atoms: N3_12  and  N4_14 
REMARK       I    between atoms: N4_14  and  C4_16 
REMARK    6  A    between atoms: C4_16  and  C5_18 
REMARK       I    between atoms: C5_18  and  N5_20 
REMARK    7  A    between atoms: N5_20  and  O6_22 
REMARK    8  A    between atoms: O6_22  and  C6_23 
REMARK    9  A    between atoms: C6_23  and  C7_25 
REMARK   10  A    between atoms: C8_27  and  O9_28 
REMARK   11  A    between atoms: C9_30  and  O10_31 
REMARK   12  A    between atoms: C10_33  and  O11_34 
ROOT
HETATM    1  C5  UNL     1      63.936  99.329 116.961  1.00  0.00     0.335 C 
HETATM    2  O5  UNL     1      64.141 100.358 116.284  1.00  0.00    -0.260 OA
HETATM    3  N5  UNL     1      62.625  98.968 117.313  1.00  0.00    -0.217 N 
ATOM      4  H5  UNL     1      62.494  98.122 117.867  1.00  0.00     0.198 HD
ENDROOT
BRANCH   1   5
HETATM    5  C4  UNL     1      65.063  98.519 117.375  1.00  0.00     0.329 C 
HETATM    6  N4  UNL     1      65.511  97.465 116.556  1.00  0.00    -0.259 N 
ATOM      7  H4  UNL     1      65.034  97.289 115.672  1.00  0.00     0.190 HD
HETATM    8  O4  UNL     1      65.647  98.770 118.491  1.00  0.00    -0.261 OA
BRANCH   6   9
HETATM    9  N3  UNL     1      66.572  96.668 116.909  1.00  0.00    -0.265 N 
HETATM   10  C3  UNL     1      66.474  95.476 117.647  1.00  0.00     0.268 C 
HETATM   11  O3  UNL     1      65.321  95.084 118.018  1.00  0.00    -0.269 OA
ATOM     12  H3  UNL     1      67.502  96.963 116.614  1.00  0.00     0.190 HD
BRANCH  10  13
HETATM   13  C1  UNL     1      67.676  94.674 118.002  1.00  0.00     0.300 C 
BRANCH  13  14
HETATM   14  N1  UNL     1      68.604  94.758 116.885  1.00  0.00    -0.065 N 
ATOM     15  H13 UNL     1      68.621  93.908 116.321  1.00  0.00     0.275 HD
ATOM     16  H12 UNL     1      68.289  95.398 116.156  1.00  0.00     0.275 HD
ATOM     17  H11 UNL     1      69.521  95.003 117.257  1.00  0.00     0.275 HD
ENDBRANCH  13  14
BRANCH  13  18
HETATM   18  C2  UNL     1      67.364  93.214 118.238  1.00  0.00     0.243 C 
BRANCH  18  19
HETATM   19  N2  UNL     1      68.547  92.513 118.726  1.00  0.00    -0.153 N 
HETATM   20  O1  UNL     1      68.571  92.158 119.943  1.00  0.00    -0.536 OA
HETATM   21  O2  UNL     1      69.616  92.229 117.934  1.00  0.00    -0.536 OA
ENDBRANCH  18  19
ENDBRANCH  13  18
ENDBRANCH  10  13
ENDBRANCH   6   9
ENDBRANCH   1   5
BRANCH   3  22
HETATM   22  O6  UNL     1      61.500  99.688 116.954  1.00  0.00    -0.190 OA
BRANCH  22  23
HETATM   23  C6  UNL     1      60.472  99.149 116.233  1.00  0.00     0.342 C 
HETATM   24  O7  UNL     1      60.322  97.889 116.310  1.00  0.00    -0.255 OA
BRANCH  23  25
HETATM   25  C7  UNL     1      59.531  99.873 115.389  1.00  0.00     0.191 A 
HETATM   26  O8  UNL     1      58.499  99.384 114.764  1.00  0.00    -0.277 OA
HETATM   27  C8  UNL     1      57.837 100.267 114.079  1.00  0.00     0.221 A 
HETATM   28  C9  UNL     1      58.463 101.477 114.243  1.00  0.00     0.161 A 
HETATM   29  C10 UNL     1      59.551 101.237 115.082  1.00  0.00     0.144 A 
BRANCH  27  30
HETATM   30  O9  UNL     1      56.678 100.058 113.297  1.00  0.00    -0.339 OA
ATOM     31  H9  UNL     1      55.878 100.570 113.299  1.00  0.00     0.220 HD
ENDBRANCH  27  30
BRANCH  28  32
HETATM   32  O10 UNL     1      58.173 102.735 113.740  1.00  0.00    -0.354 OA
ATOM     33  H10 UNL     1      57.359 103.119 113.436  1.00  0.00     0.218 HD
ENDBRANCH  28  32
BRANCH  29  34
HETATM   34  O11 UNL     1      60.478 102.163 115.531  1.00  0.00    -0.355 OA
ATOM     35  H11 UNL     1      61.237 102.474 115.052  1.00  0.00     0.218 HD
ENDBRANCH  29  34
ENDBRANCH  23  25
ENDBRANCH  22  23
ENDBRANCH   3  22
TORSDOF 12
ENDMDL
