MODEL 1
REMARK VINA RESULT: -7.983805128      0.000      0.000
REMARK  9 active torsions:
REMARK  status: ('A' for Active; 'I' for Inactive)
REMARK       I    between atoms: C1_4  and  N3_6 
REMARK       I    between atoms: N3_6  and  C2_8 
REMARK       I    between atoms: C2_8  and  N4_10 
REMARK    1  A    between atoms: N4_10  and  C3_12 
REMARK    2  A    between atoms: C3_12  and  O2_13 
REMARK    3  A    between atoms: C3_12  and  C4_15 
REMARK    4  A    between atoms: C4_15  and  O3_16 
REMARK    5  A    between atoms: C4_15  and  C5_18 
REMARK    6  A    between atoms: C6_22  and  C7_23 
REMARK    7  A    between atoms: C7_23  and  O6_25 
REMARK    8  A    between atoms: O6_25  and  S1_26 
REMARK    9  A    between atoms: C8_30  and  O10_31 
ROOT
HETATM    1  C4  UNL     1      65.278  98.845 119.624  1.00  0.00     0.228 C 
ENDROOT
BRANCH   1   2
HETATM    2  C3  UNL     1      63.988  99.479 119.199  1.00  0.00     0.257 C 
BRANCH   2   3
HETATM    3  N4  UNL     1      63.050  98.567 118.617  1.00  0.00    -0.314 N 
HETATM    4  C2  UNL     1      61.909  98.957 117.889  1.00  0.00     0.324 C 
HETATM    5  N3  UNL     1      61.014  98.011 117.334  1.00  0.00    -0.283 N 
HETATM    6  O1  UNL     1      61.671 100.174 117.721  1.00  0.00    -0.247 OA
HETATM    7  C1  UNL     1      59.858  98.390 116.596  1.00  0.00     0.189 C 
ATOM      8  H3  UNL     1      61.205  97.019 117.470  1.00  0.00     0.173 HD
HETATM    9  N1  UNL     1      59.069  97.503 116.108  1.00  0.00    -0.373 N 
HETATM   10  N2  UNL     1      59.548  99.778 116.377  1.00  0.00    -0.064 NA
ATOM     11  H12 UNL     1      58.240  97.774 115.579  1.00  0.00     0.158 HD
ATOM     12  H11 UNL     1      59.289  96.519 116.264  1.00  0.00     0.158 HD
ATOM     13  H4  UNL     1      63.220  97.568 118.737  1.00  0.00     0.167 HD
ENDBRANCH   2   3
BRANCH   2  14
HETATM   14  O2  UNL     1      64.288 100.423 118.190  1.00  0.00    -0.374 OA
ATOM     15  H2  UNL     1      64.147 101.277 118.581  1.00  0.00     0.212 HD
ENDBRANCH   2  14
ENDBRANCH   1   2
BRANCH   1  16
HETATM   16  O3  UNL     1      66.236  99.803 119.979  1.00  0.00    -0.384 OA
ATOM     17  H3  UNL     1      66.553 100.283 119.223  1.00  0.00     0.210 HD
ENDBRANCH   1  16
BRANCH   1  18
HETATM   18  C5  UNL     1      65.835  98.072 118.499  1.00  0.00     0.144 A 
HETATM   19  O4  UNL     1      65.658  98.317 117.231  1.00  0.00    -0.236 OA
HETATM   20  N5  UNL     1      66.279  97.455 116.498  1.00  0.00    -0.252 N 
HETATM   21  C6  UNL     1      66.918  96.567 117.309  1.00  0.00     0.166 A 
ATOM     22  H5  UNL     1      66.289  97.441 115.477  1.00  0.00     0.195 HD
HETATM   23  C8  UNL     1      66.638  96.956 118.594  1.00  0.00     0.135 A 
BRANCH  21  24
HETATM   24  C7  UNL     1      67.717  95.455 116.811  1.00  0.00     0.331 C 
HETATM   25  O5  UNL     1      67.542  95.016 115.632  1.00  0.00    -0.256 OA
BRANCH  24  26
HETATM   26  O6  UNL     1      68.687  94.815 117.547  1.00  0.00    -0.171 OA
BRANCH  26  27
HETATM   27  S1  UNL     1      68.501  93.345 118.337  1.00  0.00     0.259 S 
HETATM   28  O7  UNL     1      67.108  92.812 118.078  1.00  0.00    -0.572 OA
HETATM   29  O8  UNL     1      68.598  93.587 119.829  1.00  0.00    -0.572 OA
HETATM   30  O9  UNL     1      69.643  92.218 117.926  1.00  0.00    -0.572 OA
ENDBRANCH  26  27
ENDBRANCH  24  26
ENDBRANCH  21  24
BRANCH  23  31
HETATM   31  O10 UNL     1      67.090  96.329 119.756  1.00  0.00    -0.356 OA
ATOM     32  H10 UNL     1      66.868  95.460 120.070  1.00  0.00     0.218 HD
ENDBRANCH  23  31
ENDBRANCH   1  18
TORSDOF 9
ENDMDL
MODEL 2
REMARK VINA RESULT: -7.942729985      6.429     10.476
REMARK  9 active torsions:
REMARK  status: ('A' for Active; 'I' for Inactive)
REMARK       I    between atoms: C1_4  and  N3_6 
REMARK       I    between atoms: N3_6  and  C2_8 
REMARK       I    between atoms: C2_8  and  N4_10 
REMARK    1  A    between atoms: N4_10  and  C3_12 
REMARK    2  A    between atoms: C3_12  and  O2_13 
REMARK    3  A    between atoms: C3_12  and  C4_15 
REMARK    4  A    between atoms: C4_15  and  O3_16 
REMARK    5  A    between atoms: C4_15  and  C5_18 
REMARK    6  A    between atoms: C6_22  and  C7_23 
REMARK    7  A    between atoms: C7_23  and  O6_25 
REMARK    8  A    between atoms: O6_25  and  S1_26 
REMARK    9  A    between atoms: C8_30  and  O10_31 
ROOT
HETATM    1  C4  UNL     1      63.440 101.880 115.130  1.00  0.00     0.228 C 
ENDROOT
BRANCH   1   2
HETATM    2  C3  UNL     1      63.167 100.720 116.040  1.00  0.00     0.257 C 
BRANCH   2   3
HETATM    3  N4  UNL     1      63.985  99.573 115.788  1.00  0.00    -0.314 N 
HETATM    4  C2  UNL     1      64.715  98.884 116.776  1.00  0.00     0.324 C 
HETATM    5  N3  UNL     1      65.509  97.753 116.470  1.00  0.00    -0.283 N 
HETATM    6  O1  UNL     1      64.666  99.276 117.963  1.00  0.00    -0.247 OA
HETATM    7  C1  UNL     1      66.251  97.047 117.458  1.00  0.00     0.189 C 
ATOM      8  H3  UNL     1      65.552  97.433 115.503  1.00  0.00     0.173 HD
HETATM    9  N1  UNL     1      66.961  96.026 117.141  1.00  0.00    -0.373 N 
HETATM   10  N2  UNL     1      66.221  97.461 118.836  1.00  0.00    -0.064 NA
ATOM     11  H12 UNL     1      67.493  95.519 117.849  1.00  0.00     0.158 HD
ATOM     12  H11 UNL     1      66.983  95.732 116.165  1.00  0.00     0.158 HD
ATOM     13  H4  UNL     1      64.043  99.231 114.828  1.00  0.00     0.167 HD
ENDBRANCH   2   3
BRANCH   2  14
HETATM   14  O2  UNL     1      61.835 100.305 115.814  1.00  0.00    -0.374 OA
ATOM     15  H2  UNL     1      61.695 100.375 114.877  1.00  0.00     0.212 HD
ENDBRANCH   2  14
ENDBRANCH   1   2
BRANCH   1  16
HETATM   16  O3  UNL     1      64.804 102.195 115.084  1.00  0.00    -0.384 OA
ATOM     17  H3  UNL     1      65.066 102.503 114.225  1.00  0.00     0.210 HD
ENDBRANCH   1  16
BRANCH   1  18
HETATM   18  C5  UNL     1      62.735 103.073 115.635  1.00  0.00     0.144 A 
HETATM   19  O4  UNL     1      61.819 103.093 116.562  1.00  0.00    -0.236 OA
HETATM   20  N5  UNL     1      61.400 104.296 116.776  1.00  0.00    -0.252 N 
HETATM   21  C6  UNL     1      62.066 105.148 115.949  1.00  0.00     0.166 A 
ATOM     22  H5  UNL     1      60.686 104.563 117.455  1.00  0.00     0.195 HD
HETATM   23  C8  UNL     1      62.925 104.371 115.214  1.00  0.00     0.135 A 
BRANCH  21  24
HETATM   24  C7  UNL     1      61.837 106.587 115.926  1.00  0.00     0.331 C 
HETATM   25  O5  UNL     1      61.465 107.195 116.977  1.00  0.00    -0.256 OA
BRANCH  24  26
HETATM   26  O6  UNL     1      61.999 107.373 114.808  1.00  0.00    -0.171 OA
BRANCH  26  27
HETATM   27  S1  UNL     1      60.858 108.439 114.193  1.00  0.00     0.259 S 
HETATM   28  O7  UNL     1      60.927 108.425 112.680  1.00  0.00    -0.572 OA
HETATM   29  O8  UNL     1      61.227 109.842 114.628  1.00  0.00    -0.572 OA
HETATM   30  O9  UNL     1      59.313 108.134 114.708  1.00  0.00    -0.572 OA
ENDBRANCH  26  27
ENDBRANCH  24  26
ENDBRANCH  21  24
BRANCH  23  31
HETATM   31  O10 UNL     1      63.809 104.829 114.236  1.00  0.00    -0.356 OA
ATOM     32  H10 UNL     1      64.739 105.001 114.331  1.00  0.00     0.218 HD
ENDBRANCH  23  31
ENDBRANCH   1  18
TORSDOF 9
ENDMDL
MODEL 3
REMARK VINA RESULT: -7.700592744      6.371     10.290
REMARK  9 active torsions:
REMARK  status: ('A' for Active; 'I' for Inactive)
REMARK       I    between atoms: C1_4  and  N3_6 
REMARK       I    between atoms: N3_6  and  C2_8 
REMARK       I    between atoms: C2_8  and  N4_10 
REMARK    1  A    between atoms: N4_10  and  C3_12 
REMARK    2  A    between atoms: C3_12  and  O2_13 
REMARK    3  A    between atoms: C3_12  and  C4_15 
REMARK    4  A    between atoms: C4_15  and  O3_16 
REMARK    5  A    between atoms: C4_15  and  C5_18 
REMARK    6  A    between atoms: C6_22  and  C7_23 
REMARK    7  A    between atoms: C7_23  and  O6_25 
REMARK    8  A    between atoms: O6_25  and  S1_26 
REMARK    9  A    between atoms: C8_30  and  O10_31 
ROOT
HETATM    1  C4  UNL     1      63.090 101.422 115.299  1.00  0.00     0.228 C 
ENDROOT
BRANCH   1   2
HETATM    2  C3  UNL     1      62.474 100.516 116.322  1.00  0.00     0.257 C 
BRANCH   2   3
HETATM    3  N4  UNL     1      62.985  99.179 116.303  1.00  0.00    -0.314 N 
HETATM    4  C2  UNL     1      64.083  98.737 117.067  1.00  0.00     0.324 C 
HETATM    5  N3  UNL     1      64.547  97.401 117.009  1.00  0.00    -0.283 N 
HETATM    6  O1  UNL     1      64.672  99.541 117.822  1.00  0.00    -0.247 OA
HETATM    7  C1  UNL     1      65.654  96.939 117.775  1.00  0.00     0.189 C 
ATOM      8  H3  UNL     1      64.069  96.743 116.393  1.00  0.00     0.173 HD
HETATM    9  N1  UNL     1      66.046  95.720 117.696  1.00  0.00    -0.373 N 
HETATM   10  N2  UNL     1      66.358  97.830 118.659  1.00  0.00    -0.064 NA
ATOM     11  H12 UNL     1      66.839  95.388 118.245  1.00  0.00     0.158 HD
ATOM     12  H11 UNL     1      65.547  95.089 117.069  1.00  0.00     0.158 HD
ATOM     13  H4  UNL     1      62.523  98.501 115.697  1.00  0.00     0.167 HD
ENDBRANCH   2   3
BRANCH   2  14
HETATM   14  O2  UNL     1      61.096 100.410 116.024  1.00  0.00    -0.374 OA
ATOM     15  H2  UNL     1      60.691 100.026 116.793  1.00  0.00     0.212 HD
ENDBRANCH   2  14
ENDBRANCH   1   2
BRANCH   1  16
HETATM   16  O3  UNL     1      64.486 101.460 115.411  1.00  0.00    -0.384 OA
ATOM     17  H3  UNL     1      64.877 102.026 114.756  1.00  0.00     0.210 HD
ENDBRANCH   1  16
BRANCH   1  18
HETATM   18  C5  UNL     1      62.601 102.797 115.507  1.00  0.00     0.144 A 
HETATM   19  O4  UNL     1      61.642 103.162 116.311  1.00  0.00    -0.236 OA
HETATM   20  N5  UNL     1      61.454 104.438 116.264  1.00  0.00    -0.252 N 
HETATM   21  C6  UNL     1      62.333 104.980 115.376  1.00  0.00     0.166 A 
ATOM     22  H5  UNL     1      60.760 104.956 116.804  1.00  0.00     0.195 HD
HETATM   23  C8  UNL     1      63.072 103.934 114.886  1.00  0.00     0.135 A 
BRANCH  21  24
HETATM   24  C7  UNL     1      62.395 106.404 115.075  1.00  0.00     0.331 C 
HETATM   25  O5  UNL     1      63.338 106.870 114.363  1.00  0.00    -0.256 OA
BRANCH  24  26
HETATM   26  O6  UNL     1      61.474 107.324 115.520  1.00  0.00    -0.171 OA
BRANCH  26  27
HETATM   27  S1  UNL     1      60.659 108.433 114.558  1.00  0.00     0.259 S 
HETATM   28  O7  UNL     1      61.085 109.834 114.942  1.00  0.00    -0.572 OA
HETATM   29  O8  UNL     1      59.178 108.335 114.860  1.00  0.00    -0.572 OA
HETATM   30  O9  UNL     1      60.867 108.185 112.933  1.00  0.00    -0.572 OA
ENDBRANCH  26  27
ENDBRANCH  24  26
ENDBRANCH  21  24
BRANCH  23  31
HETATM   31  O10 UNL     1      64.097 104.026 113.944  1.00  0.00    -0.356 OA
ATOM     32  H10 UNL     1      64.205 104.684 113.268  1.00  0.00     0.218 HD
ENDBRANCH  23  31
ENDBRANCH   1  18
TORSDOF 9
ENDMDL
MODEL 4
REMARK VINA RESULT: -7.686986058      1.562      2.236
REMARK  9 active torsions:
REMARK  status: ('A' for Active; 'I' for Inactive)
REMARK       I    between atoms: C1_4  and  N3_6 
REMARK       I    between atoms: N3_6  and  C2_8 
REMARK       I    between atoms: C2_8  and  N4_10 
REMARK    1  A    between atoms: N4_10  and  C3_12 
REMARK    2  A    between atoms: C3_12  and  O2_13 
REMARK    3  A    between atoms: C3_12  and  C4_15 
REMARK    4  A    between atoms: C4_15  and  O3_16 
REMARK    5  A    between atoms: C4_15  and  C5_18 
REMARK    6  A    between atoms: C6_22  and  C7_23 
REMARK    7  A    between atoms: C7_23  and  O6_25 
REMARK    8  A    between atoms: O6_25  and  S1_26 
REMARK    9  A    between atoms: C8_30  and  O10_31 
ROOT
HETATM    1  C4  UNL     1      65.171  98.799 119.670  1.00  0.00     0.228 C 
ENDROOT
BRANCH   1   2
HETATM    2  C3  UNL     1      64.335  99.235 118.503  1.00  0.00     0.257 C 
BRANCH   2   3
HETATM    3  N4  UNL     1      63.137  98.473 118.324  1.00  0.00    -0.314 N 
HETATM    4  C2  UNL     1      62.119  98.798 117.407  1.00  0.00     0.324 C 
HETATM    5  N3  UNL     1      60.952  98.007 117.271  1.00  0.00    -0.283 N 
HETATM    6  O1  UNL     1      62.239  99.812 116.686  1.00  0.00    -0.247 OA
HETATM    7  C1  UNL     1      59.915  98.322 116.349  1.00  0.00     0.189 C 
ATOM      8  H3  UNL     1      60.850  97.180 117.859  1.00  0.00     0.173 HD
HETATM    9  N1  UNL     1      58.871  97.581 116.255  1.00  0.00    -0.373 N 
HETATM   10  N2  UNL     1      60.015  99.478 115.498  1.00  0.00    -0.064 NA
ATOM     11  H12 UNL     1      58.128  97.806 115.593  1.00  0.00     0.158 HD
ATOM     12  H11 UNL     1      58.801  96.762 116.857  1.00  0.00     0.158 HD
ATOM     13  H4  UNL     1      63.012  97.639 118.899  1.00  0.00     0.167 HD
ENDBRANCH   2   3
BRANCH   2  14
HETATM   14  O2  UNL     1      65.101  99.035 117.332  1.00  0.00    -0.374 OA
ATOM     15  H2  UNL     1      65.085  99.863 116.865  1.00  0.00     0.212 HD
ENDBRANCH   2  14
ENDBRANCH   1   2
BRANCH   1  16
HETATM   16  O3  UNL     1      66.513  99.171 119.515  1.00  0.00    -0.384 OA
ATOM     17  H3  UNL     1      66.737  99.312 118.603  1.00  0.00     0.210 HD
ENDBRANCH   1  16
BRANCH   1  18
HETATM   18  C5  UNL     1      65.138  97.328 119.771  1.00  0.00     0.144 A 
HETATM   19  O4  UNL     1      64.315  96.623 120.494  1.00  0.00    -0.236 OA
HETATM   20  N5  UNL     1      64.546  95.359 120.364  1.00  0.00    -0.252 N 
HETATM   21  C6  UNL     1      65.588  95.189 119.503  1.00  0.00     0.166 A 
ATOM     22  H5  UNL     1      64.032  94.611 120.831  1.00  0.00     0.195 HD
HETATM   23  C8  UNL     1      65.973  96.447 119.118  1.00  0.00     0.135 A 
BRANCH  21  24
HETATM   24  C7  UNL     1      66.115  93.883 119.130  1.00  0.00     0.331 C 
HETATM   25  O5  UNL     1      65.854  92.859 119.836  1.00  0.00    -0.256 OA
BRANCH  24  26
HETATM   26  O6  UNL     1      66.908  93.660 118.028  1.00  0.00    -0.171 OA
BRANCH  26  27
HETATM   27  S1  UNL     1      68.575  93.846 117.971  1.00  0.00     0.259 S 
HETATM   28  O7  UNL     1      69.027  94.656 119.168  1.00  0.00    -0.572 OA
HETATM   29  O8  UNL     1      68.927  94.660 116.743  1.00  0.00    -0.572 OA
HETATM   30  O9  UNL     1      69.403  92.414 117.890  1.00  0.00    -0.572 OA
ENDBRANCH  26  27
ENDBRANCH  24  26
ENDBRANCH  21  24
BRANCH  23  31
HETATM   31  O10 UNL     1      67.010  96.752 118.235  1.00  0.00    -0.356 OA
ATOM     32  H10 UNL     1      67.249  97.606 117.895  1.00  0.00     0.218 HD
ENDBRANCH  23  31
ENDBRANCH   1  18
TORSDOF 9
ENDMDL
MODEL 5
REMARK VINA RESULT: -7.652560308      6.591     10.348
REMARK  9 active torsions:
REMARK  status: ('A' for Active; 'I' for Inactive)
REMARK       I    between atoms: C1_4  and  N3_6 
REMARK       I    between atoms: N3_6  and  C2_8 
REMARK       I    between atoms: C2_8  and  N4_10 
REMARK    1  A    between atoms: N4_10  and  C3_12 
REMARK    2  A    between atoms: C3_12  and  O2_13 
REMARK    3  A    between atoms: C3_12  and  C4_15 
REMARK    4  A    between atoms: C4_15  and  O3_16 
REMARK    5  A    between atoms: C4_15  and  C5_18 
REMARK    6  A    between atoms: C6_22  and  C7_23 
REMARK    7  A    between atoms: C7_23  and  O6_25 
REMARK    8  A    between atoms: O6_25  and  S1_26 
REMARK    9  A    between atoms: C8_30  and  O10_31 
ROOT
HETATM    1  C4  UNL     1      64.075 103.412 116.003  1.00  0.00     0.228 C 
ENDROOT
BRANCH   1   2
HETATM    2  C3  UNL     1      63.717 101.959 116.090  1.00  0.00     0.257 C 
BRANCH   2   3
HETATM    3  N4  UNL     1      62.392 101.654 115.642  1.00  0.00    -0.314 N 
HETATM    4  C2  UNL     1      61.739 100.427 115.871  1.00  0.00     0.324 C 
HETATM    5  N3  UNL     1      60.426 100.178 115.404  1.00  0.00    -0.283 N 
HETATM    6  O1  UNL     1      62.328  99.524 116.505  1.00  0.00    -0.247 OA
HETATM    7  C1  UNL     1      59.752  98.945 115.629  1.00  0.00     0.189 C 
ATOM      8  H3  UNL     1      59.943 100.912 114.886  1.00  0.00     0.173 HD
HETATM    9  N1  UNL     1      58.562  98.756 115.189  1.00  0.00    -0.373 N 
HETATM   10  N2  UNL     1      60.392  97.880 116.356  1.00  0.00    -0.064 NA
ATOM     11  H12 UNL     1      58.079  97.872 115.350  1.00  0.00     0.158 HD
ATOM     12  H11 UNL     1      58.109  99.510 114.674  1.00  0.00     0.158 HD
ATOM     13  H4  UNL     1      61.888 102.372 115.122  1.00  0.00     0.167 HD
ENDBRANCH   2   3
BRANCH   2  14
HETATM   14  O2  UNL     1      63.760 101.590 117.454  1.00  0.00    -0.374 OA
ATOM     15  H2  UNL     1      64.676 101.620 117.704  1.00  0.00     0.212 HD
ENDBRANCH   2  14
ENDBRANCH   1   2
BRANCH   1  16
HETATM   16  O3  UNL     1      65.231 103.708 116.736  1.00  0.00    -0.384 OA
ATOM     17  H3  UNL     1      65.980 103.851 116.170  1.00  0.00     0.210 HD
ENDBRANCH   1  16
BRANCH   1  18
HETATM   18  C5  UNL     1      62.981 104.219 116.575  1.00  0.00     0.144 A 
HETATM   19  O4  UNL     1      62.099 103.816 117.446  1.00  0.00    -0.236 OA
HETATM   20  N5  UNL     1      61.273 104.762 117.746  1.00  0.00    -0.252 N 
HETATM   21  C6  UNL     1      61.608 105.878 117.039  1.00  0.00     0.166 A 
ATOM     22  H5  UNL     1      60.498 104.687 118.405  1.00  0.00     0.195 HD
HETATM   23  C8  UNL     1      62.702 105.537 116.286  1.00  0.00     0.135 A 
BRANCH  21  24
HETATM   24  C7  UNL     1      60.880 107.136 117.135  1.00  0.00     0.331 C 
HETATM   25  O5  UNL     1      59.979 107.292 118.016  1.00  0.00    -0.256 OA
BRANCH  24  26
HETATM   26  O6  UNL     1      61.101 108.216 116.311  1.00  0.00    -0.171 OA
BRANCH  26  27
HETATM   27  S1  UNL     1      60.522 108.381 114.744  1.00  0.00     0.259 S 
HETATM   28  O7  UNL     1      60.935 109.732 114.199  1.00  0.00    -0.572 OA
HETATM   29  O8  UNL     1      59.007 108.380 114.788  1.00  0.00    -0.572 OA
HETATM   30  O9  UNL     1      61.004 107.169 113.723  1.00  0.00    -0.572 OA
ENDBRANCH  26  27
ENDBRANCH  24  26
ENDBRANCH  21  24
BRANCH  23  31
HETATM   31  O10 UNL     1      63.384 106.378 115.405  1.00  0.00    -0.356 OA
ATOM     32  H10 UNL     1      63.056 107.164 114.983  1.00  0.00     0.218 HD
ENDBRANCH  23  31
ENDBRANCH   1  18
TORSDOF 9
ENDMDL
