MODEL 1
REMARK VINA RESULT: -8.941458006      0.000      0.000
REMARK  8 active torsions:
REMARK  status: ('A' for Active; 'I' for Inactive)
REMARK    1  A    between atoms: C3_3  and  C4_4 
REMARK       I    between atoms: C4_4  and  N1_6 
REMARK    2  A    between atoms: N1_6  and  N2_8 
REMARK    3  A    between atoms: N2_8  and  C5_10 
REMARK    4  A    between atoms: C7_13  and  N4_14 
REMARK    5  A    between atoms: N4_14  and  O2_16 
REMARK    6  A    between atoms: C8_20  and  N6_21 
REMARK    7  A    between atoms: N7_24  and  N8_25 
REMARK    8  A    between atoms: C10_32  and  N10_33 
ROOT
HETATM    1  C1  UNL     1      62.543  97.089 118.126  1.00  0.00     0.073 C 
HETATM    2  C2  UNL     1      63.080  98.094 117.160  1.00  0.00     0.074 A 
HETATM    3  C3  UNL     1      64.369  98.470 116.924  1.00  0.00     0.142 A 
HETATM    4  N9  UNL     1      64.311  99.415 115.951  1.00  0.00    -0.183 N 
ATOM      5  H9  UNL     1      65.119  99.894 115.554  1.00  0.00     0.184 HD
HETATM    6  C10 UNL     1      63.040  99.629 115.586  1.00  0.00     0.692 A 
HETATM    7  N11 UNL     1      62.271  98.820 116.324  1.00  0.00    -0.083 N 
HETATM    8  C11 UNL     1      60.878  98.735 116.252  1.00  0.00     0.204 C 
HETATM    9  N12 UNL     1      59.722  98.658 116.205  1.00  0.00    -0.171 NA
ENDROOT
BRANCH   6  10
HETATM   10  N10 UNL     1      62.627 100.464 114.683  1.00  0.00    -0.233 N 
ATOM     11 2H10 UNL     1      61.899 101.168 114.802  1.00  0.00     0.174 HD
ATOM     12 1H10 UNL     1      62.969 100.538 113.725  1.00  0.00     0.174 HD
ENDBRANCH   6  10
BRANCH   3  13
HETATM   13  C4  UNL     1      65.578  97.993 117.551  1.00  0.00     0.289 C 
HETATM   14  O1  UNL     1      66.011  98.712 118.531  1.00  0.00    -0.264 OA
HETATM   15  N1  UNL     1      66.341  96.863 117.239  1.00  0.00    -0.263 N 
ATOM     16  H1  UNL     1      66.062  96.247 116.476  1.00  0.00     0.190 HD
BRANCH  15  17
HETATM   17  N2  UNL     1      67.514  96.583 118.002  1.00  0.00    -0.284 N 
ATOM     18  H2  UNL     1      67.943  97.323 118.558  1.00  0.00     0.188 HD
BRANCH  17  19
HETATM   19  C5  UNL     1      68.035  95.411 117.998  1.00  0.00     0.150 C 
HETATM   20  N3  UNL     1      68.769  94.989 116.869  1.00  0.00    -0.080 NA
HETATM   21  C6  UNL     1      67.871  94.536 119.133  1.00  0.00     0.123 A 
HETATM   22  C7  UNL     1      68.450  93.263 119.099  1.00  0.00     0.160 A 
HETATM   23  C9  UNL     1      67.155  94.911 120.265  1.00  0.00     0.299 A 
HETATM   24  N5  UNL     1      68.303  92.441 120.152  1.00  0.00    -0.172 N 
HETATM   25  C8  UNL     1      67.602  92.860 121.214  1.00  0.00     0.701 A 
ATOM     26  H5  UNL     1      68.719  91.510 120.142  1.00  0.00     0.186 HD
HETATM   27  N7  UNL     1      67.023  94.070 121.303  1.00  0.00    -0.054 N 
HETATM   28  O3  UNL     1      66.629  96.050 120.311  1.00  0.00    -0.264 OA
BRANCH  22  29
HETATM   29  N4  UNL     1      69.188  92.852 117.954  1.00  0.00    -0.252 N 
ATOM     30  H4  UNL     1      69.283  93.452 117.135  1.00  0.00     0.196 HD
BRANCH  29  31
HETATM   31  O2  UNL     1      69.717  91.707 118.004  1.00  0.00    -0.288 OA
ATOM     32  H2  UNL     1      70.211  91.499 118.789  1.00  0.00     0.244 HD
ENDBRANCH  29  31
ENDBRANCH  22  29
BRANCH  25  33
HETATM   33  N6  UNL     1      67.454  92.071 122.238  1.00  0.00    -0.233 N 
ATOM     34  H62 UNL     1      67.577  91.074 122.064  1.00  0.00     0.174 HD
ATOM     35  H61 UNL     1      67.227  92.467 123.150  1.00  0.00     0.174 HD
ENDBRANCH  25  33
BRANCH  27  36
HETATM   36  N8  UNL     1      66.304  94.437 122.453  1.00  0.00    -0.321 N 
ATOM     37  H82 UNL     1      66.721  95.025 123.175  1.00  0.00     0.178 HD
ATOM     38  H81 UNL     1      65.344  94.119 122.589  1.00  0.00     0.178 HD
ENDBRANCH  27  36
ENDBRANCH  17  19
ENDBRANCH  15  17
ENDBRANCH   3  13
TORSDOF 8
ENDMDL
MODEL 2
REMARK VINA RESULT: -8.498648361      2.683      8.593
REMARK  8 active torsions:
REMARK  status: ('A' for Active; 'I' for Inactive)
REMARK    1  A    between atoms: C3_3  and  C4_4 
REMARK       I    between atoms: C4_4  and  N1_6 
REMARK    2  A    between atoms: N1_6  and  N2_8 
REMARK    3  A    between atoms: N2_8  and  C5_10 
REMARK    4  A    between atoms: C7_13  and  N4_14 
REMARK    5  A    between atoms: N4_14  and  O2_16 
REMARK    6  A    between atoms: C8_20  and  N6_21 
REMARK    7  A    between atoms: N7_24  and  N8_25 
REMARK    8  A    between atoms: C10_32  and  N10_33 
ROOT
HETATM    1  C1  UNL     1      67.830  95.888 118.193  1.00  0.00     0.073 C 
HETATM    2  C2  UNL     1      66.767  94.840 118.266  1.00  0.00     0.074 A 
HETATM    3  C3  UNL     1      65.417  94.979 118.387  1.00  0.00     0.142 A 
HETATM    4  N9  UNL     1      64.911  93.719 118.408  1.00  0.00    -0.183 N 
ATOM      5  H9  UNL     1      63.921  93.489 118.490  1.00  0.00     0.184 HD
HETATM    6  C10 UNL     1      65.899  92.821 118.304  1.00  0.00     0.692 A 
HETATM    7  N11 UNL     1      67.048  93.499 118.216  1.00  0.00    -0.083 N 
HETATM    8  C11 UNL     1      68.320  92.930 118.093  1.00  0.00     0.204 C 
HETATM    9  N12 UNL     1      69.380  92.472 117.996  1.00  0.00    -0.171 NA
ENDROOT
BRANCH   6  10
HETATM   10  N10 UNL     1      65.768  91.529 118.290  1.00  0.00    -0.233 N 
ATOM     11 2H10 UNL     1      66.207  90.873 118.935  1.00  0.00     0.174 HD
ATOM     12 1H10 UNL     1      65.209  90.985 117.633  1.00  0.00     0.174 HD
ENDBRANCH   6  10
BRANCH   3  13
HETATM   13  C4  UNL     1      64.638  96.191 118.479  1.00  0.00     0.289 C 
HETATM   14  O1  UNL     1      64.034  96.374 119.604  1.00  0.00    -0.264 OA
HETATM   15  N1  UNL     1      64.450  97.187 117.516  1.00  0.00    -0.263 N 
ATOM     16  H1  UNL     1      64.894  97.111 116.601  1.00  0.00     0.190 HD
BRANCH  15  17
HETATM   17  N2  UNL     1      63.628  98.312 117.828  1.00  0.00    -0.284 N 
ATOM     18  H2  UNL     1      63.252  98.415 118.771  1.00  0.00     0.188 HD
BRANCH  17  19
HETATM   19  C5  UNL     1      63.357  99.194 116.938  1.00  0.00     0.150 C 
HETATM   20  N3  UNL     1      64.351 100.124 116.567  1.00  0.00    -0.080 NA
HETATM   21  C6  UNL     1      62.052  99.234 116.325  1.00  0.00     0.123 A 
HETATM   22  C7  UNL     1      61.785 100.207 115.356  1.00  0.00     0.160 A 
HETATM   23  C9  UNL     1      61.043  98.337 116.661  1.00  0.00     0.299 A 
HETATM   24  N5  UNL     1      60.572 100.253 114.780  1.00  0.00    -0.172 N 
HETATM   25  C8  UNL     1      59.642  99.361 115.146  1.00  0.00     0.701 A 
ATOM     26  H5  UNL     1      60.363 100.957 114.073  1.00  0.00     0.186 HD
HETATM   27  N7  UNL     1      59.840  98.404 116.070  1.00  0.00    -0.054 N 
HETATM   28  O3  UNL     1      61.267  97.457 117.528  1.00  0.00    -0.264 OA
BRANCH  22  29
HETATM   29  N4  UNL     1      62.798 101.138 114.993  1.00  0.00    -0.252 N 
ATOM     30  H4  UNL     1      63.601 100.863 114.428  1.00  0.00     0.196 HD
BRANCH  29  31
HETATM   31  O2  UNL     1      62.652 102.323 115.406  1.00  0.00    -0.288 OA
ATOM     32  H2  UNL     1      63.440 102.849 115.478  1.00  0.00     0.244 HD
ENDBRANCH  29  31
ENDBRANCH  22  29
BRANCH  25  33
HETATM   33  N6  UNL     1      58.465  99.396 114.593  1.00  0.00    -0.233 N 
ATOM     34  H62 UNL     1      58.145 100.307 114.267  1.00  0.00     0.174 HD
ATOM     35  H61 UNL     1      57.922  98.537 114.509  1.00  0.00     0.174 HD
ENDBRANCH  25  33
BRANCH  27  36
HETATM   36  N8  UNL     1      58.813  97.503 116.399  1.00  0.00    -0.321 N 
ATOM     37  H82 UNL     1      58.887  96.510 116.178  1.00  0.00     0.178 HD
ATOM     38  H81 UNL     1      57.968  97.829 116.868  1.00  0.00     0.178 HD
ENDBRANCH  27  36
ENDBRANCH  17  19
ENDBRANCH  15  17
ENDBRANCH   3  13
TORSDOF 8
ENDMDL
MODEL 3
REMARK VINA RESULT: -8.494236790      0.925      1.624
REMARK  8 active torsions:
REMARK  status: ('A' for Active; 'I' for Inactive)
REMARK    1  A    between atoms: C3_3  and  C4_4 
REMARK       I    between atoms: C4_4  and  N1_6 
REMARK    2  A    between atoms: N1_6  and  N2_8 
REMARK    3  A    between atoms: N2_8  and  C5_10 
REMARK    4  A    between atoms: C7_13  and  N4_14 
REMARK    5  A    between atoms: N4_14  and  O2_16 
REMARK    6  A    between atoms: C8_20  and  N6_21 
REMARK    7  A    between atoms: N7_24  and  N8_25 
REMARK    8  A    between atoms: C10_32  and  N10_33 
ROOT
HETATM    1  C1  UNL     1      64.051 100.439 115.672  1.00  0.00     0.073 C 
HETATM    2  C2  UNL     1      63.265  99.363 116.346  1.00  0.00     0.074 A 
HETATM    3  C3  UNL     1      63.694  98.335 117.131  1.00  0.00     0.142 A 
HETATM    4  N9  UNL     1      62.579  97.646 117.489  1.00  0.00    -0.183 N 
ATOM      5  H9  UNL     1      62.571  96.816 118.081  1.00  0.00     0.184 HD
HETATM    6  C10 UNL     1      61.491  98.215 116.954  1.00  0.00     0.692 A 
HETATM    7  N11 UNL     1      61.900  99.274 116.247  1.00  0.00    -0.083 N 
HETATM    8  C11 UNL     1      61.071 100.141 115.529  1.00  0.00     0.204 C 
HETATM    9  N12 UNL     1      60.395 100.865 114.926  1.00  0.00    -0.171 NA
ENDROOT
BRANCH   6  10
HETATM   10  N10 UNL     1      60.264  97.815 117.094  1.00  0.00    -0.233 N 
ATOM     11 2H10 UNL     1      59.795  97.105 116.532  1.00  0.00     0.174 HD
ATOM     12 1H10 UNL     1      59.592  98.152 117.784  1.00  0.00     0.174 HD
ENDBRANCH   6  10
BRANCH   3  13
HETATM   13  C4  UNL     1      65.040  98.003 117.529  1.00  0.00     0.289 C 
HETATM   14  O1  UNL     1      65.650  98.906 118.218  1.00  0.00    -0.264 OA
HETATM   15  N1  UNL     1      65.770  96.838 117.268  1.00  0.00    -0.263 N 
ATOM     16  H1  UNL     1      65.355  96.079 116.727  1.00  0.00     0.190 HD
BRANCH  15  17
HETATM   17  N2  UNL     1      67.103  96.725 117.766  1.00  0.00    -0.284 N 
ATOM     18  H2  UNL     1      67.591  97.559 118.093  1.00  0.00     0.188 HD
BRANCH  17  19
HETATM   19  C5  UNL     1      67.693  95.587 117.808  1.00  0.00     0.150 C 
HETATM   20  N3  UNL     1      68.363  95.118 116.658  1.00  0.00    -0.080 NA
HETATM   21  C6  UNL     1      67.670  94.799 119.015  1.00  0.00     0.123 A 
HETATM   22  C7  UNL     1      68.324  93.561 119.031  1.00  0.00     0.160 A 
HETATM   23  C9  UNL     1      67.022  95.223 120.170  1.00  0.00     0.299 A 
HETATM   24  N5  UNL     1      68.308  92.819 120.151  1.00  0.00    -0.172 N 
HETATM   25  C8  UNL     1      67.666  93.282 121.233  1.00  0.00     0.701 A 
ATOM     26  H5  UNL     1      68.778  91.915 120.178  1.00  0.00     0.186 HD
HETATM   27  N7  UNL     1      67.022  94.462 121.276  1.00  0.00    -0.054 N 
HETATM   28  O3  UNL     1      66.432  96.331 120.172  1.00  0.00    -0.264 OA
BRANCH  22  29
HETATM   29  N4  UNL     1      68.995  93.102 117.865  1.00  0.00    -0.252 N 
ATOM     30  H4  UNL     1      68.901  93.580 116.969  1.00  0.00     0.196 HD
BRANCH  29  31
HETATM   31  O2  UNL     1      69.713  92.071 117.995  1.00  0.00    -0.288 OA
ATOM     32  H2  UNL     1      70.654  92.202 117.965  1.00  0.00     0.244 HD
ENDBRANCH  29  31
ENDBRANCH  22  29
BRANCH  25  33
HETATM   33  N6  UNL     1      67.646  92.572 122.321  1.00  0.00    -0.233 N 
ATOM     34  H62 UNL     1      68.225  91.733 122.327  1.00  0.00     0.174 HD
ATOM     35  H61 UNL     1      67.068  92.870 123.108  1.00  0.00     0.174 HD
ENDBRANCH  25  33
BRANCH  27  36
HETATM   36  N8  UNL     1      66.371  94.879 122.450  1.00  0.00    -0.321 N 
ATOM     37  H82 UNL     1      66.173  94.226 123.208  1.00  0.00     0.178 HD
ATOM     38  H81 UNL     1      66.083  95.850 122.567  1.00  0.00     0.178 HD
ENDBRANCH  27  36
ENDBRANCH  17  19
ENDBRANCH  15  17
ENDBRANCH   3  13
TORSDOF 8
ENDMDL
MODEL 4
REMARK VINA RESULT: -8.294083688      2.225      2.627
REMARK  8 active torsions:
REMARK  status: ('A' for Active; 'I' for Inactive)
REMARK    1  A    between atoms: C3_3  and  C4_4 
REMARK       I    between atoms: C4_4  and  N1_6 
REMARK    2  A    between atoms: N1_6  and  N2_8 
REMARK    3  A    between atoms: N2_8  and  C5_10 
REMARK    4  A    between atoms: C7_13  and  N4_14 
REMARK    5  A    between atoms: N4_14  and  O2_16 
REMARK    6  A    between atoms: C8_20  and  N6_21 
REMARK    7  A    between atoms: N7_24  and  N8_25 
REMARK    8  A    between atoms: C10_32  and  N10_33 
ROOT
HETATM    1  C1  UNL     1      63.657  99.039 115.905  1.00  0.00     0.073 C 
HETATM    2  C2  UNL     1      63.622  98.975 117.397  1.00  0.00     0.074 A 
HETATM    3  C3  UNL     1      63.935  97.943 118.230  1.00  0.00     0.142 A 
HETATM    4  N9  UNL     1      63.732  98.405 119.491  1.00  0.00    -0.183 N 
ATOM      5  H9  UNL     1      63.881  97.863 120.342  1.00  0.00     0.184 HD
HETATM    6  C10 UNL     1      63.310  99.676 119.458  1.00  0.00     0.692 A 
HETATM    7  N11 UNL     1      63.237 100.039 118.172  1.00  0.00    -0.083 N 
HETATM    8  C11 UNL     1      62.836 101.294 117.704  1.00  0.00     0.204 C 
HETATM    9  N12 UNL     1      62.501 102.328 117.303  1.00  0.00    -0.171 NA
ENDROOT
BRANCH   6  10
HETATM   10  N10 UNL     1      63.023 100.420 120.482  1.00  0.00    -0.233 N 
ATOM     11 2H10 UNL     1      62.359 100.195 121.222  1.00  0.00     0.174 HD
ATOM     12 1H10 UNL     1      63.418 101.336 120.694  1.00  0.00     0.174 HD
ENDBRANCH   6  10
BRANCH   3  13
HETATM   13  C4  UNL     1      64.391  96.616 117.893  1.00  0.00     0.289 C 
HETATM   14  O1  UNL     1      63.458  95.751 117.678  1.00  0.00    -0.264 OA
HETATM   15  N1  UNL     1      65.701  96.144 117.770  1.00  0.00    -0.263 N 
ATOM     16  H1  UNL     1      66.492  96.769 117.927  1.00  0.00     0.190 HD
BRANCH  15  17
HETATM   17  N2  UNL     1      65.919  94.776 117.423  1.00  0.00    -0.284 N 
ATOM     18  H2  UNL     1      65.217  94.277 116.878  1.00  0.00     0.188 HD
BRANCH  17  19
HETATM   19  C5  UNL     1      66.988  94.169 117.789  1.00  0.00     0.150 C 
HETATM   20  N3  UNL     1      68.160  94.314 117.017  1.00  0.00    -0.080 NA
HETATM   21  C6  UNL     1      66.990  93.349 118.976  1.00  0.00     0.123 A 
HETATM   22  C7  UNL     1      68.171  92.699 119.351  1.00  0.00     0.160 A 
HETATM   23  C9  UNL     1      65.858  93.179 119.766  1.00  0.00     0.299 A 
HETATM   24  N5  UNL     1      68.182  91.933 120.454  1.00  0.00    -0.172 N 
HETATM   25  C8  UNL     1      67.059  91.808 121.175  1.00  0.00     0.701 A 
ATOM     26  H5  UNL     1      69.035  91.452 120.740  1.00  0.00     0.186 HD
HETATM   27  N7  UNL     1      65.897  92.408 120.864  1.00  0.00    -0.054 N 
HETATM   28  O3  UNL     1      64.791  93.756 119.443  1.00  0.00    -0.264 OA
BRANCH  22  29
HETATM   29  N4  UNL     1      69.344  92.855 118.562  1.00  0.00    -0.252 N 
ATOM     30  H4  UNL     1      69.850  93.739 118.523  1.00  0.00     0.196 HD
BRANCH  29  31
HETATM   31  O2  UNL     1      69.727  91.842 117.912  1.00  0.00    -0.288 OA
ATOM     32  H2  UNL     1      70.597  91.515 118.106  1.00  0.00     0.244 HD
ENDBRANCH  29  31
ENDBRANCH  22  29
BRANCH  25  33
HETATM   33  N6  UNL     1      67.061  91.069 122.245  1.00  0.00    -0.233 N 
ATOM     34  H62 UNL     1      67.615  91.409 123.030  1.00  0.00     0.174 HD
ATOM     35  H61 UNL     1      66.525  90.201 122.259  1.00  0.00     0.174 HD
ENDBRANCH  25  33
BRANCH  27  36
HETATM   36  N8  UNL     1      64.760  92.228 121.671  1.00  0.00    -0.321 N 
ATOM     37  H82 UNL     1      64.788  92.413 122.674  1.00  0.00     0.178 HD
ATOM     38  H81 UNL     1      63.881  91.908 121.266  1.00  0.00     0.178 HD
ENDBRANCH  27  36
ENDBRANCH  17  19
ENDBRANCH  15  17
ENDBRANCH   3  13
TORSDOF 8
ENDMDL
MODEL 5
REMARK VINA RESULT: -8.288863822      2.587      9.067
REMARK  8 active torsions:
REMARK  status: ('A' for Active; 'I' for Inactive)
REMARK    1  A    between atoms: C3_3  and  C4_4 
REMARK       I    between atoms: C4_4  and  N1_6 
REMARK    2  A    between atoms: N1_6  and  N2_8 
REMARK    3  A    between atoms: N2_8  and  C5_10 
REMARK    4  A    between atoms: C7_13  and  N4_14 
REMARK    5  A    between atoms: N4_14  and  O2_16 
REMARK    6  A    between atoms: C8_20  and  N6_21 
REMARK    7  A    between atoms: N7_24  and  N8_25 
REMARK    8  A    between atoms: C10_32  and  N10_33 
ROOT
HETATM    1  C1  UNL     1      68.114  96.027 116.312  1.00  0.00     0.073 C 
HETATM    2  C2  UNL     1      67.225  95.735 117.476  1.00  0.00     0.074 A 
HETATM    3  C3  UNL     1      66.146  96.426 117.940  1.00  0.00     0.142 A 
HETATM    4  N9  UNL     1      65.696  95.737 119.021  1.00  0.00    -0.183 N 
ATOM      5  H9  UNL     1      64.894  96.005 119.590  1.00  0.00     0.184 HD
HETATM    6  C10 UNL     1      66.458  94.656 119.231  1.00  0.00     0.692 A 
HETATM    7  N11 UNL     1      67.404  94.643 118.286  1.00  0.00    -0.083 N 
HETATM    8  C11 UNL     1      68.405  93.676 118.151  1.00  0.00     0.204 C 
HETATM    9  N12 UNL     1      69.242  92.884 118.031  1.00  0.00    -0.171 NA
ENDROOT
BRANCH   6  10
HETATM   10  N10 UNL     1      66.308  93.780 120.177  1.00  0.00    -0.233 N 
ATOM     11 2H10 UNL     1      65.420  93.429 120.537  1.00  0.00     0.174 HD
ATOM     12 1H10 UNL     1      67.053  93.316 120.697  1.00  0.00     0.174 HD
ENDBRANCH   6  10
BRANCH   3  13
HETATM   13  C4  UNL     1      65.563  97.642 117.427  1.00  0.00     0.289 C 
HETATM   14  O1  UNL     1      65.762  98.695 118.145  1.00  0.00    -0.264 OA
HETATM   15  N1  UNL     1      64.814  97.832 116.261  1.00  0.00    -0.263 N 
ATOM     16  H1  UNL     1      64.615  97.046 115.642  1.00  0.00     0.190 HD
BRANCH  15  17
HETATM   17  N2  UNL     1      64.332  99.139 115.947  1.00  0.00    -0.284 N 
ATOM     18  H2  UNL     1      64.982  99.848 115.611  1.00  0.00     0.188 HD
BRANCH  17  19
HETATM   19  C5  UNL     1      63.091  99.430 116.084  1.00  0.00     0.150 C 
HETATM   20  N3  UNL     1      62.181  98.413 116.443  1.00  0.00    -0.080 NA
HETATM   21  C6  UNL     1      62.632 100.781 115.873  1.00  0.00     0.123 A 
HETATM   22  C7  UNL     1      61.272 101.070 116.030  1.00  0.00     0.160 A 
HETATM   23  C9  UNL     1      63.494 101.814 115.519  1.00  0.00     0.299 A 
HETATM   24  N5  UNL     1      60.835 102.325 115.836  1.00  0.00    -0.172 N 
HETATM   25  C8  UNL     1      61.715 103.277 115.495  1.00  0.00     0.701 A 
ATOM     26  H5  UNL     1      59.847 102.551 115.945  1.00  0.00     0.186 HD
HETATM   27  N7  UNL     1      63.031 103.060 115.331  1.00  0.00    -0.054 N 
HETATM   28  O3  UNL     1      64.717 101.571 115.374  1.00  0.00    -0.264 OA
BRANCH  22  29
HETATM   29  N4  UNL     1      60.367 100.034 116.392  1.00  0.00    -0.252 N 
ATOM     30  H4  UNL     1      60.379  99.612 117.321  1.00  0.00     0.196 HD
BRANCH  29  31
HETATM   31  O2  UNL     1      59.549  99.662 115.506  1.00  0.00    -0.288 OA
ATOM     32  H2  UNL     1      59.151 100.346 114.980  1.00  0.00     0.244 HD
ENDBRANCH  29  31
ENDBRANCH  22  29
BRANCH  25  33
HETATM   33  N6  UNL     1      61.301 104.496 115.306  1.00  0.00    -0.233 N 
ATOM     34  H62 UNL     1      62.015 105.186 115.075  1.00  0.00     0.174 HD
ATOM     35  H61 UNL     1      60.308 104.710 115.392  1.00  0.00     0.174 HD
ENDBRANCH  25  33
BRANCH  27  36
HETATM   36  N8  UNL     1      63.891 104.112 114.973  1.00  0.00    -0.321 N 
ATOM     37  H82 UNL     1      64.899 103.971 114.897  1.00  0.00     0.178 HD
ATOM     38  H81 UNL     1      63.522 105.043 114.783  1.00  0.00     0.178 HD
ENDBRANCH  27  36
ENDBRANCH  17  19
ENDBRANCH  15  17
ENDBRANCH   3  13
TORSDOF 8
ENDMDL
