MODEL 1
REMARK VINA RESULT: -8.700175093      0.000      0.000
REMARK  7 active torsions:
REMARK  status: ('A' for Active; 'I' for Inactive)
REMARK    1  A    between atoms: N1_1  and  N2_4 
REMARK    2  A    between atoms: C4_9  and  C5_10 
REMARK    3  A    between atoms: N4_12  and  O1_14 
REMARK    4  A    between atoms: N5_16  and  O2_17 
REMARK    5  A    between atoms: C7_21  and  O4_22 
REMARK    6  A    between atoms: N6_26  and  N7_27 
REMARK       I    between atoms: N7_27  and  C9_29 
REMARK       I    between atoms: C9_29  and  N8_31 
REMARK    7  A    between atoms: N8_31  and  N9_33 
ROOT
HETATM    1  N2  UNL     1      66.476  96.572 117.154  1.00  0.00    -0.290 N 
ATOM      2  H2  UNL     1      67.230  96.108 116.649  1.00  0.00     0.188 HD
HETATM    3  C1  UNL     1      66.298  96.000 118.230  1.00  0.00     0.159 A 
HETATM    4  C2  UNL     1      67.093  94.813 118.633  1.00  0.00     0.068 A 
HETATM    5  C3  UNL     1      66.718  94.433 119.920  1.00  0.00     0.084 A 
HETATM    6  C4  UNL     1      67.354  93.330 120.448  1.00  0.00     0.126 A 
HETATM    7  N5  UNL     1      68.295  92.655 119.727  1.00  0.00    -0.181 N 
HETATM    8  C6  UNL     1      68.666  92.995 118.499  1.00  0.00     0.306 A 
HETATM    9  O3  UNL     1      69.535  92.333 117.889  1.00  0.00    -0.263 OA
HETATM   10  C7  UNL     1      68.033  94.122 117.938  1.00  0.00     0.151 A 
HETATM   11  C8  UNL     1      65.693  95.351 120.356  1.00  0.00     0.282 A 
HETATM   12  O5  UNL     1      65.092  95.364 121.431  1.00  0.00    -0.265 OA
HETATM   13  N6  UNL     1      65.443  96.318 119.294  1.00  0.00    -0.197 N 
ENDROOT
BRANCH  13  14
HETATM   14  N7  UNL     1      64.517  97.364 119.402  1.00  0.00    -0.239 N 
HETATM   15  C9  UNL     1      63.397  97.556 118.557  1.00  0.00     0.358 C 
HETATM   16  O6  UNL     1      63.189  96.740 117.625  1.00  0.00    -0.244 OA
HETATM   17  N8  UNL     1      62.510  98.639 118.733  1.00  0.00    -0.190 N 
ATOM     18  H8  UNL     1      62.667  99.310 119.485  1.00  0.00     0.198 HD
ATOM     19  H7  UNL     1      64.662  98.042 120.150  1.00  0.00     0.192 HD
BRANCH  17  20
HETATM   20  N9  UNL     1      61.423  98.791 117.883  1.00  0.00    -0.035 N 
HETATM   21  O7  UNL     1      60.259  98.611 118.360  1.00  0.00    -0.516 OA
HETATM   22  O8  UNL     1      61.576  99.130 116.557  1.00  0.00    -0.516 OA
ENDBRANCH  17  20
ENDBRANCH  13  14
BRANCH   1  23
HETATM   23  N1  UNL     1      66.022  97.591 116.425  1.00  0.00    -0.344 N 
ATOM     24  H12 UNL     1      66.086  98.432 116.998  1.00  0.00     0.176 HD
ATOM     25  H11 UNL     1      65.640  97.808 115.505  1.00  0.00     0.176 HD
ENDBRANCH   1  23
BRANCH  10  26
HETATM   26  O4  UNL     1      68.422  94.466 116.674  1.00  0.00    -0.355 OA
ATOM     27  H4  UNL     1      69.313  94.714 116.459  1.00  0.00     0.218 HD
ENDBRANCH  10  26
BRANCH   6  28
HETATM   28  C5  UNL     1      67.046  92.850 121.761  1.00  0.00     0.166 C 
HETATM   29  N3  UNL     1      67.641  93.489 122.930  1.00  0.00    -0.078 NA
HETATM   30  N4  UNL     1      66.261  91.922 122.045  1.00  0.00    -0.253 N 
ATOM     31  H4  UNL     1      65.794  91.457 121.267  1.00  0.00     0.195 HD
BRANCH  30  32
HETATM   32  O1  UNL     1      65.973  91.474 123.293  1.00  0.00    -0.288 OA
ATOM     33  H1  UNL     1      66.593  91.358 124.003  1.00  0.00     0.244 HD
ENDBRANCH  30  32
ENDBRANCH   6  28
BRANCH   7  34
HETATM   34  O2  UNL     1      68.868  91.556 120.334  1.00  0.00    -0.279 OA
ATOM     35  H2  UNL     1      69.805  91.448 120.221  1.00  0.00     0.245 HD
ENDBRANCH   7  34
TORSDOF 7
ENDMDL
MODEL 2
REMARK VINA RESULT: -8.494271424      2.350      7.132
REMARK  7 active torsions:
REMARK  status: ('A' for Active; 'I' for Inactive)
REMARK    1  A    between atoms: N1_1  and  N2_4 
REMARK    2  A    between atoms: C4_9  and  C5_10 
REMARK    3  A    between atoms: N4_12  and  O1_14 
REMARK    4  A    between atoms: N5_16  and  O2_17 
REMARK    5  A    between atoms: C7_21  and  O4_22 
REMARK    6  A    between atoms: N6_26  and  N7_27 
REMARK       I    between atoms: N7_27  and  C9_29 
REMARK       I    between atoms: C9_29  and  N8_31 
REMARK    7  A    between atoms: N8_31  and  N9_33 
ROOT
HETATM    1  N2  UNL     1      66.396  97.084 116.385  1.00  0.00    -0.290 N 
ATOM      2  H2  UNL     1      65.769  97.520 115.709  1.00  0.00     0.188 HD
HETATM    3  C1  UNL     1      66.071  97.433 117.521  1.00  0.00     0.159 A 
HETATM    4  C2  UNL     1      64.940  98.361 117.767  1.00  0.00     0.068 A 
HETATM    5  C3  UNL     1      64.767  98.510 119.142  1.00  0.00     0.084 A 
HETATM    6  C4  UNL     1      63.759  99.357 119.549  1.00  0.00     0.126 A 
HETATM    7  N5  UNL     1      62.985 100.013 118.636  1.00  0.00    -0.181 N 
HETATM    8  C6  UNL     1      63.133  99.890 117.323  1.00  0.00     0.306 A 
HETATM    9  O3  UNL     1      62.391 100.520 116.537  1.00  0.00    -0.263 OA
HETATM   10  C7  UNL     1      64.154  99.027 116.880  1.00  0.00     0.151 A 
HETATM   11  C8  UNL     1      65.768  97.696 119.789  1.00  0.00     0.282 A 
HETATM   12  O5  UNL     1      65.961  97.548 120.997  1.00  0.00    -0.265 OA
HETATM   13  N6  UNL     1      66.569  97.034 118.768  1.00  0.00    -0.197 N 
ENDROOT
BRANCH  13  14
HETATM   14  N7  UNL     1      67.618  96.151 119.060  1.00  0.00    -0.239 N 
HETATM   15  C9  UNL     1      67.638  94.770 118.743  1.00  0.00     0.358 C 
HETATM   16  O6  UNL     1      66.651  94.266 118.152  1.00  0.00    -0.244 OA
HETATM   17  N8  UNL     1      68.736  93.948 119.072  1.00  0.00    -0.190 N 
ATOM     18  H8  UNL     1      69.545  94.344 119.552  1.00  0.00     0.198 HD
ATOM     19  H7  UNL     1      68.433  96.534 119.539  1.00  0.00     0.192 HD
BRANCH  17  20
HETATM   20  N9  UNL     1      68.717  92.600 118.743  1.00  0.00    -0.035 N 
HETATM   21  O7  UNL     1      69.567  92.177 117.899  1.00  0.00    -0.516 OA
HETATM   22  O8  UNL     1      67.813  91.725 119.304  1.00  0.00    -0.516 OA
ENDBRANCH  17  20
ENDBRANCH  13  14
BRANCH   1  23
HETATM   23  N1  UNL     1      67.286  96.333 115.738  1.00  0.00    -0.344 N 
ATOM     24  H12 UNL     1      68.057  96.941 115.460  1.00  0.00     0.176 HD
ATOM     25  H11 UNL     1      67.452  95.375 115.433  1.00  0.00     0.176 HD
ENDBRANCH   1  23
BRANCH  10  26
HETATM   26  O4  UNL     1      64.298  98.906 115.527  1.00  0.00    -0.355 OA
ATOM     27  H4  UNL     1      63.575  98.693 114.949  1.00  0.00     0.218 HD
ENDBRANCH  10  26
BRANCH   6  28
HETATM   28  C5  UNL     1      63.493  99.585 120.938  1.00  0.00     0.166 C 
HETATM   29  N3  UNL     1      62.376  98.910 121.588  1.00  0.00    -0.078 NA
HETATM   30  N4  UNL     1      64.158 100.307 121.709  1.00  0.00    -0.253 N 
ATOM     31  H4  UNL     1      64.969 100.783 121.314  1.00  0.00     0.195 HD
BRANCH  30  32
HETATM   32  O1  UNL     1      63.901 100.517 123.025  1.00  0.00    -0.288 OA
ATOM     33  H1  UNL     1      63.545  99.881 123.634  1.00  0.00     0.244 HD
ENDBRANCH  30  32
ENDBRANCH   6  28
BRANCH   7  34
HETATM   34  O2  UNL     1      62.009 100.848 119.139  1.00  0.00    -0.279 OA
ATOM     35  H2  UNL     1      61.945 100.906 120.086  1.00  0.00     0.245 HD
ENDBRANCH   7  34
TORSDOF 7
ENDMDL
MODEL 3
REMARK VINA RESULT: -8.442975608      1.669      2.134
REMARK  7 active torsions:
REMARK  status: ('A' for Active; 'I' for Inactive)
REMARK    1  A    between atoms: N1_1  and  N2_4 
REMARK    2  A    between atoms: C4_9  and  C5_10 
REMARK    3  A    between atoms: N4_12  and  O1_14 
REMARK    4  A    between atoms: N5_16  and  O2_17 
REMARK    5  A    between atoms: C7_21  and  O4_22 
REMARK    6  A    between atoms: N6_26  and  N7_27 
REMARK       I    between atoms: N7_27  and  C9_29 
REMARK       I    between atoms: C9_29  and  N8_31 
REMARK    7  A    between atoms: N8_31  and  N9_33 
ROOT
HETATM    1  N2  UNL     1      65.110  98.143 116.528  1.00  0.00    -0.290 N 
ATOM      2  H2  UNL     1      65.874  97.868 115.910  1.00  0.00     0.188 HD
HETATM    3  C1  UNL     1      65.196  97.514 117.582  1.00  0.00     0.159 A 
HETATM    4  C2  UNL     1      66.270  96.517 117.820  1.00  0.00     0.068 A 
HETATM    5  C3  UNL     1      66.152  96.026 119.120  1.00  0.00     0.084 A 
HETATM    6  C4  UNL     1      67.070  95.073 119.504  1.00  0.00     0.126 A 
HETATM    7  N5  UNL     1      68.032  94.639 118.639  1.00  0.00    -0.181 N 
HETATM    8  C6  UNL     1      68.161  95.089 117.397  1.00  0.00     0.306 A 
HETATM    9  O3  UNL     1      69.066  94.650 116.652  1.00  0.00    -0.263 OA
HETATM   10  C7  UNL     1      67.238  96.067 116.980  1.00  0.00     0.151 A 
HETATM   11  C8  UNL     1      65.020  96.686 119.725  1.00  0.00     0.282 A 
HETATM   12  O5  UNL     1      64.574  96.536 120.863  1.00  0.00    -0.265 OA
HETATM   13  N6  UNL     1      64.438  97.606 118.757  1.00  0.00    -0.197 N 
ENDROOT
BRANCH  13  14
HETATM   14  N7  UNL     1      63.333  98.423 119.034  1.00  0.00    -0.239 N 
HETATM   15  C9  UNL     1      62.089  98.374 118.358  1.00  0.00     0.358 C 
HETATM   16  O6  UNL     1      61.931  97.541 117.430  1.00  0.00    -0.244 OA
HETATM   17  N8  UNL     1      61.023  99.234 118.698  1.00  0.00    -0.190 N 
ATOM     18  H8  UNL     1      61.137  99.915 119.449  1.00  0.00     0.198 HD
ATOM     19  H7  UNL     1      63.432  99.108 119.783  1.00  0.00     0.192 HD
BRANCH  17  20
HETATM   20  N9  UNL     1      59.820  99.152 118.012  1.00  0.00    -0.035 N 
HETATM   21  O7  UNL     1      58.802  98.716 118.635  1.00  0.00    -0.516 OA
HETATM   22  O8  UNL     1      59.706  99.531 116.692  1.00  0.00    -0.516 OA
ENDBRANCH  17  20
ENDBRANCH  13  14
BRANCH   1  23
HETATM   23  N1  UNL     1      64.360  99.059 115.917  1.00  0.00    -0.344 N 
ATOM     24  H12 UNL     1      63.851  99.571 116.637  1.00  0.00     0.176 HD
ATOM     25  H11 UNL     1      64.130  99.415 114.989  1.00  0.00     0.176 HD
ENDBRANCH   1  23
BRANCH  10  26
HETATM   26  O4  UNL     1      67.379  96.525 115.701  1.00  0.00    -0.355 OA
ATOM     27  H4  UNL     1      66.865  96.192 114.975  1.00  0.00     0.218 HD
ENDBRANCH  10  26
BRANCH   6  28
HETATM   28  C5  UNL     1      67.042  94.498 120.816  1.00  0.00     0.166 C 
HETATM   29  N3  UNL     1      66.523  93.149 121.011  1.00  0.00    -0.078 NA
HETATM   30  N4  UNL     1      67.460  95.029 121.865  1.00  0.00    -0.253 N 
ATOM     31  H4  UNL     1      67.860  95.963 121.783  1.00  0.00     0.195 HD
BRANCH  30  32
HETATM   32  O1  UNL     1      67.432  94.477 123.105  1.00  0.00    -0.288 OA
ATOM     33  H1  UNL     1      67.533  93.555 123.309  1.00  0.00     0.244 HD
ENDBRANCH  30  32
ENDBRANCH   6  28
BRANCH   7  34
HETATM   34  O2  UNL     1      68.898  93.674 119.111  1.00  0.00    -0.279 OA
ATOM     35  H2  UNL     1      69.098  93.699 120.040  1.00  0.00     0.245 HD
ENDBRANCH   7  34
TORSDOF 7
ENDMDL
MODEL 4
REMARK VINA RESULT: -8.424067165      1.938      6.886
REMARK  7 active torsions:
REMARK  status: ('A' for Active; 'I' for Inactive)
REMARK    1  A    between atoms: N1_1  and  N2_4 
REMARK    2  A    between atoms: C4_9  and  C5_10 
REMARK    3  A    between atoms: N4_12  and  O1_14 
REMARK    4  A    between atoms: N5_16  and  O2_17 
REMARK    5  A    between atoms: C7_21  and  O4_22 
REMARK    6  A    between atoms: N6_26  and  N7_27 
REMARK       I    between atoms: N7_27  and  C9_29 
REMARK       I    between atoms: C9_29  and  N8_31 
REMARK    7  A    between atoms: N8_31  and  N9_33 
ROOT
HETATM    1  N2  UNL     1      66.101  97.095 116.527  1.00  0.00    -0.290 N 
ATOM      2  H2  UNL     1      65.532  97.496 115.782  1.00  0.00     0.188 HD
HETATM    3  C1  UNL     1      65.429  97.026 117.557  1.00  0.00     0.159 A 
HETATM    4  C2  UNL     1      64.023  97.496 117.614  1.00  0.00     0.068 A 
HETATM    5  C3  UNL     1      63.506  97.223 118.879  1.00  0.00     0.084 A 
HETATM    6  C4  UNL     1      62.203  97.611 119.110  1.00  0.00     0.126 A 
HETATM    7  N5  UNL     1      61.477  98.235 118.137  1.00  0.00    -0.181 N 
HETATM    8  C6  UNL     1      61.949  98.508 116.927  1.00  0.00     0.306 A 
HETATM    9  O3  UNL     1      61.232  99.084 116.079  1.00  0.00    -0.263 OA
HETATM   10  C7  UNL     1      63.277  98.119 116.665  1.00  0.00     0.151 A 
HETATM   11  C8  UNL     1      64.553  96.588 119.642  1.00  0.00     0.282 A 
HETATM   12  O5  UNL     1      64.509  96.190 120.807  1.00  0.00    -0.265 OA
HETATM   13  N6  UNL     1      65.741  96.473 118.807  1.00  0.00    -0.197 N 
ENDROOT
BRANCH  13  14
HETATM   14  N7  UNL     1      66.936  95.880 119.238  1.00  0.00    -0.239 N 
HETATM   15  C9  UNL     1      67.326  94.543 118.981  1.00  0.00     0.358 C 
HETATM   16  O6  UNL     1      66.560  93.801 118.316  1.00  0.00    -0.244 OA
HETATM   17  N8  UNL     1      68.550  94.022 119.453  1.00  0.00    -0.190 N 
ATOM     18  H8  UNL     1      69.181  94.613 119.995  1.00  0.00     0.198 HD
ATOM     19  H7  UNL     1      67.577  96.460 119.780  1.00  0.00     0.192 HD
BRANCH  17  20
HETATM   20  N9  UNL     1      68.895  92.706 119.178  1.00  0.00    -0.035 N 
HETATM   21  O7  UNL     1      68.584  91.815 120.029  1.00  0.00    -0.516 OA
HETATM   22  O8  UNL     1      69.555  92.351 118.023  1.00  0.00    -0.516 OA
ENDBRANCH  17  20
ENDBRANCH  13  14
BRANCH   1  23
HETATM   23  N1  UNL     1      67.316  96.825 116.053  1.00  0.00    -0.344 N 
ATOM     24  H12 UNL     1      67.409  97.299 115.155  1.00  0.00     0.176 HD
ATOM     25  H11 UNL     1      68.169  96.314 116.281  1.00  0.00     0.176 HD
ENDBRANCH   1  23
BRANCH  10  26
HETATM   26  O4  UNL     1      63.754  98.403 115.417  1.00  0.00    -0.355 OA
ATOM     27  H4  UNL     1      64.444  99.037 115.261  1.00  0.00     0.218 HD
ENDBRANCH  10  26
BRANCH   6  28
HETATM   28  C5  UNL     1      61.571  97.383 120.374  1.00  0.00     0.166 C 
HETATM   29  N3  UNL     1      61.327  98.499 121.281  1.00  0.00    -0.078 NA
HETATM   30  N4  UNL     1      61.150  96.289 120.804  1.00  0.00    -0.253 N 
ATOM     31  H4  UNL     1      61.268  95.478 120.198  1.00  0.00     0.195 HD
BRANCH  30  32
HETATM   32  O1  UNL     1      60.549  96.081 122.003  1.00  0.00    -0.288 OA
ATOM     33  H1  UNL     1      59.726  95.628 122.145  1.00  0.00     0.244 HD
ENDBRANCH  30  32
ENDBRANCH   6  28
BRANCH   7  34
HETATM   34  O2  UNL     1      60.187  98.596 118.466  1.00  0.00    -0.279 OA
ATOM     35  H2  UNL     1      60.084  99.387 118.983  1.00  0.00     0.245 HD
ENDBRANCH   7  34
TORSDOF 7
ENDMDL
MODEL 5
REMARK VINA RESULT: -8.410507123      1.719      2.187
REMARK  7 active torsions:
REMARK  status: ('A' for Active; 'I' for Inactive)
REMARK    1  A    between atoms: N1_1  and  N2_4 
REMARK    2  A    between atoms: C4_9  and  C5_10 
REMARK    3  A    between atoms: N4_12  and  O1_14 
REMARK    4  A    between atoms: N5_16  and  O2_17 
REMARK    5  A    between atoms: C7_21  and  O4_22 
REMARK    6  A    between atoms: N6_26  and  N7_27 
REMARK       I    between atoms: N7_27  and  C9_29 
REMARK       I    between atoms: C9_29  and  N8_31 
REMARK    7  A    between atoms: N8_31  and  N9_33 
ROOT
HETATM    1  N2  UNL     1      65.230  98.201 116.674  1.00  0.00    -0.290 N 
ATOM      2  H2  UNL     1      66.132  98.042 116.225  1.00  0.00     0.188 HD
HETATM    3  C1  UNL     1      65.019  97.301 117.488  1.00  0.00     0.159 A 
HETATM    4  C2  UNL     1      65.978  96.189 117.700  1.00  0.00     0.068 A 
HETATM    5  C3  UNL     1      65.505  95.373 118.726  1.00  0.00     0.084 A 
HETATM    6  C4  UNL     1      66.275  94.275 119.045  1.00  0.00     0.126 A 
HETATM    7  N5  UNL     1      67.435  94.015 118.375  1.00  0.00    -0.181 N 
HETATM    8  C6  UNL     1      67.903  94.776 117.393  1.00  0.00     0.306 A 
HETATM    9  O3  UNL     1      68.974  94.482 116.816  1.00  0.00    -0.263 OA
HETATM   10  C7  UNL     1      67.137  95.906 117.049  1.00  0.00     0.151 A 
HETATM   11  C8  UNL     1      64.256  95.935 119.178  1.00  0.00     0.282 A 
HETATM   12  O5  UNL     1      63.513  95.517 120.068  1.00  0.00    -0.265 OA
HETATM   13  N6  UNL     1      63.968  97.132 118.399  1.00  0.00    -0.197 N 
ENDROOT
BRANCH  13  14
HETATM   14  N7  UNL     1      62.835  97.933 118.600  1.00  0.00    -0.239 N 
HETATM   15  C9  UNL     1      61.842  98.205 117.628  1.00  0.00     0.358 C 
HETATM   16  O6  UNL     1      61.956  97.703 116.482  1.00  0.00    -0.244 OA
HETATM   17  N8  UNL     1      60.728  99.025 117.912  1.00  0.00    -0.190 N 
ATOM     18  H8  UNL     1      60.624  99.440 118.838  1.00  0.00     0.198 HD
ATOM     19  H7  UNL     1      62.717  98.354 119.522  1.00  0.00     0.192 HD
BRANCH  17  20
HETATM   20  N9  UNL     1      59.776  99.266 116.931  1.00  0.00    -0.035 N 
HETATM   21  O7  UNL     1      59.877 100.331 116.246  1.00  0.00    -0.516 OA
HETATM   22  O8  UNL     1      58.744  98.388 116.687  1.00  0.00    -0.516 OA
ENDBRANCH  17  20
ENDBRANCH  13  14
BRANCH   1  23
HETATM   23  N1  UNL     1      64.684  99.310 116.179  1.00  0.00    -0.344 N 
ATOM     24  H12 UNL     1      63.836  99.502 116.714  1.00  0.00     0.176 HD
ATOM     25  H11 UNL     1      64.825 100.019 115.459  1.00  0.00     0.176 HD
ENDBRANCH   1  23
BRANCH  10  26
HETATM   26  O4  UNL     1      67.627  96.684 116.039  1.00  0.00    -0.355 OA
ATOM     27  H4  UNL     1      68.319  97.322 116.169  1.00  0.00     0.218 HD
ENDBRANCH  10  26
BRANCH   6  28
HETATM   28  C5  UNL     1      65.884  93.367 120.082  1.00  0.00     0.166 C 
HETATM   29  N3  UNL     1      66.565  93.394 121.371  1.00  0.00    -0.078 NA
HETATM   30  N4  UNL     1      64.958  92.532 120.024  1.00  0.00    -0.253 N 
ATOM     31  H4  UNL     1      64.428  92.489 119.154  1.00  0.00     0.195 HD
BRANCH  30  32
HETATM   32  O1  UNL     1      64.592  91.677 121.011  1.00  0.00    -0.288 OA
ATOM     33  H1  UNL     1      63.703  91.422 121.229  1.00  0.00     0.244 HD
ENDBRANCH  30  32
ENDBRANCH   6  28
BRANCH   7  34
HETATM   34  O2  UNL     1      68.131  92.887 118.758  1.00  0.00    -0.279 OA
ATOM     35  H2  UNL     1      69.074  92.974 118.833  1.00  0.00     0.245 HD
ENDBRANCH   7  34
TORSDOF 7
ENDMDL
