MODEL 1
REMARK VINA RESULT: -8.066740025      0.000      0.000
REMARK  9 active torsions:
REMARK  status: ('A' for Active; 'I' for Inactive)
REMARK    1  A    between atoms: C2_2  and  O1_3 
REMARK    2  A    between atoms: C2_2  and  C3_5 
REMARK    3  A    between atoms: C3_5  and  N1_6 
REMARK       I    between atoms: N1_6  and  C4_8 
REMARK    4  A    between atoms: C4_8  and  C5_10 
REMARK    5  A    between atoms: C7_15  and  O3_16 
REMARK    6  A    between atoms: C8_20  and  N5_21 
REMARK       I    between atoms: N5_21  and  C9_23 
REMARK    7  A    between atoms: C10_28  and  O5_29 
REMARK    8  A    between atoms: C10_28  and  N8_31 
REMARK    9  A    between atoms: N8_31  and  N9_33 
ROOT
HETATM    1  C5  UNL     1      60.042 103.425 115.964  1.00  0.00     0.153 A 
HETATM    2  N2  UNL     1      60.234 104.607 115.278  1.00  0.00    -0.284 N 
ATOM      3  H2  UNL     1      60.063 104.728 114.279  1.00  0.00     0.188 HD
HETATM    4  N3  UNL     1      60.664 105.554 116.077  1.00  0.00    -0.198 N 
HETATM    5  C6  UNL     1      60.782 105.095 117.304  1.00  0.00     0.180 A 
HETATM    6  C7  UNL     1      60.388 103.724 117.247  1.00  0.00     0.146 A 
HETATM    7  N4  UNL     1      61.143 105.904 118.420  1.00  0.00    -0.172 N 
ATOM      8  H4  UNL     1      61.229 105.479 119.343  1.00  0.00     0.186 HD
HETATM    9  C8  UNL     1      61.366 107.190 118.276  1.00  0.00     0.689 C 
HETATM   10  N7  UNL     1      61.077 107.707 117.006  1.00  0.00    -0.152 N 
ATOM     11  H7  UNL     1      60.846 108.698 116.936  1.00  0.00     0.185 HD
HETATM   12  C10 UNL     1      61.084 106.931 115.797  1.00  0.00     0.356 C 
ENDROOT
BRANCH   1  13
HETATM   13  C4  UNL     1      59.564 102.224 115.296  1.00  0.00     0.272 C 
HETATM   14  N1  UNL     1      59.882 100.935 115.668  1.00  0.00    -0.353 N 
ATOM     15  H1  UNL     1      60.488 100.868 116.487  1.00  0.00     0.162 HD
HETATM   16  O2  UNL     1      58.792 102.394 114.293  1.00  0.00    -0.266 OA
BRANCH  14  17
HETATM   17  C3  UNL     1      59.508  99.678 115.102  1.00  0.00     0.154 C 
BRANCH  17  18
HETATM   18  C2  UNL     1      59.672  98.547 116.053  1.00  0.00     0.132 C 
HETATM   19  C1  UNL     1      60.352  98.995 117.349  1.00  0.00     0.041 C 
BRANCH  18  20
HETATM   20  O1  UNL     1      58.505  97.940 116.392  1.00  0.00    -0.394 OA
ATOM     21  H1  UNL     1      58.228  97.418 115.649  1.00  0.00     0.210 HD
ENDBRANCH  18  20
ENDBRANCH  17  18
ENDBRANCH  14  17
ENDBRANCH   1  13
BRANCH   6  22
HETATM   22  O3  UNL     1      60.411 102.978 118.379  1.00  0.00    -0.355 OA
ATOM     23  H3  UNL     1      59.730 102.737 118.996  1.00  0.00     0.218 HD
ENDBRANCH   6  22
BRANCH  12  24
HETATM   24  O5  UNL     1      62.415 106.856 115.347  1.00  0.00    -0.334 OA
ATOM     25  H5  UNL     1      62.374 106.591 114.435  1.00  0.00     0.216 HD
ENDBRANCH  12  24
BRANCH  12  26
HETATM   26  N8  UNL     1      60.271 107.531 114.783  1.00  0.00    -0.203 N 
ATOM     27  H8  UNL     1      59.316 107.204 114.640  1.00  0.00     0.193 HD
BRANCH  26  28
HETATM   28  N9  UNL     1      60.774 108.547 113.999  1.00  0.00    -0.038 N 
HETATM   29  O6  UNL     1      60.886 108.386 112.780  1.00  0.00    -0.517 OA
HETATM   30  O7  UNL     1      61.147 109.727 114.572  1.00  0.00    -0.517 OA
ENDBRANCH  26  28
ENDBRANCH  12  26
BRANCH   9  31
HETATM   31  N5  UNL     1      61.737 107.997 119.365  1.00  0.00    -0.144 N 
HETATM   32  C9  UNL     1      61.845 109.389 119.428  1.00  0.00     0.346 C 
HETATM   33  N6  UNL     1      62.236 109.981 120.658  1.00  0.00    -0.039 NA
HETATM   34  O4  UNL     1      61.608 110.105 118.437  1.00  0.00    -0.250 OA
ATOM     35  H5  UNL     1      61.957 107.499 120.228  1.00  0.00     0.188 HD
ENDBRANCH   9  31
TORSDOF 9
ENDMDL
MODEL 2
REMARK VINA RESULT: -7.912046710      3.158      8.116
REMARK  9 active torsions:
REMARK  status: ('A' for Active; 'I' for Inactive)
REMARK    1  A    between atoms: C2_2  and  O1_3 
REMARK    2  A    between atoms: C2_2  and  C3_5 
REMARK    3  A    between atoms: C3_5  and  N1_6 
REMARK       I    between atoms: N1_6  and  C4_8 
REMARK    4  A    between atoms: C4_8  and  C5_10 
REMARK    5  A    between atoms: C7_15  and  O3_16 
REMARK    6  A    between atoms: C8_20  and  N5_21 
REMARK       I    between atoms: N5_21  and  C9_23 
REMARK    7  A    between atoms: C10_28  and  O5_29 
REMARK    8  A    between atoms: C10_28  and  N8_31 
REMARK    9  A    between atoms: N8_31  and  N9_33 
ROOT
HETATM    1  C5  UNL     1      62.816 104.286 115.331  1.00  0.00     0.153 A 
HETATM    2  N2  UNL     1      61.637 103.568 115.323  1.00  0.00    -0.284 N 
ATOM      3  H2  UNL     1      60.736 103.943 115.025  1.00  0.00     0.188 HD
HETATM    4  N3  UNL     1      61.827 102.342 115.748  1.00  0.00    -0.198 N 
HETATM    5  C6  UNL     1      63.092 102.157 116.055  1.00  0.00     0.180 A 
HETATM    6  C7  UNL     1      63.743 103.401 115.795  1.00  0.00     0.146 A 
HETATM    7  N4  UNL     1      63.633 100.903 116.462  1.00  0.00    -0.172 N 
ATOM      8  H4  UNL     1      64.623 100.834 116.698  1.00  0.00     0.186 HD
HETATM    9  C8  UNL     1      62.874  99.834 116.538  1.00  0.00     0.689 C 
HETATM   10  N7  UNL     1      61.570  99.994 116.051  1.00  0.00    -0.152 N 
ATOM     11  H7  UNL     1      61.080  99.164 115.716  1.00  0.00     0.185 HD
HETATM   12  C10 UNL     1      60.876 101.251 115.993  1.00  0.00     0.356 C 
ENDROOT
BRANCH   1  13
HETATM   13  C4  UNL     1      62.866 105.675 114.900  1.00  0.00     0.272 C 
HETATM   14  N1  UNL     1      62.020 106.243 113.972  1.00  0.00    -0.353 N 
ATOM     15  H1  UNL     1      61.313 105.609 113.599  1.00  0.00     0.162 HD
HETATM   16  O2  UNL     1      63.767 106.407 115.431  1.00  0.00    -0.266 OA
BRANCH  14  17
HETATM   17  C3  UNL     1      61.965 107.570 113.444  1.00  0.00     0.154 C 
BRANCH  17  18
HETATM   18  C2  UNL     1      60.831 108.360 113.991  1.00  0.00     0.132 C 
HETATM   19  C1  UNL     1      60.154 107.639 115.159  1.00  0.00     0.041 C 
BRANCH  18  20
HETATM   20  O1  UNL     1      61.181 109.599 114.423  1.00  0.00    -0.394 OA
ATOM     21  H1  UNL     1      62.121 109.600 114.557  1.00  0.00     0.210 HD
ENDBRANCH  18  20
ENDBRANCH  17  18
ENDBRANCH  14  17
ENDBRANCH   1  13
BRANCH   6  22
HETATM   22  O3  UNL     1      65.073 103.518 116.025  1.00  0.00    -0.355 OA
ATOM     23  H3  UNL     1      65.671 103.019 116.569  1.00  0.00     0.218 HD
ENDBRANCH   6  22
BRANCH  12  24
HETATM   24  O5  UNL     1      60.319 101.490 117.262  1.00  0.00    -0.334 OA
ATOM     25  H5  UNL     1      60.119 100.637 117.631  1.00  0.00     0.216 HD
ENDBRANCH  12  24
BRANCH  12  26
HETATM   26  N8  UNL     1      59.836 101.233 115.011  1.00  0.00    -0.203 N 
ATOM     27  H8  UNL     1      59.592 102.089 114.514  1.00  0.00     0.193 HD
BRANCH  26  28
HETATM   28  N9  UNL     1      59.162 100.062 114.733  1.00  0.00    -0.038 N 
HETATM   29  O6  UNL     1      58.873  99.781 113.566  1.00  0.00    -0.517 OA
HETATM   30  O7  UNL     1      58.819  99.219 115.748  1.00  0.00    -0.517 OA
ENDBRANCH  26  28
ENDBRANCH  12  26
BRANCH   9  31
HETATM   31  N5  UNL     1      63.390  98.595 116.952  1.00  0.00    -0.144 N 
HETATM   32  C9  UNL     1      62.713  97.501 117.497  1.00  0.00     0.346 C 
HETATM   33  N6  UNL     1      63.462  96.343 117.835  1.00  0.00    -0.039 NA
HETATM   34  O4  UNL     1      61.483  97.528 117.689  1.00  0.00    -0.250 OA
ATOM     35  H5  UNL     1      64.397  98.478 116.839  1.00  0.00     0.188 HD
ENDBRANCH   9  31
TORSDOF 9
ENDMDL
MODEL 3
REMARK VINA RESULT: -7.877758036      7.788     12.086
REMARK  9 active torsions:
REMARK  status: ('A' for Active; 'I' for Inactive)
REMARK    1  A    between atoms: C2_2  and  O1_3 
REMARK    2  A    between atoms: C2_2  and  C3_5 
REMARK    3  A    between atoms: C3_5  and  N1_6 
REMARK       I    between atoms: N1_6  and  C4_8 
REMARK    4  A    between atoms: C4_8  and  C5_10 
REMARK    5  A    between atoms: C7_15  and  O3_16 
REMARK    6  A    between atoms: C8_20  and  N5_21 
REMARK       I    between atoms: N5_21  and  C9_23 
REMARK    7  A    between atoms: C10_28  and  O5_29 
REMARK    8  A    between atoms: C10_28  and  N8_31 
REMARK    9  A    between atoms: N8_31  and  N9_33 
ROOT
HETATM    1  C5  UNL     1      63.003  97.003 118.421  1.00  0.00     0.153 A 
HETATM    2  N2  UNL     1      64.040  96.510 117.655  1.00  0.00    -0.284 N 
ATOM      3  H2  UNL     1      64.271  96.839 116.717  1.00  0.00     0.188 HD
HETATM    4  N3  UNL     1      64.690  95.564 118.291  1.00  0.00    -0.198 N 
HETATM    5  C6  UNL     1      64.160  95.366 119.478  1.00  0.00     0.180 A 
HETATM    6  C7  UNL     1      63.070  96.283 119.576  1.00  0.00     0.146 A 
HETATM    7  N4  UNL     1      64.695  94.465 120.443  1.00  0.00    -0.172 N 
ATOM      8  H4  UNL     1      64.225  94.351 121.341  1.00  0.00     0.186 HD
HETATM    9  C8  UNL     1      65.787  93.779 120.193  1.00  0.00     0.689 C 
HETATM   10  N7  UNL     1      66.441  94.115 119.000  1.00  0.00    -0.152 N 
ATOM     11  H7  UNL     1      67.443  93.934 118.939  1.00  0.00     0.185 HD
HETATM   12  C10 UNL     1      65.792  94.697 117.858  1.00  0.00     0.356 C 
ENDROOT
BRANCH   1  13
HETATM   13  C4  UNL     1      62.134  98.064 117.936  1.00  0.00     0.272 C 
HETATM   14  N1  UNL     1      61.704  98.197 116.634  1.00  0.00    -0.353 N 
ATOM     15  H1  UNL     1      62.032  97.465 116.003  1.00  0.00     0.162 HD
HETATM   16  O2  UNL     1      61.751  98.928 118.795  1.00  0.00    -0.266 OA
BRANCH  14  17
HETATM   17  C3  UNL     1      60.876  99.185 116.017  1.00  0.00     0.154 C 
BRANCH  17  18
HETATM   18  C2  UNL     1      59.433  98.829 116.049  1.00  0.00     0.132 C 
HETATM   19  C1  UNL     1      58.704  99.321 114.797  1.00  0.00     0.041 C 
BRANCH  18  20
HETATM   20  O1  UNL     1      59.198  97.496 116.162  1.00  0.00    -0.394 OA
ATOM     21  H1  UNL     1      58.563  97.375 116.858  1.00  0.00     0.210 HD
ENDBRANCH  18  20
ENDBRANCH  17  18
ENDBRANCH  14  17
ENDBRANCH   1  13
BRANCH   6  22
HETATM   22  O3  UNL     1      62.321  96.308 120.706  1.00  0.00    -0.355 OA
ATOM     23  H3  UNL     1      62.326  96.887 121.459  1.00  0.00     0.218 HD
ENDBRANCH   6  22
BRANCH  12  24
HETATM   24  O5  UNL     1      65.209  93.652 117.120  1.00  0.00    -0.334 OA
ATOM     25  H5  UNL     1      65.635  92.852 117.406  1.00  0.00     0.216 HD
ENDBRANCH  12  24
BRANCH  12  26
HETATM   26  N8  UNL     1      66.720  95.405 117.031  1.00  0.00    -0.203 N 
ATOM     27  H8  UNL     1      66.388  95.901 116.205  1.00  0.00     0.193 HD
BRANCH  26  28
HETATM   28  N9  UNL     1      68.063  95.418 117.346  1.00  0.00    -0.038 N 
HETATM   29  O6  UNL     1      68.508  96.280 118.109  1.00  0.00    -0.517 OA
HETATM   30  O7  UNL     1      68.895  94.478 116.812  1.00  0.00    -0.517 OA
ENDBRANCH  26  28
ENDBRANCH  12  26
BRANCH   9  31
HETATM   31  N5  UNL     1      66.318  92.877 121.130  1.00  0.00    -0.144 N 
HETATM   32  C9  UNL     1      65.658  91.893 121.871  1.00  0.00     0.346 C 
HETATM   33  N6  UNL     1      66.422  91.091 122.761  1.00  0.00    -0.039 NA
HETATM   34  O4  UNL     1      64.430  91.714 121.766  1.00  0.00    -0.250 OA
ATOM     35  H5  UNL     1      67.323  92.949 121.291  1.00  0.00     0.188 HD
ENDBRANCH   9  31
TORSDOF 9
ENDMDL
MODEL 4
REMARK VINA RESULT: -7.843214126      6.563      9.480
REMARK  9 active torsions:
REMARK  status: ('A' for Active; 'I' for Inactive)
REMARK    1  A    between atoms: C2_2  and  O1_3 
REMARK    2  A    between atoms: C2_2  and  C3_5 
REMARK    3  A    between atoms: C3_5  and  N1_6 
REMARK       I    between atoms: N1_6  and  C4_8 
REMARK    4  A    between atoms: C4_8  and  C5_10 
REMARK    5  A    between atoms: C7_15  and  O3_16 
REMARK    6  A    between atoms: C8_20  and  N5_21 
REMARK       I    between atoms: N5_21  and  C9_23 
REMARK    7  A    between atoms: C10_28  and  O5_29 
REMARK    8  A    between atoms: C10_28  and  N8_31 
REMARK    9  A    between atoms: N8_31  and  N9_33 
ROOT
HETATM    1  C5  UNL     1      65.918  96.771 117.792  1.00  0.00     0.153 A 
HETATM    2  N2  UNL     1      65.657  97.969 117.158  1.00  0.00    -0.284 N 
ATOM      3  H2  UNL     1      66.340  98.492 116.610  1.00  0.00     0.188 HD
HETATM    4  N3  UNL     1      64.415  98.346 117.351  1.00  0.00    -0.198 N 
HETATM    5  C6  UNL     1      63.782  97.465 118.094  1.00  0.00     0.180 A 
HETATM    6  C7  UNL     1      64.737  96.445 118.389  1.00  0.00     0.146 A 
HETATM    7  N4  UNL     1      62.394  97.545 118.407  1.00  0.00    -0.172 N 
ATOM      8  H4  UNL     1      61.970  96.831 119.001  1.00  0.00     0.186 HD
HETATM    9  C8  UNL     1      61.654  98.524 117.942  1.00  0.00     0.689 C 
HETATM   10  N7  UNL     1      62.289  99.364 117.018  1.00  0.00    -0.152 N 
ATOM     11  H7  UNL     1      61.705  99.863 116.346  1.00  0.00     0.185 HD
HETATM   12  C10 UNL     1      63.709  99.570 116.955  1.00  0.00     0.356 C 
ENDROOT
BRANCH   1  13
HETATM   13  C4  UNL     1      67.228  96.142 117.723  1.00  0.00     0.272 C 
HETATM   14  N1  UNL     1      67.454  94.828 117.371  1.00  0.00    -0.353 N 
ATOM     15  H1  UNL     1      66.612  94.302 117.134  1.00  0.00     0.162 HD
HETATM   16  O2  UNL     1      68.232  96.875 118.014  1.00  0.00    -0.266 OA
BRANCH  14  17
HETATM   17  C3  UNL     1      68.667  94.079 117.280  1.00  0.00     0.154 C 
BRANCH  17  18
HETATM   18  C2  UNL     1      68.753  92.998 118.297  1.00  0.00     0.132 C 
HETATM   19  C1  UNL     1      67.390  92.343 118.539  1.00  0.00     0.041 C 
BRANCH  18  20
HETATM   20  O1  UNL     1      69.629  92.011 117.978  1.00  0.00    -0.394 OA
ATOM     21  H1  UNL     1      70.419  92.424 117.652  1.00  0.00     0.210 HD
ENDBRANCH  18  20
ENDBRANCH  17  18
ENDBRANCH  14  17
ENDBRANCH   1  13
BRANCH   6  22
HETATM   22  O3  UNL     1      64.368  95.388 119.153  1.00  0.00    -0.355 OA
ATOM     23  H3  UNL     1      63.600  94.830 119.138  1.00  0.00     0.218 HD
ENDBRANCH   6  22
BRANCH  12  24
HETATM   24  O5  UNL     1      64.042 100.546 117.912  1.00  0.00    -0.334 OA
ATOM     25  H5  UNL     1      64.953 100.400 118.139  1.00  0.00     0.216 HD
ENDBRANCH  12  24
BRANCH  12  26
HETATM   26  N8  UNL     1      64.119 100.014 115.659  1.00  0.00    -0.203 N 
ATOM     27  H8  UNL     1      64.523  99.350 114.998  1.00  0.00     0.193 HD
BRANCH  26  28
HETATM   28  N9  UNL     1      63.972 101.337 115.298  1.00  0.00    -0.038 N 
HETATM   29  O6  UNL     1      62.861 101.873 115.363  1.00  0.00    -0.517 OA
HETATM   30  O7  UNL     1      65.053 102.049 114.870  1.00  0.00    -0.517 OA
ENDBRANCH  26  28
ENDBRANCH  12  26
BRANCH   9  31
HETATM   31  N5  UNL     1      60.287  98.623 118.254  1.00  0.00    -0.144 N 
HETATM   32  C9  UNL     1      59.687  98.862 119.493  1.00  0.00     0.346 C 
HETATM   33  N6  UNL     1      58.269  98.925 119.555  1.00  0.00    -0.039 NA
HETATM   34  O4  UNL     1      60.365  99.015 120.525  1.00  0.00    -0.250 OA
ATOM     35  H5  UNL     1      59.646  98.505 117.469  1.00  0.00     0.188 HD
ENDBRANCH   9  31
TORSDOF 9
ENDMDL
MODEL 5
REMARK VINA RESULT: -7.699018892      6.433     10.354
REMARK  9 active torsions:
REMARK  status: ('A' for Active; 'I' for Inactive)
REMARK    1  A    between atoms: C2_2  and  O1_3 
REMARK    2  A    between atoms: C2_2  and  C3_5 
REMARK    3  A    between atoms: C3_5  and  N1_6 
REMARK       I    between atoms: N1_6  and  C4_8 
REMARK    4  A    between atoms: C4_8  and  C5_10 
REMARK    5  A    between atoms: C7_15  and  O3_16 
REMARK    6  A    between atoms: C8_20  and  N5_21 
REMARK       I    between atoms: N5_21  and  C9_23 
REMARK    7  A    between atoms: C10_28  and  O5_29 
REMARK    8  A    between atoms: C10_28  and  N8_31 
REMARK    9  A    between atoms: N8_31  and  N9_33 
ROOT
HETATM    1  C5  UNL     1      63.096  99.343 117.125  1.00  0.00     0.153 A 
HETATM    2  N2  UNL     1      63.570  99.342 118.420  1.00  0.00    -0.284 N 
ATOM      3  H2  UNL     1      63.156  99.873 119.187  1.00  0.00     0.188 HD
HETATM    4  N3  UNL     1      64.624  98.570 118.538  1.00  0.00    -0.198 N 
HETATM    5  C6  UNL     1      64.916  98.019 117.380  1.00  0.00     0.180 A 
HETATM    6  C7  UNL     1      63.942  98.509 116.458  1.00  0.00     0.146 A 
HETATM    7  N4  UNL     1      65.954  97.059 117.200  1.00  0.00    -0.172 N 
ATOM      8  H4  UNL     1      66.135  96.682 116.270  1.00  0.00     0.186 HD
HETATM    9  C8  UNL     1      66.681  96.654 118.215  1.00  0.00     0.689 C 
HETATM   10  N7  UNL     1      66.261  97.114 119.471  1.00  0.00    -0.152 N 
ATOM     11  H7  UNL     1      66.503  96.554 120.289  1.00  0.00     0.185 HD
HETATM   12  C10 UNL     1      65.511  98.321 119.680  1.00  0.00     0.356 C 
ENDROOT
BRANCH   1  13
HETATM   13  C4  UNL     1      61.929 100.123 116.740  1.00  0.00     0.272 C 
HETATM   14  N1  UNL     1      61.223  99.959 115.567  1.00  0.00    -0.353 N 
ATOM     15  H1  UNL     1      61.572  99.214 114.963  1.00  0.00     0.162 HD
HETATM   16  O2  UNL     1      61.544 101.021 117.561  1.00  0.00    -0.266 OA
BRANCH  14  17
HETATM   17  C3  UNL     1      60.086 100.655 115.054  1.00  0.00     0.154 C 
BRANCH  17  18
HETATM   18  C2  UNL     1      58.862  99.812 115.019  1.00  0.00     0.132 C 
HETATM   19  C1  UNL     1      57.998 100.125 113.795  1.00  0.00     0.041 C 
BRANCH  18  20
HETATM   20  O1  UNL     1      59.114  98.478 115.012  1.00  0.00    -0.394 OA
ATOM     21  H1  UNL     1      59.424  98.250 114.144  1.00  0.00     0.210 HD
ENDBRANCH  18  20
ENDBRANCH  17  18
ENDBRANCH  14  17
ENDBRANCH   1  13
BRANCH   6  22
HETATM   22  O3  UNL     1      63.992  98.111 115.164  1.00  0.00    -0.355 OA
ATOM     23  H3  UNL     1      63.922  97.255 114.759  1.00  0.00     0.218 HD
ENDBRANCH   6  22
BRANCH  12  24
HETATM   24  O5  UNL     1      66.425  99.390 119.713  1.00  0.00    -0.334 OA
ATOM     25  H5  UNL     1      66.689  99.544 118.813  1.00  0.00     0.216 HD
ENDBRANCH  12  24
BRANCH  12  26
HETATM   26  N8  UNL     1      64.781  98.280 120.910  1.00  0.00    -0.203 N 
ATOM     27  H8  UNL     1      63.762  98.276 120.896  1.00  0.00     0.193 HD
BRANCH  26  28
HETATM   28  N9  UNL     1      65.451  98.246 122.116  1.00  0.00    -0.038 N 
HETATM   29  O6  UNL     1      66.607  97.816 122.165  1.00  0.00    -0.517 OA
HETATM   30  O7  UNL     1      64.833  98.687 123.248  1.00  0.00    -0.517 OA
ENDBRANCH  26  28
ENDBRANCH  12  26
BRANCH   9  31
HETATM   31  N5  UNL     1      67.717  95.719 118.050  1.00  0.00    -0.144 N 
HETATM   32  C9  UNL     1      67.661  94.437 117.499  1.00  0.00     0.346 C 
HETATM   33  N6  UNL     1      68.859  93.676 117.434  1.00  0.00    -0.039 NA
HETATM   34  O4  UNL     1      66.594  93.959 117.072  1.00  0.00    -0.250 OA
ATOM     35  H5  UNL     1      68.636  96.019 118.377  1.00  0.00     0.188 HD
ENDBRANCH   9  31
TORSDOF 9
ENDMDL
