MODEL 1
REMARK VINA RESULT: -9.104371571      0.000      0.000
REMARK  7 active torsions:
REMARK  status: ('A' for Active; 'I' for Inactive)
REMARK    1  A    between atoms: C3_3  and  C4_4 
REMARK    2  A    between atoms: C4_4  and  N2_6 
REMARK    3  A    between atoms: N2_6  and  N3_8 
REMARK    4  A    between atoms: N3_8  and  N4_9 
REMARK    5  A    between atoms: N4_9  and  C5_11 
REMARK    6  A    between atoms: C11_20  and  N6_21 
REMARK    7  A    between atoms: C13_25  and  O3_27 
ROOT
HETATM    1  N2  UNL     1      28.880   7.990   7.458  1.00  0.00    -0.271 N 
ATOM      2  H2  UNL     1      28.570   8.961   7.434  1.00  0.00     0.185 HD
ENDROOT
BRANCH   1   3
HETATM    3  C4  UNL     1      29.181   7.371   8.723  1.00  0.00     0.144 C 
HETATM    4  N1  UNL     1      30.064   8.167   9.492  1.00  0.00    -0.081 NA
BRANCH   3   5
HETATM    5  C3  UNL     1      28.706   6.223   9.136  1.00  0.00     0.066 A 
HETATM    6  C2  UNL     1      29.400   5.000   9.005  1.00  0.00     0.057 A 
HETATM    7  C1  UNL     1      30.586   4.747   8.535  1.00  0.00     0.046 C 
HETATM    8  N9  UNL     1      28.603   4.000   9.494  1.00  0.00    -0.296 N 
HETATM    9  N8  UNL     1      27.503   4.531   9.901  1.00  0.00    -0.294 N 
HETATM   10  C14 UNL     1      28.961   2.562   9.537  1.00  0.00     0.178 C 
HETATM   11  C12 UNL     1      27.511   5.913   9.706  1.00  0.00     0.112 A 
ATOM     12  H8  UNL     1      26.728   4.011  10.312  1.00  0.00     0.187 HD
HETATM   13  C13 UNL     1      26.415   6.711  10.182  1.00  0.00     0.179 C 
HETATM   14  N7  UNL     1      26.352   8.015  10.668  1.00  0.00    -0.073 NA
BRANCH  13  15
HETATM   15  O3  UNL     1      25.255   6.116  10.171  1.00  0.00    -0.347 OA
ATOM     16  H3  UNL     1      24.561   6.599   9.739  1.00  0.00     0.219 HD
ENDBRANCH  13  15
ENDBRANCH   3   5
ENDBRANCH   1   3
BRANCH   1  17
HETATM   17  N3  UNL     1      29.009   7.275   6.260  1.00  0.00    -0.021 NA
BRANCH  17  18
HETATM   18  N4  UNL     1      27.874   6.574   5.914  1.00  0.00    -0.282 N 
ATOM     19  H4  UNL     1      27.668   5.699   6.396  1.00  0.00     0.184 HD
BRANCH  18  20
HETATM   20  C5  UNL     1      26.986   7.031   4.908  1.00  0.00     0.080 A 
HETATM   21  C6  UNL     1      27.077   6.671   3.639  1.00  0.00     0.088 A 
HETATM   22  C7  UNL     1      26.025   7.305   2.858  1.00  0.00     0.191 A 
HETATM   23  O1  UNL     1      25.842   7.165   1.625  1.00  0.00    -0.287 OA
HETATM   24  C8  UNL     1      25.261   8.105   3.789  1.00  0.00     0.098 A 
HETATM   25  C9  UNL     1      25.847   7.940   5.049  1.00  0.00     0.103 A 
HETATM   26  C11 UNL     1      24.203   8.957   3.947  1.00  0.00     0.180 A 
HETATM   27  N5  UNL     1      25.120   8.690   5.877  1.00  0.00    -0.252 N 
HETATM   28  C10 UNL     1      25.382   8.812   7.300  1.00  0.00     0.186 C 
HETATM   29  O2  UNL     1      24.166   9.276   5.220  1.00  0.00    -0.217 OA
BRANCH  26  30
HETATM   30  N6  UNL     1      23.410   9.350   2.988  1.00  0.00    -0.377 N 
ATOM     31  H62 UNL     1      23.656   9.659   2.047  1.00  0.00     0.158 HD
ATOM     32  H61 UNL     1      22.393   9.404   3.055  1.00  0.00     0.158 HD
ENDBRANCH  26  30
ENDBRANCH  18  20
ENDBRANCH  17  18
ENDBRANCH   1  17
TORSDOF 7
ENDMDL
MODEL 2
REMARK VINA RESULT: -9.039453852      3.165      5.402
REMARK  7 active torsions:
REMARK  status: ('A' for Active; 'I' for Inactive)
REMARK    1  A    between atoms: C3_3  and  C4_4 
REMARK    2  A    between atoms: C4_4  and  N2_6 
REMARK    3  A    between atoms: N2_6  and  N3_8 
REMARK    4  A    between atoms: N3_8  and  N4_9 
REMARK    5  A    between atoms: N4_9  and  C5_11 
REMARK    6  A    between atoms: C11_20  and  N6_21 
REMARK    7  A    between atoms: C13_25  and  O3_27 
ROOT
HETATM    1  N2  UNL     1      22.472  10.047   8.342  1.00  0.00    -0.271 N 
ATOM      2  H2  UNL     1      21.525   9.759   8.091  1.00  0.00     0.185 HD
ENDROOT
BRANCH   1   3
HETATM    3  C4  UNL     1      22.742  10.519   9.675  1.00  0.00     0.144 C 
HETATM    4  N1  UNL     1      21.654  11.264  10.191  1.00  0.00    -0.081 NA
BRANCH   3   5
HETATM    5  C3  UNL     1      23.842  10.295  10.349  1.00  0.00     0.066 A 
HETATM    6  C2  UNL     1      24.932  11.192  10.381  1.00  0.00     0.057 A 
HETATM    7  C1  UNL     1      25.076  12.367   9.844  1.00  0.00     0.046 C 
HETATM    8  N9  UNL     1      25.927  10.630  11.135  1.00  0.00    -0.296 N 
HETATM    9  N8  UNL     1      25.514   9.483  11.548  1.00  0.00    -0.294 N 
HETATM   10  C14 UNL     1      27.245  11.250  11.414  1.00  0.00     0.178 C 
HETATM   11  C12 UNL     1      24.221   9.222  11.093  1.00  0.00     0.112 A 
ATOM     12  H8  UNL     1      26.059   8.848  12.132  1.00  0.00     0.187 HD
HETATM   13  C13 UNL     1      23.536   8.034  11.521  1.00  0.00     0.179 C 
HETATM   14  N7  UNL     1      22.188   7.766  11.752  1.00  0.00    -0.073 NA
BRANCH  13  15
HETATM   15  O3  UNL     1      24.304   7.006  11.749  1.00  0.00    -0.347 OA
ATOM     16  H3  UNL     1      23.937   6.167  11.500  1.00  0.00     0.219 HD
ENDBRANCH  13  15
ENDBRANCH   3   5
ENDBRANCH   1   3
BRANCH   1  17
HETATM   17  N3  UNL     1      23.491   9.978   7.384  1.00  0.00    -0.021 NA
BRANCH  17  18
HETATM   18  N4  UNL     1      23.147   9.248   6.266  1.00  0.00    -0.282 N 
ATOM     19  H4  UNL     1      22.159   9.112   6.051  1.00  0.00     0.184 HD
BRANCH  18  20
HETATM   20  C5  UNL     1      24.123   8.682   5.408  1.00  0.00     0.080 A 
HETATM   21  C6  UNL     1      23.971   8.588   4.097  1.00  0.00     0.088 A 
HETATM   22  C7  UNL     1      25.142   7.964   3.498  1.00  0.00     0.191 A 
HETATM   23  O1  UNL     1      25.305   7.734   2.276  1.00  0.00    -0.287 OA
HETATM   24  C8  UNL     1      26.046   7.677   4.589  1.00  0.00     0.098 A 
HETATM   25  C9  UNL     1      25.425   8.117   5.764  1.00  0.00     0.103 A 
HETATM   26  C11 UNL     1      27.258   7.154   4.948  1.00  0.00     0.180 A 
HETATM   27  N5  UNL     1      26.284   7.837   6.744  1.00  0.00    -0.252 N 
HETATM   28  C10 UNL     1      26.038   8.128   8.144  1.00  0.00     0.186 C 
HETATM   29  O2  UNL     1      27.347   7.277   6.253  1.00  0.00    -0.217 OA
BRANCH  26  30
HETATM   30  N6  UNL     1      28.127   6.642   4.119  1.00  0.00    -0.377 N 
ATOM     31  H62 UNL     1      27.953   6.132   3.253  1.00  0.00     0.158 HD
ATOM     32  H61 UNL     1      29.140   6.686   4.233  1.00  0.00     0.158 HD
ENDBRANCH  26  30
ENDBRANCH  18  20
ENDBRANCH  17  18
ENDBRANCH   1  17
TORSDOF 7
ENDMDL
MODEL 3
REMARK VINA RESULT: -8.981558377      1.250      2.553
REMARK  7 active torsions:
REMARK  status: ('A' for Active; 'I' for Inactive)
REMARK    1  A    between atoms: C3_3  and  C4_4 
REMARK    2  A    between atoms: C4_4  and  N2_6 
REMARK    3  A    between atoms: N2_6  and  N3_8 
REMARK    4  A    between atoms: N3_8  and  N4_9 
REMARK    5  A    between atoms: N4_9  and  C5_11 
REMARK    6  A    between atoms: C11_20  and  N6_21 
REMARK    7  A    between atoms: C13_25  and  O3_27 
ROOT
HETATM    1  N2  UNL     1      28.891   8.413   7.655  1.00  0.00    -0.271 N 
ATOM      2  H2  UNL     1      28.695   9.410   7.571  1.00  0.00     0.185 HD
ENDROOT
BRANCH   1   3
HETATM    3  C4  UNL     1      29.016   7.820   8.961  1.00  0.00     0.144 C 
HETATM    4  N1  UNL     1      30.346   7.899   9.441  1.00  0.00    -0.081 NA
BRANCH   3   5
HETATM    5  C3  UNL     1      28.039   7.278   9.643  1.00  0.00     0.066 A 
HETATM    6  C2  UNL     1      27.152   8.019  10.456  1.00  0.00     0.057 A 
HETATM    7  C1  UNL     1      27.067   9.299  10.666  1.00  0.00     0.046 C 
HETATM    8  N9  UNL     1      26.289   7.142  11.057  1.00  0.00    -0.296 N 
HETATM    9  N8  UNL     1      26.591   5.954  10.665  1.00  0.00    -0.294 N 
HETATM   10  C14 UNL     1      25.201   7.516  11.993  1.00  0.00     0.178 C 
HETATM   11  C12 UNL     1      27.671   5.977   9.782  1.00  0.00     0.112 A 
ATOM     12  H8  UNL     1      26.105   5.107  10.961  1.00  0.00     0.187 HD
HETATM   13  C13 UNL     1      28.108   4.762   9.151  1.00  0.00     0.179 C 
HETATM   14  N7  UNL     1      28.672   4.510   7.902  1.00  0.00    -0.073 NA
BRANCH  13  15
HETATM   15  O3  UNL     1      27.945   3.682   9.862  1.00  0.00    -0.347 OA
ATOM     16  H3  UNL     1      27.113   3.241   9.737  1.00  0.00     0.219 HD
ENDBRANCH  13  15
ENDBRANCH   3   5
ENDBRANCH   1   3
BRANCH   1  17
HETATM   17  N3  UNL     1      29.036   7.638   6.498  1.00  0.00    -0.021 NA
BRANCH  17  18
HETATM   18  N4  UNL     1      27.922   6.882   6.200  1.00  0.00    -0.282 N 
ATOM     19  H4  UNL     1      27.729   6.047   6.753  1.00  0.00     0.184 HD
BRANCH  18  20
HETATM   20  C5  UNL     1      27.037   7.230   5.148  1.00  0.00     0.080 A 
HETATM   21  C6  UNL     1      27.187   6.809   3.903  1.00  0.00     0.088 A 
HETATM   22  C7  UNL     1      26.122   7.334   3.062  1.00  0.00     0.191 A 
HETATM   23  O1  UNL     1      25.983   7.118   1.834  1.00  0.00    -0.287 OA
HETATM   24  C8  UNL     1      25.285   8.135   3.927  1.00  0.00     0.098 A 
HETATM   25  C9  UNL     1      25.843   8.073   5.209  1.00  0.00     0.103 A 
HETATM   26  C11 UNL     1      24.173   8.928   4.011  1.00  0.00     0.180 A 
HETATM   27  N5  UNL     1      25.049   8.820   5.976  1.00  0.00    -0.252 N 
HETATM   28  C10 UNL     1      25.261   9.034   7.396  1.00  0.00     0.186 C 
HETATM   29  O2  UNL     1      24.080   9.311   5.264  1.00  0.00    -0.217 OA
BRANCH  26  30
HETATM   30  N6  UNL     1      23.386   9.220   3.012  1.00  0.00    -0.377 N 
ATOM     31  H62 UNL     1      22.385   9.415   3.029  1.00  0.00     0.158 HD
ATOM     32  H61 UNL     1      23.681   9.294   2.038  1.00  0.00     0.158 HD
ENDBRANCH  26  30
ENDBRANCH  18  20
ENDBRANCH  17  18
ENDBRANCH   1  17
TORSDOF 7
ENDMDL
MODEL 4
REMARK VINA RESULT: -8.974875889      1.698      3.162
REMARK  7 active torsions:
REMARK  status: ('A' for Active; 'I' for Inactive)
REMARK    1  A    between atoms: C3_3  and  C4_4 
REMARK    2  A    between atoms: C4_4  and  N2_6 
REMARK    3  A    between atoms: N2_6  and  N3_8 
REMARK    4  A    between atoms: N3_8  and  N4_9 
REMARK    5  A    between atoms: N4_9  and  C5_11 
REMARK    6  A    between atoms: C11_20  and  N6_21 
REMARK    7  A    between atoms: C13_25  and  O3_27 
ROOT
HETATM    1  N2  UNL     1      26.945   5.813   7.839  1.00  0.00    -0.271 N 
ATOM      2  H2  UNL     1      25.938   5.653   7.860  1.00  0.00     0.185 HD
ENDROOT
BRANCH   1   3
HETATM    3  C4  UNL     1      27.614   6.284   9.024  1.00  0.00     0.144 C 
HETATM    4  N1  UNL     1      26.748   6.284  10.143  1.00  0.00    -0.081 NA
BRANCH   3   5
HETATM    5  C3  UNL     1      28.867   6.662   9.086  1.00  0.00     0.066 A 
HETATM    6  C2  UNL     1      29.270   8.015   9.140  1.00  0.00     0.057 A 
HETATM    7  C1  UNL     1      28.565   9.106   9.187  1.00  0.00     0.046 C 
HETATM    8  N9  UNL     1      30.639   8.054   9.149  1.00  0.00    -0.296 N 
HETATM    9  N8  UNL     1      31.071   6.842   9.107  1.00  0.00    -0.294 N 
HETATM   10  C14 UNL     1      31.461   9.286   9.198  1.00  0.00     0.178 C 
HETATM   11  C12 UNL     1      30.014   5.933   9.070  1.00  0.00     0.112 A 
ATOM     12  H8  UNL     1      32.058   6.580   9.103  1.00  0.00     0.187 HD
HETATM   13  C13 UNL     1      30.279   4.521   9.117  1.00  0.00     0.179 C 
HETATM   14  N7  UNL     1      29.563   3.455   9.657  1.00  0.00    -0.073 NA
BRANCH  13  15
HETATM   15  O3  UNL     1      31.399   4.152   8.564  1.00  0.00    -0.347 OA
ATOM     16  H3  UNL     1      32.181   4.525   8.954  1.00  0.00     0.219 HD
ENDBRANCH  13  15
ENDBRANCH   3   5
ENDBRANCH   1   3
BRANCH   1  17
HETATM   17  N3  UNL     1      27.658   5.572   6.658  1.00  0.00    -0.021 NA
BRANCH  17  18
HETATM   18  N4  UNL     1      27.878   6.707   5.908  1.00  0.00    -0.282 N 
ATOM     19  H4  UNL     1      28.720   7.257   6.078  1.00  0.00     0.184 HD
BRANCH  18  20
HETATM   20  C5  UNL     1      26.969   7.134   4.906  1.00  0.00     0.080 A 
HETATM   21  C6  UNL     1      27.059   6.766   3.639  1.00  0.00     0.088 A 
HETATM   22  C7  UNL     1      25.985   7.367   2.862  1.00  0.00     0.191 A 
HETATM   23  O1  UNL     1      25.795   7.212   1.632  1.00  0.00    -0.287 OA
HETATM   24  C8  UNL     1      25.209   8.155   3.793  1.00  0.00     0.098 A 
HETATM   25  C9  UNL     1      25.809   8.015   5.050  1.00  0.00     0.103 A 
HETATM   26  C11 UNL     1      24.131   8.982   3.954  1.00  0.00     0.180 A 
HETATM   27  N5  UNL     1      25.071   8.753   5.878  1.00  0.00    -0.252 N 
HETATM   28  C10 UNL     1      25.341   8.893   7.298  1.00  0.00     0.186 C 
HETATM   29  O2  UNL     1      24.096   9.309   5.225  1.00  0.00    -0.217 OA
BRANCH  26  30
HETATM   30  N6  UNL     1      23.319   9.347   2.999  1.00  0.00    -0.377 N 
ATOM     31  H62 UNL     1      23.437   9.240   1.991  1.00  0.00     0.158 HD
ATOM     32  H61 UNL     1      22.421   9.809   3.140  1.00  0.00     0.158 HD
ENDBRANCH  26  30
ENDBRANCH  18  20
ENDBRANCH  17  18
ENDBRANCH   1  17
TORSDOF 7
ENDMDL
MODEL 5
REMARK VINA RESULT: -8.957899379      3.719      6.137
REMARK  7 active torsions:
REMARK  status: ('A' for Active; 'I' for Inactive)
REMARK    1  A    between atoms: C3_3  and  C4_4 
REMARK    2  A    between atoms: C4_4  and  N2_6 
REMARK    3  A    between atoms: N2_6  and  N3_8 
REMARK    4  A    between atoms: N3_8  and  N4_9 
REMARK    5  A    between atoms: N4_9  and  C5_11 
REMARK    6  A    between atoms: C11_20  and  N6_21 
REMARK    7  A    between atoms: C13_25  and  O3_27 
ROOT
HETATM    1  N2  UNL     1      26.317   5.822   8.136  1.00  0.00    -0.271 N 
ATOM      2  H2  UNL     1      25.493   5.871   7.536  1.00  0.00     0.185 HD
ENDROOT
BRANCH   1   3
HETATM    3  C4  UNL     1      27.629   5.921   7.550  1.00  0.00     0.144 C 
HETATM    4  N1  UNL     1      27.644   5.421   6.226  1.00  0.00    -0.081 NA
BRANCH   3   5
HETATM    5  C3  UNL     1      28.687   6.413   8.143  1.00  0.00     0.066 A 
HETATM    6  C2  UNL     1      28.886   7.795   8.361  1.00  0.00     0.057 A 
HETATM    7  C1  UNL     1      28.119   8.811   8.096  1.00  0.00     0.046 C 
HETATM    8  N9  UNL     1      30.107   7.963   8.957  1.00  0.00    -0.296 N 
HETATM    9  N8  UNL     1      30.639   6.801   9.110  1.00  0.00    -0.294 N 
HETATM   10  C14 UNL     1      30.696   9.266   9.351  1.00  0.00     0.178 C 
HETATM   11  C12 UNL     1      29.800   5.798   8.624  1.00  0.00     0.112 A 
ATOM     12  H8  UNL     1      31.553   6.635   9.532  1.00  0.00     0.187 HD
HETATM   13  C13 UNL     1      30.164   4.417   8.787  1.00  0.00     0.179 C 
HETATM   14  N7  UNL     1      29.400   3.266   8.969  1.00  0.00    -0.073 NA
BRANCH  13  15
HETATM   15  O3  UNL     1      31.445   4.180   8.770  1.00  0.00    -0.347 OA
ATOM     16  H3  UNL     1      31.770   3.788   7.969  1.00  0.00     0.219 HD
ENDBRANCH  13  15
ENDBRANCH   3   5
ENDBRANCH   1   3
BRANCH   1  17
HETATM   17  N3  UNL     1      26.158   5.659   9.517  1.00  0.00    -0.021 NA
BRANCH  17  18
HETATM   18  N4  UNL     1      25.286   6.565  10.081  1.00  0.00    -0.282 N 
ATOM     19  H4  UNL     1      24.284   6.446   9.932  1.00  0.00     0.184 HD
BRANCH  18  20
HETATM   20  C5  UNL     1      25.739   7.659  10.861  1.00  0.00     0.080 A 
HETATM   21  C6  UNL     1      26.555   7.527  11.894  1.00  0.00     0.088 A 
HETATM   22  C7  UNL     1      26.834   8.827  12.485  1.00  0.00     0.191 A 
HETATM   23  O1  UNL     1      27.572   9.037  13.477  1.00  0.00    -0.287 OA
HETATM   24  C8  UNL     1      26.097   9.792  11.701  1.00  0.00     0.098 A 
HETATM   25  C9  UNL     1      25.423   9.079  10.702  1.00  0.00     0.103 A 
HETATM   26  C11 UNL     1      25.785  11.113  11.530  1.00  0.00     0.180 A 
HETATM   27  N5  UNL     1      24.757   9.997  10.002  1.00  0.00    -0.252 N 
HETATM   28  C10 UNL     1      23.916   9.691   8.859  1.00  0.00     0.186 C 
HETATM   29  O2  UNL     1      24.978  11.177  10.497  1.00  0.00    -0.217 OA
BRANCH  26  30
HETATM   30  N6  UNL     1      26.229  12.088  12.277  1.00  0.00    -0.377 N 
ATOM     31  H62 UNL     1      27.108  12.599  12.196  1.00  0.00     0.158 HD
ATOM     32  H61 UNL     1      25.733  12.484  13.075  1.00  0.00     0.158 HD
ENDBRANCH  26  30
ENDBRANCH  18  20
ENDBRANCH  17  18
ENDBRANCH   1  17
TORSDOF 7
ENDMDL
