MODEL 1
REMARK VINA RESULT: -8.482700005      0.000      0.000
REMARK  8 active torsions:
REMARK  status: ('A' for Active; 'I' for Inactive)
REMARK    1  A    between atoms: N1_2  and  O1_3 
REMARK    2  A    between atoms: N1_2  and  C2_5 
REMARK    3  A    between atoms: N3_8  and  C3_9 
REMARK    4  A    between atoms: C5_14  and  C6_15 
REMARK    5  A    between atoms: C6_15  and  N7_19 
REMARK    6  A    between atoms: N7_19  and  N8_21 
REMARK    7  A    between atoms: C7_23  and  C8_24 
REMARK    8  A    between atoms: C11_31  and  O2_32 
ROOT
HETATM    1  C3  UNL     1      23.844   9.570   7.515  1.00  0.00     0.160 A 
HETATM    2  N4  UNL     1      22.673  10.085   7.919  1.00  0.00    -0.327 N 
ATOM      3  H4  UNL     1      21.862  10.192   7.309  1.00  0.00     0.168 HD
HETATM    4  C4  UNL     1      22.683  10.443   9.203  1.00  0.00     0.135 A 
HETATM    5  N5  UNL     1      21.645  11.018   9.978  1.00  0.00    -0.082 NA
HETATM    6  C5  UNL     1      23.941  10.140   9.663  1.00  0.00     0.087 A 
HETATM    7  C11 UNL     1      24.680   9.590   8.607  1.00  0.00     0.129 A 
ENDROOT
BRANCH   6   8
HETATM    8  C6  UNL     1      24.462  10.339  11.006  1.00  0.00     0.130 C 
HETATM    9  N6  UNL     1      23.663  10.149  11.998  1.00  0.00    -0.384 N 
ATOM     10  H62 UNL     1      22.695   9.869  11.838  1.00  0.00     0.157 HD
ATOM     11  H61 UNL     1      24.028  10.288  12.940  1.00  0.00     0.157 HD
BRANCH   8  12
HETATM   12  N7  UNL     1      25.806  10.728  11.229  1.00  0.00    -0.285 N 
ATOM     13  H7  UNL     1      26.317  11.245  10.513  1.00  0.00     0.188 HD
BRANCH  12  14
HETATM   14  N8  UNL     1      26.421  10.399  12.429  1.00  0.00    -0.308 N 
HETATM   15  C7  UNL     1      27.107   9.336  12.641  1.00  0.00     0.139 C 
ATOM     16  H8  UNL     1      26.320  11.054  13.204  1.00  0.00     0.186 HD
BRANCH  15  17
HETATM   17  C8  UNL     1      27.303   8.350  11.595  1.00  0.00     0.079 A 
HETATM   18  C9  UNL     1      26.543   7.204  11.376  1.00  0.00     0.139 A 
HETATM   19  N9  UNL     1      27.026   6.541  10.320  1.00  0.00    -0.289 N 
HETATM   20  C10 UNL     1      26.556   5.301   9.729  1.00  0.00     0.174 C 
HETATM   21  N10 UNL     1      28.063   7.244   9.875  1.00  0.00    -0.021 NA
HETATM   22  N11 UNL     1      28.233   8.323  10.629  1.00  0.00    -0.281 N 
ATOM     23  H11 UNL     1      28.961   9.025  10.495  1.00  0.00     0.184 HD
ENDBRANCH  15  17
ENDBRANCH  12  14
ENDBRANCH   8  12
ENDBRANCH   6   8
BRANCH   7  24
HETATM   24  O2  UNL     1      25.980   9.171   8.704  1.00  0.00    -0.356 OA
ATOM     25  H2  UNL     1      26.572   9.223   9.446  1.00  0.00     0.218 HD
ENDBRANCH   7  24
BRANCH   1  26
HETATM   26  N3  UNL     1      24.147   9.090   6.185  1.00  0.00    -0.253 N 
HETATM   27  N2  UNL     1      25.339   8.423   5.875  1.00  0.00    -0.264 N 
HETATM   28  C2  UNL     1      25.419   8.079   4.658  1.00  0.00     0.217 A 
ATOM     29  H2  UNL     1      26.070   8.232   6.560  1.00  0.00     0.190 HD
HETATM   30  N12 UNL     1      24.222   8.510   4.006  1.00  0.00    -0.341 N 
HETATM   31  C12 UNL     1      23.381   9.175   4.987  1.00  0.00     0.275 A 
ATOM     32  H12 UNL     1      23.996   8.373   3.021  1.00  0.00     0.164 HD
BRANCH  28  33
HETATM   33  N1  UNL     1      26.520   7.387   4.073  1.00  0.00    -0.233 N 
HETATM   34  C1  UNL     1      27.656   6.975   4.869  1.00  0.00     0.188 C 
BRANCH  33  35
HETATM   35  O1  UNL     1      26.528   7.102   2.755  1.00  0.00    -0.285 OA
ATOM     36  H1  UNL     1      26.767   7.792   2.148  1.00  0.00     0.245 HD
ENDBRANCH  33  35
ENDBRANCH  28  33
ENDBRANCH   1  26
TORSDOF 8
ENDMDL
MODEL 2
REMARK VINA RESULT: -8.455417209      2.583      5.304
REMARK  8 active torsions:
REMARK  status: ('A' for Active; 'I' for Inactive)
REMARK    1  A    between atoms: N1_2  and  O1_3 
REMARK    2  A    between atoms: N1_2  and  C2_5 
REMARK    3  A    between atoms: N3_8  and  C3_9 
REMARK    4  A    between atoms: C5_14  and  C6_15 
REMARK    5  A    between atoms: C6_15  and  N7_19 
REMARK    6  A    between atoms: N7_19  and  N8_21 
REMARK    7  A    between atoms: C7_23  and  C8_24 
REMARK    8  A    between atoms: C11_31  and  O2_32 
ROOT
HETATM    1  C3  UNL     1      27.358   7.497   6.361  1.00  0.00     0.160 A 
HETATM    2  N4  UNL     1      26.894   7.442   5.103  1.00  0.00    -0.327 N 
ATOM      3  H4  UNL     1      27.386   6.977   4.340  1.00  0.00     0.168 HD
HETATM    4  C4  UNL     1      25.721   8.058   4.959  1.00  0.00     0.135 A 
HETATM    5  N5  UNL     1      24.929   8.209   3.793  1.00  0.00    -0.082 NA
HETATM    6  C5  UNL     1      25.402   8.545   6.202  1.00  0.00     0.087 A 
HETATM    7  C11 UNL     1      26.427   8.196   7.093  1.00  0.00     0.129 A 
ENDROOT
BRANCH   6   8
HETATM    8  C6  UNL     1      24.216   9.297   6.579  1.00  0.00     0.130 C 
HETATM    9  N6  UNL     1      23.108   9.016   5.986  1.00  0.00    -0.384 N 
ATOM     10  H62 UNL     1      23.072   8.286   5.274  1.00  0.00     0.157 HD
ATOM     11  H61 UNL     1      22.276   9.543   6.250  1.00  0.00     0.157 HD
BRANCH   8  12
HETATM   12  N7  UNL     1      24.266  10.312   7.567  1.00  0.00    -0.285 N 
ATOM     13  H7  UNL     1      25.145  10.785   7.775  1.00  0.00     0.188 HD
BRANCH  12  14
HETATM   14  N8  UNL     1      23.107  10.655   8.251  1.00  0.00    -0.308 N 
HETATM   15  C7  UNL     1      22.782  10.227   9.415  1.00  0.00     0.139 C 
ATOM     16  H8  UNL     1      22.464  11.299   7.792  1.00  0.00     0.186 HD
BRANCH  15  17
HETATM   17  C8  UNL     1      23.639   9.308  10.141  1.00  0.00     0.079 A 
HETATM   18  C9  UNL     1      24.476   9.616  11.211  1.00  0.00     0.139 A 
HETATM   19  N9  UNL     1      25.108   8.511  11.618  1.00  0.00    -0.289 N 
HETATM   20  C10 UNL     1      26.070   8.354  12.694  1.00  0.00     0.174 C 
HETATM   21  N10 UNL     1      24.686   7.524  10.832  1.00  0.00    -0.021 NA
HETATM   22  N11 UNL     1      23.811   7.992   9.951  1.00  0.00    -0.281 N 
ATOM     23  H11 UNL     1      23.340   7.435   9.237  1.00  0.00     0.184 HD
ENDBRANCH  15  17
ENDBRANCH  12  14
ENDBRANCH   8  12
ENDBRANCH   6   8
BRANCH   7  24
HETATM   24  O2  UNL     1      26.443   8.519   8.424  1.00  0.00    -0.356 OA
ATOM     25  H2  UNL     1      26.379   9.374   8.833  1.00  0.00     0.218 HD
ENDBRANCH   7  24
BRANCH   1  26
HETATM   26  N3  UNL     1      28.598   6.924   6.836  1.00  0.00    -0.253 N 
HETATM   27  N2  UNL     1      28.641   5.867   7.754  1.00  0.00    -0.264 N 
HETATM   28  C2  UNL     1      29.819   5.503   8.044  1.00  0.00     0.217 A 
ATOM     29  H2  UNL     1      27.807   5.433   8.149  1.00  0.00     0.190 HD
HETATM   30  N12 UNL     1      30.722   6.330   7.306  1.00  0.00    -0.341 N 
HETATM   31  C12 UNL     1      29.943   7.266   6.515  1.00  0.00     0.275 A 
ATOM     32  H12 UNL     1      31.741   6.272   7.331  1.00  0.00     0.164 HD
BRANCH  28  33
HETATM   33  N1  UNL     1      30.152   4.453   8.949  1.00  0.00    -0.233 N 
HETATM   34  C1  UNL     1      29.176   3.457   9.335  1.00  0.00     0.188 C 
BRANCH  33  35
HETATM   35  O1  UNL     1      31.393   4.365   9.471  1.00  0.00    -0.285 OA
ATOM     36  H1  UNL     1      32.065   4.943   9.130  1.00  0.00     0.245 HD
ENDBRANCH  33  35
ENDBRANCH  28  33
ENDBRANCH   1  26
TORSDOF 8
ENDMDL
MODEL 3
REMARK VINA RESULT: -8.450454515      2.368      5.028
REMARK  8 active torsions:
REMARK  status: ('A' for Active; 'I' for Inactive)
REMARK    1  A    between atoms: N1_2  and  O1_3 
REMARK    2  A    between atoms: N1_2  and  C2_5 
REMARK    3  A    between atoms: N3_8  and  C3_9 
REMARK    4  A    between atoms: C5_14  and  C6_15 
REMARK    5  A    between atoms: C6_15  and  N7_19 
REMARK    6  A    between atoms: N7_19  and  N8_21 
REMARK    7  A    between atoms: C7_23  and  C8_24 
REMARK    8  A    between atoms: C11_31  and  O2_32 
ROOT
HETATM    1  C3  UNL     1      26.854   7.419  10.631  1.00  0.00     0.160 A 
HETATM    2  N4  UNL     1      27.459   8.437  11.263  1.00  0.00    -0.327 N 
ATOM      3  H4  UNL     1      28.470   8.515  11.369  1.00  0.00     0.168 HD
HETATM    4  C4  UNL     1      26.595   9.334  11.738  1.00  0.00     0.135 A 
HETATM    5  N5  UNL     1      26.853  10.530  12.455  1.00  0.00    -0.082 NA
HETATM    6  C5  UNL     1      25.350   8.870  11.393  1.00  0.00     0.087 A 
HETATM    7  C11 UNL     1      25.502   7.664  10.695  1.00  0.00     0.129 A 
ENDROOT
BRANCH   6   8
HETATM    8  C6  UNL     1      24.065   9.490  11.679  1.00  0.00     0.130 C 
HETATM    9  N6  UNL     1      23.853   9.914  12.875  1.00  0.00    -0.384 N 
ATOM     10  H62 UNL     1      24.568   9.814  13.596  1.00  0.00     0.157 HD
ATOM     11  H61 UNL     1      22.952  10.349  13.076  1.00  0.00     0.157 HD
BRANCH   8  12
HETATM   12  N7  UNL     1      23.071   9.628  10.678  1.00  0.00    -0.285 N 
ATOM     13  H7  UNL     1      22.430   8.860  10.480  1.00  0.00     0.188 HD
BRANCH  12  14
HETATM   14  N8  UNL     1      22.979  10.818   9.968  1.00  0.00    -0.308 N 
HETATM   15  C7  UNL     1      23.545  11.052   8.841  1.00  0.00     0.139 C 
ATOM     16  H8  UNL     1      22.418  11.565  10.375  1.00  0.00     0.186 HD
BRANCH  15  17
HETATM   17  C8  UNL     1      24.362  10.045   8.191  1.00  0.00     0.079 A 
HETATM   18  C9  UNL     1      25.731  10.115   7.941  1.00  0.00     0.139 A 
HETATM   19  N9  UNL     1      26.131   8.999   7.323  1.00  0.00    -0.289 N 
HETATM   20  C10 UNL     1      27.462   8.633   6.873  1.00  0.00     0.174 C 
HETATM   21  N10 UNL     1      25.049   8.237   7.182  1.00  0.00    -0.021 NA
HETATM   22  N11 UNL     1      23.993   8.854   7.697  1.00  0.00    -0.281 N 
ATOM     23  H11 UNL     1      23.044   8.479   7.715  1.00  0.00     0.184 HD
ENDBRANCH  15  17
ENDBRANCH  12  14
ENDBRANCH   8  12
ENDBRANCH   6   8
BRANCH   7  24
HETATM   24  O2  UNL     1      24.467   6.919  10.196  1.00  0.00    -0.356 OA
ATOM     25  H2  UNL     1      23.532   7.070  10.270  1.00  0.00     0.218 HD
ENDBRANCH   7  24
BRANCH   1  26
HETATM   26  N3  UNL     1      27.514   6.293  10.009  1.00  0.00    -0.253 N 
HETATM   27  N2  UNL     1      28.751   6.404   9.361  1.00  0.00    -0.264 N 
HETATM   28  C2  UNL     1      29.166   5.307   8.882  1.00  0.00     0.217 A 
ATOM     29  H2  UNL     1      29.266   7.281   9.282  1.00  0.00     0.190 HD
HETATM   30  N12 UNL     1      28.191   4.307   9.182  1.00  0.00    -0.341 N 
HETATM   31  C12 UNL     1      27.103   4.933   9.914  1.00  0.00     0.275 A 
ATOM     32  H12 UNL     1      28.248   3.321   8.926  1.00  0.00     0.164 HD
BRANCH  28  33
HETATM   33  N1  UNL     1      30.392   5.134   8.174  1.00  0.00    -0.233 N 
HETATM   34  C1  UNL     1      30.994   6.225   7.439  1.00  0.00     0.188 C 
BRANCH  33  35
HETATM   35  O1  UNL     1      31.020   3.941   8.173  1.00  0.00    -0.285 OA
ATOM     36  H1  UNL     1      31.465   3.667   8.967  1.00  0.00     0.245 HD
ENDBRANCH  33  35
ENDBRANCH  28  33
ENDBRANCH   1  26
TORSDOF 8
ENDMDL
MODEL 4
REMARK VINA RESULT: -8.365110979      1.231      1.493
REMARK  8 active torsions:
REMARK  status: ('A' for Active; 'I' for Inactive)
REMARK    1  A    between atoms: N1_2  and  O1_3 
REMARK    2  A    between atoms: N1_2  and  C2_5 
REMARK    3  A    between atoms: N3_8  and  C3_9 
REMARK    4  A    between atoms: C5_14  and  C6_15 
REMARK    5  A    between atoms: C6_15  and  N7_19 
REMARK    6  A    between atoms: N7_19  and  N8_21 
REMARK    7  A    between atoms: C7_23  and  C8_24 
REMARK    8  A    between atoms: C11_31  and  O2_32 
ROOT
HETATM    1  C3  UNL     1      23.957   9.604   7.195  1.00  0.00     0.160 A 
HETATM    2  N4  UNL     1      22.776   9.976   7.712  1.00  0.00    -0.327 N 
ATOM      3  H4  UNL     1      21.895   9.930   7.200  1.00  0.00     0.168 HD
HETATM    4  C4  UNL     1      22.878  10.411   8.968  1.00  0.00     0.135 A 
HETATM    5  N5  UNL     1      21.861  10.882   9.835  1.00  0.00    -0.082 NA
HETATM    6  C5  UNL     1      24.210  10.315   9.287  1.00  0.00     0.087 A 
HETATM    7  C11 UNL     1      24.898   9.808   8.176  1.00  0.00     0.129 A 
ENDROOT
BRANCH   6   8
HETATM    8  C6  UNL     1      24.844  10.667  10.548  1.00  0.00     0.130 C 
HETATM    9  N6  UNL     1      24.638  11.847  11.019  1.00  0.00    -0.384 N 
ATOM     10  H62 UNL     1      24.048  12.510  10.517  1.00  0.00     0.157 HD
ATOM     11  H61 UNL     1      25.082  12.094  11.904  1.00  0.00     0.157 HD
BRANCH   8  12
HETATM   12  N7  UNL     1      25.665   9.746  11.246  1.00  0.00    -0.285 N 
ATOM     13  H7  UNL     1      26.680   9.840  11.221  1.00  0.00     0.188 HD
BRANCH  12  14
HETATM   14  N8  UNL     1      25.075   8.713  11.962  1.00  0.00    -0.308 N 
HETATM   15  C7  UNL     1      25.082   7.477  11.619  1.00  0.00     0.139 C 
ATOM     16  H8  UNL     1      24.597   8.956  12.829  1.00  0.00     0.186 HD
BRANCH  15  17
HETATM   17  C8  UNL     1      25.738   7.043  10.400  1.00  0.00     0.079 A 
HETATM   18  C9  UNL     1      27.080   6.703  10.250  1.00  0.00     0.139 A 
HETATM   19  N9  UNL     1      27.315   6.353   8.981  1.00  0.00    -0.289 N 
HETATM   20  C10 UNL     1      28.560   5.927   8.367  1.00  0.00     0.174 C 
HETATM   21  N10 UNL     1      26.155   6.465   8.338  1.00  0.00    -0.021 NA
HETATM   22  N11 UNL     1      25.213   6.874   9.177  1.00  0.00    -0.281 N 
ATOM     23  H11 UNL     1      24.236   7.037   8.930  1.00  0.00     0.184 HD
ENDBRANCH  15  17
ENDBRANCH  12  14
ENDBRANCH   8  12
ENDBRANCH   6   8
BRANCH   7  24
HETATM   24  O2  UNL     1      26.248   9.580   8.136  1.00  0.00    -0.356 OA
ATOM     25  H2  UNL     1      26.849   9.415   8.854  1.00  0.00     0.218 HD
ENDBRANCH   7  24
BRANCH   1  26
HETATM   26  N3  UNL     1      24.176   9.090   5.861  1.00  0.00    -0.253 N 
HETATM   27  N2  UNL     1      25.339   8.399   5.498  1.00  0.00    -0.264 N 
HETATM   28  C2  UNL     1      25.343   8.027   4.287  1.00  0.00     0.217 A 
ATOM     29  H2  UNL     1      26.106   8.214   6.143  1.00  0.00     0.190 HD
HETATM   30  N12 UNL     1      24.115   8.458   3.697  1.00  0.00    -0.341 N 
HETATM   31  C12 UNL     1      23.342   9.158   4.709  1.00  0.00     0.275 A 
ATOM     32  H12 UNL     1      23.830   8.302   2.730  1.00  0.00     0.164 HD
BRANCH  28  33
HETATM   33  N1  UNL     1      26.399   7.306   3.655  1.00  0.00    -0.233 N 
HETATM   34  C1  UNL     1      27.503   6.769   4.420  1.00  0.00     0.188 C 
BRANCH  33  35
HETATM   35  O1  UNL     1      26.394   7.111   2.321  1.00  0.00    -0.285 OA
ATOM     36  H1  UNL     1      26.063   7.808   1.767  1.00  0.00     0.245 HD
ENDBRANCH  33  35
ENDBRANCH  28  33
ENDBRANCH   1  26
TORSDOF 8
ENDMDL
MODEL 5
REMARK VINA RESULT: -8.309853646      1.863      4.462
REMARK  8 active torsions:
REMARK  status: ('A' for Active; 'I' for Inactive)
REMARK    1  A    between atoms: N1_2  and  O1_3 
REMARK    2  A    between atoms: N1_2  and  C2_5 
REMARK    3  A    between atoms: N3_8  and  C3_9 
REMARK    4  A    between atoms: C5_14  and  C6_15 
REMARK    5  A    between atoms: C6_15  and  N7_19 
REMARK    6  A    between atoms: N7_19  and  N8_21 
REMARK    7  A    between atoms: C7_23  and  C8_24 
REMARK    8  A    between atoms: C11_31  and  O2_32 
ROOT
HETATM    1  C3  UNL     1      27.450   7.456   7.198  1.00  0.00     0.160 A 
HETATM    2  N4  UNL     1      28.672   7.711   7.691  1.00  0.00    -0.327 N 
ATOM      3  H4  UNL     1      29.499   7.845   7.109  1.00  0.00     0.168 HD
HETATM    4  C4  UNL     1      28.688   7.772   9.022  1.00  0.00     0.135 A 
HETATM    5  N5  UNL     1      29.780   8.019   9.891  1.00  0.00    -0.082 NA
HETATM    6  C5  UNL     1      27.395   7.542   9.421  1.00  0.00     0.087 A 
HETATM    7  C11 UNL     1      26.607   7.341   8.279  1.00  0.00     0.129 A 
ENDROOT
BRANCH   6   8
HETATM    8  C6  UNL     1      26.882   7.503  10.781  1.00  0.00     0.130 C 
HETATM    9  N6  UNL     1      27.510   8.177  11.682  1.00  0.00    -0.384 N 
ATOM     10  H62 UNL     1      28.340   8.718  11.440  1.00  0.00     0.157 HD
ATOM     11  H61 UNL     1      27.150   8.151  12.636  1.00  0.00     0.157 HD
BRANCH   8  12
HETATM   12  N7  UNL     1      25.729   6.751  11.117  1.00  0.00    -0.285 N 
ATOM     13  H7  UNL     1      25.480   5.922  10.578  1.00  0.00     0.188 HD
BRANCH  12  14
HETATM   14  N8  UNL     1      24.940   7.155  12.186  1.00  0.00    -0.308 N 
HETATM   15  C7  UNL     1      24.113   8.135  12.165  1.00  0.00     0.139 C 
ATOM     16  H8  UNL     1      25.023   6.630  13.056  1.00  0.00     0.186 HD
BRANCH  15  17
HETATM   17  C8  UNL     1      23.931   8.936  10.969  1.00  0.00     0.079 A 
HETATM   18  C9  UNL     1      24.449  10.206  10.728  1.00  0.00     0.139 A 
HETATM   19  N9  UNL     1      24.066  10.623   9.517  1.00  0.00    -0.289 N 
HETATM   20  C10 UNL     1      24.366  11.876   8.846  1.00  0.00     0.174 C 
HETATM   21  N10 UNL     1      23.325   9.648   8.998  1.00  0.00    -0.021 NA
HETATM   22  N11 UNL     1      23.241   8.640   9.858  1.00  0.00    -0.281 N 
ATOM     23  H11 UNL     1      22.729   7.772   9.698  1.00  0.00     0.184 HD
ENDBRANCH  15  17
ENDBRANCH  12  14
ENDBRANCH   8  12
ENDBRANCH   6   8
BRANCH   7  24
HETATM   24  O2  UNL     1      25.261   7.084   8.298  1.00  0.00    -0.356 OA
ATOM     25  H2  UNL     1      24.569   7.556   8.745  1.00  0.00     0.218 HD
ENDBRANCH   7  24
BRANCH   1  26
HETATM   26  N3  UNL     1      27.107   7.330   5.799  1.00  0.00    -0.253 N 
HETATM   27  N2  UNL     1      25.976   7.938   5.239  1.00  0.00    -0.264 N 
HETATM   28  C2  UNL     1      25.849   7.713   3.999  1.00  0.00     0.217 A 
ATOM     29  H2  UNL     1      25.321   8.506   5.776  1.00  0.00     0.190 HD
HETATM   30  N12 UNL     1      26.942   6.888   3.593  1.00  0.00    -0.341 N 
HETATM   31  C12 UNL     1      27.772   6.624   4.757  1.00  0.00     0.275 A 
ATOM     32  H12 UNL     1      27.112   6.543   2.648  1.00  0.00     0.164 HD
BRANCH  28  33
HETATM   33  N1  UNL     1      24.791   8.210   3.182  1.00  0.00    -0.233 N 
HETATM   34  C1  UNL     1      23.682   8.943   3.753  1.00  0.00     0.188 C 
BRANCH  33  35
HETATM   35  O1  UNL     1      24.799   8.004   1.849  1.00  0.00    -0.285 OA
ATOM     36  H1  UNL     1      25.570   8.265   1.359  1.00  0.00     0.245 HD
ENDBRANCH  33  35
ENDBRANCH  28  33
ENDBRANCH   1  26
TORSDOF 8
ENDMDL
