MODEL 1
REMARK VINA RESULT: -8.121532465      0.000      0.000
REMARK  5 active torsions:
REMARK  status: ('A' for Active; 'I' for Inactive)
REMARK       I    between atoms: N1_2  and  C2_4 
REMARK    1  A    between atoms: C2_4  and  C3_6 
REMARK    2  A    between atoms: N2_8  and  N3_9 
REMARK    3  A    between atoms: C7_14  and  N5_15 
REMARK    4  A    between atoms: C10_25  and  N9_26 
REMARK    5  A    between atoms: N9_26  and  C11_29 
ROOT
HETATM    1  N3  UNL     1      27.442   8.217   8.573  1.00  0.00    -0.255 N 
HETATM    2  C5  UNL     1      28.353   8.384   7.465  1.00  0.00     0.208 C 
HETATM    3  C6  UNL     1      29.549   7.551   7.509  1.00  0.00     0.076 A 
HETATM    4  N4  UNL     1      30.480   7.680   6.554  1.00  0.00    -0.192 N 
ATOM      5  H4  UNL     1      30.347   8.357   5.804  1.00  0.00     0.184 HD
HETATM    6  C7  UNL     1      31.605   6.908   6.581  1.00  0.00     0.677 A 
HETATM    7  N6  UNL     1      31.821   6.002   7.551  1.00  0.00    -0.177 N 
ATOM      8  H6  UNL     1      32.668   5.435   7.554  1.00  0.00     0.185 HD
HETATM    9  C8  UNL     1      30.892   5.860   8.522  1.00  0.00     0.160 A 
HETATM   10  N7  UNL     1      31.073   4.930   9.556  1.00  0.00    -0.080 NA
HETATM   11  C9  UNL     1      29.726   6.633   8.528  1.00  0.00     0.098 A 
HETATM   12  N8  UNL     1      28.767   6.465   9.559  1.00  0.00    -0.341 N 
ATOM     13  H8  UNL     1      28.832   5.657  10.179  1.00  0.00     0.163 HD
HETATM   14  C10 UNL     1      27.705   7.414   9.743  1.00  0.00     0.408 C 
ENDROOT
BRANCH   1  15
HETATM   15  N2  UNL     1      26.212   8.906   8.474  1.00  0.00    -0.188 N 
HETATM   16  C4  UNL     1      25.920  10.133   8.925  1.00  0.00     0.170 A 
HETATM   17  C3  UNL     1      24.589  10.438   8.624  1.00  0.00     0.132 A 
HETATM   18  N11 UNL     1      24.136   9.360   7.993  1.00  0.00    -0.276 N 
HETATM   19  N10 UNL     1      25.087   8.446   7.897  1.00  0.00     0.001 NA
ATOM     20  H11 UNL     1      23.187   9.252   7.633  1.00  0.00     0.184 HD
BRANCH  17  21
HETATM   21  C2  UNL     1      23.929  11.686   8.962  1.00  0.00     0.270 C 
HETATM   22  N1  UNL     1      24.552  12.944   8.795  1.00  0.00    -0.360 N 
HETATM   23  C1  UNL     1      23.916  14.180   9.123  1.00  0.00     0.149 C 
ATOM     24  H1  UNL     1      25.501  12.970   8.421  1.00  0.00     0.162 HD
HETATM   25  O1  UNL     1      22.765  11.653   9.418  1.00  0.00    -0.266 OA
ENDBRANCH  17  21
ENDBRANCH   1  15
BRANCH  14  26
HETATM   26  N9  UNL     1      26.482   6.749  10.137  1.00  0.00    -0.032 N 
ATOM     27  H92 UNL     1      25.745   6.911   9.450  1.00  0.00     0.282 HD
ATOM     28  H91 UNL     1      26.576   5.737  10.049  1.00  0.00     0.282 HD
BRANCH  26  29
HETATM   29  C11 UNL     1      26.040   7.104  11.447  1.00  0.00     0.182 C 
HETATM   30  C12 UNL     1      24.567   7.525  11.338  1.00  0.00     0.039 C 
HETATM   31  C13 UNL     1      26.786   8.245  12.057  1.00  0.00     0.039 C 
ENDBRANCH  26  29
ENDBRANCH  14  26
BRANCH   6  32
HETATM   32  N5  UNL     1      32.493   7.047   5.648  1.00  0.00    -0.234 N 
ATOM     33  H52 UNL     1      32.306   6.652   4.727  1.00  0.00     0.174 HD
ATOM     34  H51 UNL     1      33.359   7.546   5.853  1.00  0.00     0.174 HD
ENDBRANCH   6  32
TORSDOF 5
ENDMDL
MODEL 2
REMARK VINA RESULT: -8.050072932      3.518      7.827
REMARK  5 active torsions:
REMARK  status: ('A' for Active; 'I' for Inactive)
REMARK       I    between atoms: N1_2  and  C2_4 
REMARK    1  A    between atoms: C2_4  and  C3_6 
REMARK    2  A    between atoms: N2_8  and  N3_9 
REMARK    3  A    between atoms: C7_14  and  N5_15 
REMARK    4  A    between atoms: C10_25  and  N9_26 
REMARK    5  A    between atoms: N9_26  and  C11_29 
ROOT
HETATM    1  N3  UNL     1      26.424   7.950   8.523  1.00  0.00    -0.255 N 
HETATM    2  C5  UNL     1      26.181   8.224   9.919  1.00  0.00     0.208 C 
HETATM    3  C6  UNL     1      25.042   9.092  10.196  1.00  0.00     0.076 A 
HETATM    4  N4  UNL     1      24.775   9.448  11.460  1.00  0.00    -0.192 N 
ATOM      5  H4  UNL     1      25.368   9.112  12.218  1.00  0.00     0.184 HD
HETATM    6  C7  UNL     1      23.714  10.260  11.736  1.00  0.00     0.677 A 
HETATM    7  N6  UNL     1      22.907  10.728  10.766  1.00  0.00    -0.177 N 
ATOM      8  H6  UNL     1      22.119  11.334  10.992  1.00  0.00     0.185 HD
HETATM    9  C8  UNL     1      23.163  10.377   9.487  1.00  0.00     0.160 A 
HETATM   10  N7  UNL     1      22.351  10.840   8.441  1.00  0.00    -0.080 NA
HETATM   11  C9  UNL     1      24.242   9.546   9.165  1.00  0.00     0.098 A 
HETATM   12  N8  UNL     1      24.489   9.194   7.813  1.00  0.00    -0.341 N 
ATOM     13  H8  UNL     1      23.778   9.383   7.107  1.00  0.00     0.163 HD
HETATM   14  C10 UNL     1      25.725   8.574   7.426  1.00  0.00     0.408 C 
ENDROOT
BRANCH   1  15
HETATM   15  N2  UNL     1      27.429   6.996   8.243  1.00  0.00    -0.188 N 
HETATM   16  C4  UNL     1      27.704   5.872   8.918  1.00  0.00     0.170 A 
HETATM   17  C3  UNL     1      28.778   5.212   8.311  1.00  0.00     0.132 A 
HETATM   18  N11 UNL     1      29.103   5.986   7.281  1.00  0.00    -0.276 N 
HETATM   19  N10 UNL     1      28.312   7.045   7.229  1.00  0.00     0.001 NA
ATOM     20  H11 UNL     1      29.857   5.791   6.621  1.00  0.00     0.184 HD
BRANCH  17  21
HETATM   21  C2  UNL     1      29.347   3.959   8.773  1.00  0.00     0.270 C 
HETATM   22  N1  UNL     1      28.685   3.120   9.699  1.00  0.00    -0.360 N 
HETATM   23  C1  UNL     1      29.232   1.885  10.162  1.00  0.00     0.149 C 
ATOM     24  H1  UNL     1      27.773   3.411  10.052  1.00  0.00     0.162 HD
HETATM   25  O1  UNL     1      30.464   3.603   8.338  1.00  0.00    -0.266 OA
ENDBRANCH  17  21
ENDBRANCH   1  15
BRANCH  14  26
HETATM   26  N9  UNL     1      25.504   7.587   6.391  1.00  0.00    -0.032 N 
ATOM     27  H92 UNL     1      26.104   6.774   6.533  1.00  0.00     0.282 HD
ATOM     28  H91 UNL     1      24.591   7.145   6.502  1.00  0.00     0.282 HD
BRANCH  26  29
HETATM   29  C11 UNL     1      25.658   8.106   5.070  1.00  0.00     0.182 C 
HETATM   30  C12 UNL     1      24.262   8.162   4.431  1.00  0.00     0.039 C 
HETATM   31  C13 UNL     1      26.522   7.273   4.182  1.00  0.00     0.039 C 
ENDBRANCH  26  29
ENDBRANCH  14  26
BRANCH   6  32
HETATM   32  N5  UNL     1      23.472  10.595  12.963  1.00  0.00    -0.234 N 
ATOM     33  H52 UNL     1      23.959  11.398  13.359  1.00  0.00     0.174 HD
ATOM     34  H51 UNL     1      22.804  10.050  13.509  1.00  0.00     0.174 HD
ENDBRANCH   6  32
TORSDOF 5
ENDMDL
MODEL 3
REMARK VINA RESULT: -8.047171220      3.079      4.689
REMARK  5 active torsions:
REMARK  status: ('A' for Active; 'I' for Inactive)
REMARK       I    between atoms: N1_2  and  C2_4 
REMARK    1  A    between atoms: C2_4  and  C3_6 
REMARK    2  A    between atoms: N2_8  and  N3_9 
REMARK    3  A    between atoms: C7_14  and  N5_15 
REMARK    4  A    between atoms: C10_25  and  N9_26 
REMARK    5  A    between atoms: N9_26  and  C11_29 
ROOT
HETATM    1  N3  UNL     1      29.282   7.312   8.529  1.00  0.00    -0.255 N 
HETATM    2  C5  UNL     1      30.049   8.407   9.073  1.00  0.00     0.208 C 
HETATM    3  C6  UNL     1      31.076   8.948   8.192  1.00  0.00     0.076 A 
HETATM    4  N4  UNL     1      31.876   9.928   8.635  1.00  0.00    -0.192 N 
ATOM      5  H4  UNL     1      31.763  10.288   9.582  1.00  0.00     0.184 HD
HETATM    6  C7  UNL     1      32.843  10.446   7.822  1.00  0.00     0.677 A 
HETATM    7  N6  UNL     1      33.028  10.001   6.567  1.00  0.00    -0.177 N 
ATOM      8  H6  UNL     1      33.757  10.400   5.975  1.00  0.00     0.185 HD
HETATM    9  C8  UNL     1      32.229   9.014   6.106  1.00  0.00     0.160 A 
HETATM   10  N7  UNL     1      32.384   8.516   4.804  1.00  0.00    -0.080 NA
HETATM   11  C9  UNL     1      31.227   8.458   6.909  1.00  0.00     0.098 A 
HETATM   12  N8  UNL     1      30.402   7.422   6.401  1.00  0.00    -0.341 N 
ATOM     13  H8  UNL     1      30.409   7.219   5.402  1.00  0.00     0.163 HD
HETATM   14  C10 UNL     1      29.557   6.656   7.273  1.00  0.00     0.408 C 
ENDROOT
BRANCH   1  15
HETATM   15  N2  UNL     1      28.188   6.871   9.309  1.00  0.00    -0.188 N 
HETATM   16  C4  UNL     1      27.227   7.618   9.871  1.00  0.00     0.170 A 
HETATM   17  C3  UNL     1      26.335   6.791  10.560  1.00  0.00     0.132 A 
HETATM   18  N11 UNL     1      26.810   5.563  10.376  1.00  0.00    -0.276 N 
HETATM   19  N10 UNL     1      27.906   5.597   9.636  1.00  0.00     0.001 NA
ATOM     20  H11 UNL     1      26.389   4.713  10.751  1.00  0.00     0.184 HD
BRANCH  17  21
HETATM   21  C2  UNL     1      25.170   7.257  11.290  1.00  0.00     0.270 C 
HETATM   22  N1  UNL     1      23.884   7.324  10.704  1.00  0.00    -0.360 N 
HETATM   23  C1  UNL     1      22.729   7.780  11.408  1.00  0.00     0.149 C 
ATOM     24  H1  UNL     1      23.778   7.033   9.732  1.00  0.00     0.162 HD
HETATM   25  O1  UNL     1      25.302   7.612  12.481  1.00  0.00    -0.266 OA
ENDBRANCH  17  21
ENDBRANCH   1  15
BRANCH  14  26
HETATM   26  N9  UNL     1      28.302   6.340   6.627  1.00  0.00    -0.032 N 
ATOM     27  H92 UNL     1      28.306   5.381   6.279  1.00  0.00     0.282 HD
ATOM     28  H91 UNL     1      27.550   6.268   7.312  1.00  0.00     0.282 HD
BRANCH  26  29
HETATM   29  C11 UNL     1      27.952   7.254   5.587  1.00  0.00     0.182 C 
HETATM   30  C12 UNL     1      26.723   8.043   6.062  1.00  0.00     0.039 C 
HETATM   31  C13 UNL     1      27.592   6.601   4.294  1.00  0.00     0.039 C 
ENDBRANCH  26  29
ENDBRANCH  14  26
BRANCH   6  32
HETATM   32  N5  UNL     1      33.608  11.392   8.268  1.00  0.00    -0.234 N 
ATOM     33  H52 UNL     1      34.619  11.263   8.237  1.00  0.00     0.174 HD
ATOM     34  H51 UNL     1      33.186  12.242   8.642  1.00  0.00     0.174 HD
ENDBRANCH   6  32
TORSDOF 5
ENDMDL
MODEL 4
REMARK VINA RESULT: -7.996546479      3.311      7.548
REMARK  5 active torsions:
REMARK  status: ('A' for Active; 'I' for Inactive)
REMARK       I    between atoms: N1_2  and  C2_4 
REMARK    1  A    between atoms: C2_4  and  C3_6 
REMARK    2  A    between atoms: N2_8  and  N3_9 
REMARK    3  A    between atoms: C7_14  and  N5_15 
REMARK    4  A    between atoms: C10_25  and  N9_26 
REMARK    5  A    between atoms: N9_26  and  C11_29 
ROOT
HETATM    1  N3  UNL     1      26.498   8.135   8.200  1.00  0.00    -0.255 N 
HETATM    2  C5  UNL     1      26.350   8.372   9.616  1.00  0.00     0.208 C 
HETATM    3  C6  UNL     1      25.125   9.056  10.010  1.00  0.00     0.076 A 
HETATM    4  N4  UNL     1      24.927   9.370  11.298  1.00  0.00    -0.192 N 
ATOM      5  H4  UNL     1      25.634   9.129  11.993  1.00  0.00     0.184 HD
HETATM    6  C7  UNL     1      23.786  10.010  11.683  1.00  0.00     0.677 A 
HETATM    7  N6  UNL     1      22.829  10.347  10.800  1.00  0.00    -0.177 N 
ATOM      8  H6  UNL     1      21.982  10.826  11.107  1.00  0.00     0.185 HD
HETATM    9  C8  UNL     1      23.012  10.037   9.498  1.00  0.00     0.160 A 
HETATM   10  N7  UNL     1      22.043  10.368   8.539  1.00  0.00    -0.080 NA
HETATM   11  C9  UNL     1      24.169   9.381   9.065  1.00  0.00     0.098 A 
HETATM   12  N8  UNL     1      24.337   9.067   7.692  1.00  0.00    -0.341 N 
ATOM     13  H8  UNL     1      23.542   9.144   7.058  1.00  0.00     0.163 HD
HETATM   14  C10 UNL     1      25.611   8.643   7.181  1.00  0.00     0.408 C 
ENDROOT
BRANCH   1  15
HETATM   15  N2  UNL     1      27.606   7.346   7.815  1.00  0.00    -0.188 N 
HETATM   16  C4  UNL     1      28.872   7.744   7.628  1.00  0.00     0.170 A 
HETATM   17  C3  UNL     1      29.656   6.650   7.249  1.00  0.00     0.132 A 
HETATM   18  N11 UNL     1      28.808   5.626   7.226  1.00  0.00    -0.276 N 
HETATM   19  N10 UNL     1      27.592   6.025   7.560  1.00  0.00     0.001 NA
ATOM     20  H11 UNL     1      29.059   4.667   6.986  1.00  0.00     0.184 HD
BRANCH  17  21
HETATM   21  C2  UNL     1      31.078   6.709   6.965  1.00  0.00     0.270 C 
HETATM   22  N1  UNL     1      31.695   7.855   6.413  1.00  0.00    -0.360 N 
HETATM   23  C1  UNL     1      33.092   7.929   6.128  1.00  0.00     0.149 C 
ATOM     24  H1  UNL     1      31.114   8.669   6.209  1.00  0.00     0.162 HD
HETATM   25  O1  UNL     1      31.789   5.712   7.217  1.00  0.00    -0.266 OA
ENDBRANCH  17  21
ENDBRANCH   1  15
BRANCH  14  26
HETATM   26  N9  UNL     1      25.445   7.632   6.160  1.00  0.00    -0.032 N 
ATOM     27  H92 UNL     1      25.919   6.769   6.426  1.00  0.00     0.282 HD
ATOM     28  H91 UNL     1      24.482   7.296   6.136  1.00  0.00     0.282 HD
BRANCH  26  29
HETATM   29  C11 UNL     1      25.864   8.061   4.864  1.00  0.00     0.182 C 
HETATM   30  C12 UNL     1      24.612   8.136   3.977  1.00  0.00     0.039 C 
HETATM   31  C13 UNL     1      26.829   7.139   4.196  1.00  0.00     0.039 C 
ENDBRANCH  26  29
ENDBRANCH  14  26
BRANCH   6  32
HETATM   32  N5  UNL     1      23.614  10.306  12.932  1.00  0.00    -0.234 N 
ATOM     33  H52 UNL     1      22.675  10.253  13.325  1.00  0.00     0.174 HD
ATOM     34  H51 UNL     1      24.417  10.587  13.495  1.00  0.00     0.174 HD
ENDBRANCH   6  32
TORSDOF 5
ENDMDL
MODEL 5
REMARK VINA RESULT: -7.902493449      2.093      3.574
REMARK  5 active torsions:
REMARK  status: ('A' for Active; 'I' for Inactive)
REMARK       I    between atoms: N1_2  and  C2_4 
REMARK    1  A    between atoms: C2_4  and  C3_6 
REMARK    2  A    between atoms: N2_8  and  N3_9 
REMARK    3  A    between atoms: C7_14  and  N5_15 
REMARK    4  A    between atoms: C10_25  and  N9_26 
REMARK    5  A    between atoms: N9_26  and  C11_29 
ROOT
HETATM    1  N3  UNL     1      26.802   7.432   7.711  1.00  0.00    -0.255 N 
HETATM    2  C5  UNL     1      26.636   6.303   8.595  1.00  0.00     0.208 C 
HETATM    3  C6  UNL     1      27.814   5.461   8.760  1.00  0.00     0.076 A 
HETATM    4  N4  UNL     1      27.737   4.357   9.516  1.00  0.00    -0.192 N 
ATOM      5  H4  UNL     1      26.857   4.113   9.970  1.00  0.00     0.184 HD
HETATM    6  C7  UNL     1      28.831   3.558   9.681  1.00  0.00     0.677 A 
HETATM    7  N6  UNL     1      30.010   3.841   9.100  1.00  0.00    -0.177 N 
ATOM      8  H6  UNL     1      30.817   3.231   9.235  1.00  0.00     0.185 HD
HETATM    9  C8  UNL     1      30.105   4.951   8.336  1.00  0.00     0.160 A 
HETATM   10  N7  UNL     1      31.313   5.288   7.709  1.00  0.00    -0.080 NA
HETATM   11  C9  UNL     1      29.005   5.795   8.144  1.00  0.00     0.098 A 
HETATM   12  N8  UNL     1      29.131   6.953   7.335  1.00  0.00    -0.341 N 
ATOM     13  H8  UNL     1      30.058   7.273   7.056  1.00  0.00     0.163 HD
HETATM   14  C10 UNL     1      27.972   7.683   6.905  1.00  0.00     0.408 C 
ENDROOT
BRANCH   1  15
HETATM   15  N2  UNL     1      25.719   8.340   7.653  1.00  0.00    -0.188 N 
HETATM   16  C4  UNL     1      25.028   8.860   8.677  1.00  0.00     0.170 A 
HETATM   17  C3  UNL     1      24.036   9.714   8.185  1.00  0.00     0.132 A 
HETATM   18  N11 UNL     1      24.180   9.666   6.865  1.00  0.00    -0.276 N 
HETATM   19  N10 UNL     1      25.174   8.857   6.537  1.00  0.00     0.001 NA
ATOM     20  H11 UNL     1      23.606  10.181   6.198  1.00  0.00     0.184 HD
BRANCH  17  21
HETATM   21  C2  UNL     1      23.097  10.453   9.010  1.00  0.00     0.270 C 
HETATM   22  N1  UNL     1      23.493  11.142  10.180  1.00  0.00    -0.360 N 
HETATM   23  C1  UNL     1      22.582  11.872  11.001  1.00  0.00     0.149 C 
ATOM     24  H1  UNL     1      24.477  11.116  10.449  1.00  0.00     0.162 HD
HETATM   25  O1  UNL     1      21.892  10.484   8.678  1.00  0.00    -0.266 OA
ENDBRANCH  17  21
ENDBRANCH   1  15
BRANCH  14  26
HETATM   26  N9  UNL     1      28.234   9.106   6.892  1.00  0.00    -0.032 N 
ATOM     27  H92 UNL     1      28.288   9.455   5.935  1.00  0.00     0.282 HD
ATOM     28  H91 UNL     1      27.419   9.627   7.217  1.00  0.00     0.282 HD
BRANCH  26  29
HETATM   29  C11 UNL     1      29.398   9.475   7.632  1.00  0.00     0.182 C 
HETATM   30  C12 UNL     1      28.926  10.200   8.901  1.00  0.00     0.039 C 
HETATM   31  C13 UNL     1      30.317  10.400   6.905  1.00  0.00     0.039 C 
ENDBRANCH  26  29
ENDBRANCH  14  26
BRANCH   6  32
HETATM   32  N5  UNL     1      28.736   2.494  10.414  1.00  0.00    -0.234 N 
ATOM     33  H52 UNL     1      29.578   2.120  10.849  1.00  0.00     0.174 HD
ATOM     34  H51 UNL     1      27.825   2.053  10.540  1.00  0.00     0.174 HD
ENDBRANCH   6  32
TORSDOF 5
ENDMDL
