MODEL 1
REMARK VINA RESULT: -8.031349111      0.000      0.000
REMARK  10 active torsions:
REMARK  status: ('A' for Active; 'I' for Inactive)
REMARK    1  A    between atoms: C2_2  and  N1_3 
REMARK    2  A    between atoms: C2_2  and  C7_25 
REMARK    3  A    between atoms: N1_3  and  N2_5 
REMARK       I    between atoms: N2_5  and  C3_7 
REMARK    4  A    between atoms: C3_7  and  C4_9 
REMARK    5  A    between atoms: C5_14  and  N5_15 
REMARK    6  A    between atoms: N5_15  and  N6_17 
REMARK    7  A    between atoms: N7_20  and  O2_21 
REMARK    8  A    between atoms: C10_32  and  N10_33 
REMARK    9  A    between atoms: N10_33  and  N11_35 
REMARK   10  A    between atoms: N11_35  and  N12_37 
ROOT
HETATM    1  N2  UNL     1      25.925   9.913   9.074  1.00  0.00    -0.264 N 
ATOM      2  H2  UNL     1      26.734  10.047   8.467  1.00  0.00     0.190 HD
HETATM    3  C3  UNL     1      24.686   9.492   8.492  1.00  0.00     0.293 C 
HETATM    4  O1  UNL     1      23.711   9.333   9.243  1.00  0.00    -0.264 OA
ENDROOT
BRANCH   1   5
HETATM    5  N1  UNL     1      26.066  10.143  10.435  1.00  0.00    -0.300 N 
ATOM      6  H1  UNL     1      25.725  11.018  10.833  1.00  0.00     0.186 HD
BRANCH   5   7
HETATM    7  C2  UNL     1      26.625   9.263  11.209  1.00  0.00     0.052 C 
HETATM    8  C1  UNL     1      27.123   9.676  12.521  1.00  0.00     0.072 C 
BRANCH   7   9
HETATM    9  C7  UNL     1      26.726   7.895  10.721  1.00  0.00     0.103 A 
HETATM   10  N8  UNL     1      27.743   7.345  10.017  1.00  0.00    -0.342 N 
HETATM   11  C8  UNL     1      27.464   6.057   9.753  1.00  0.00     0.079 A 
ATOM     12  H8  UNL     1      28.592   7.834   9.730  1.00  0.00     0.167 HD
HETATM   13  C9  UNL     1      28.323   5.083   8.996  1.00  0.00     0.089 C 
HETATM   14  N9  UNL     1      26.255   5.798  10.300  1.00  0.00    -0.329 N 
HETATM   15  C10 UNL     1      25.782   6.913  10.901  1.00  0.00     0.151 A 
ATOM     16  H9  UNL     1      25.774   4.900  10.264  1.00  0.00     0.168 HD
BRANCH  15  17
HETATM   17  N10 UNL     1      24.552   7.072  11.592  1.00  0.00    -0.269 N 
ATOM     18  H10 UNL     1      24.546   7.141  12.609  1.00  0.00     0.190 HD
BRANCH  17  19
HETATM   19  N11 UNL     1      23.443   7.129  10.939  1.00  0.00    -0.248 N 
ATOM     20  H11 UNL     1      23.432   7.014   9.926  1.00  0.00     0.207 HD
BRANCH  19  21
HETATM   21  N12 UNL     1      22.256   7.351  11.642  1.00  0.00    -0.331 N 
ATOM     22 2H12 UNL     1      21.967   8.306  11.854  1.00  0.00     0.178 HD
ATOM     23 1H12 UNL     1      21.696   6.549  11.932  1.00  0.00     0.178 HD
ENDBRANCH  19  21
ENDBRANCH  17  19
ENDBRANCH  15  17
ENDBRANCH   7   9
ENDBRANCH   5   7
ENDBRANCH   1   5
BRANCH   3  24
HETATM   24  C4  UNL     1      24.581   9.262   7.062  1.00  0.00     0.189 A 
HETATM   25  N3  UNL     1      23.538   9.766   6.388  1.00  0.00    -0.277 N 
HETATM   26  N4  UNL     1      23.430   9.566   5.089  1.00  0.00    -0.128 N 
ATOM     27  H3  UNL     1      22.827  10.306   6.882  1.00  0.00     0.188 HD
HETATM   28  C5  UNL     1      24.343   8.862   4.405  1.00  0.00     0.740 A 
ATOM     29  H4  UNL     1      22.631   9.958   4.591  1.00  0.00     0.205 HD
HETATM   30  N7  UNL     1      25.392   8.347   5.041  1.00  0.00    -0.008 N 
HETATM   31  C6  UNL     1      25.508   8.548   6.366  1.00  0.00     0.322 A 
HETATM   32  O3  UNL     1      26.499   8.060   6.964  1.00  0.00    -0.262 OA
BRANCH  28  33
HETATM   33  N5  UNL     1      24.186   8.701   3.152  1.00  0.00    -0.135 N 
ATOM     34  H5  UNL     1      24.064   9.534   2.577  1.00  0.00     0.205 HD
BRANCH  33  35
HETATM   35  N6  UNL     1      24.169   7.470   2.520  1.00  0.00    -0.331 N 
ATOM     36  H62 UNL     1      23.269   6.993   2.467  1.00  0.00     0.177 HD
ATOM     37  H61 UNL     1      24.989   7.022   2.113  1.00  0.00     0.177 HD
ENDBRANCH  33  35
ENDBRANCH  28  33
BRANCH  30  38
HETATM   38  O2  UNL     1      26.309   7.632   4.319  1.00  0.00    -0.266 OA
ATOM     39  H2  UNL     1      26.950   7.110   4.788  1.00  0.00     0.246 HD
ENDBRANCH  30  38
ENDBRANCH   3  24
TORSDOF 10
ENDMDL
MODEL 2
REMARK VINA RESULT: -7.878948243      2.892      5.813
REMARK  10 active torsions:
REMARK  status: ('A' for Active; 'I' for Inactive)
REMARK    1  A    between atoms: C2_2  and  N1_3 
REMARK    2  A    between atoms: C2_2  and  C7_25 
REMARK    3  A    between atoms: N1_3  and  N2_5 
REMARK       I    between atoms: N2_5  and  C3_7 
REMARK    4  A    between atoms: C3_7  and  C4_9 
REMARK    5  A    between atoms: C5_14  and  N5_15 
REMARK    6  A    between atoms: N5_15  and  N6_17 
REMARK    7  A    between atoms: N7_20  and  O2_21 
REMARK    8  A    between atoms: C10_32  and  N10_33 
REMARK    9  A    between atoms: N10_33  and  N11_35 
REMARK   10  A    between atoms: N11_35  and  N12_37 
ROOT
HETATM    1  N2  UNL     1      26.342   6.665  10.441  1.00  0.00    -0.264 N 
ATOM      2  H2  UNL     1      26.911   6.788  11.278  1.00  0.00     0.190 HD
HETATM    3  C3  UNL     1      26.997   6.518   9.176  1.00  0.00     0.293 C 
HETATM    4  O1  UNL     1      26.292   6.370   8.166  1.00  0.00    -0.264 OA
ENDROOT
BRANCH   1   5
HETATM    5  N1  UNL     1      24.961   6.646  10.568  1.00  0.00    -0.300 N 
ATOM      6  H1  UNL     1      24.468   5.752  10.553  1.00  0.00     0.186 HD
BRANCH   5   7
HETATM    7  C2  UNL     1      24.285   7.746  10.706  1.00  0.00     0.052 C 
HETATM    8  C1  UNL     1      23.076   7.745  11.530  1.00  0.00     0.072 C 
BRANCH   7   9
HETATM    9  C7  UNL     1      24.775   8.935  10.025  1.00  0.00     0.103 A 
HETATM   10  N8  UNL     1      24.745   9.194   8.696  1.00  0.00    -0.342 N 
HETATM   11  C8  UNL     1      25.293  10.398   8.460  1.00  0.00     0.079 A 
ATOM     12  H8  UNL     1      24.364   8.570   7.984  1.00  0.00     0.167 HD
HETATM   13  C9  UNL     1      25.459  11.068   7.124  1.00  0.00     0.089 C 
HETATM   14  N9  UNL     1      25.671  10.899   9.657  1.00  0.00    -0.329 N 
HETATM   15  C10 UNL     1      25.362  10.017  10.634  1.00  0.00     0.151 A 
ATOM     16  H9  UNL     1      26.121  11.803   9.800  1.00  0.00     0.168 HD
BRANCH  15  17
HETATM   17  N10 UNL     1      25.589  10.153  12.029  1.00  0.00    -0.269 N 
ATOM     18  H10 UNL     1      24.805  10.336  12.655  1.00  0.00     0.190 HD
BRANCH  17  19
HETATM   19  N11 UNL     1      26.780  10.046  12.507  1.00  0.00    -0.248 N 
ATOM     20  H11 UNL     1      27.447  10.811  12.411  1.00  0.00     0.207 HD
BRANCH  19  21
HETATM   21  N12 UNL     1      27.143   8.864  13.160  1.00  0.00    -0.331 N 
ATOM     22 2H12 UNL     1      27.314   8.877  14.165  1.00  0.00     0.178 HD
ATOM     23 1H12 UNL     1      27.230   8.006  12.616  1.00  0.00     0.178 HD
ENDBRANCH  19  21
ENDBRANCH  17  19
ENDBRANCH  15  17
ENDBRANCH   7   9
ENDBRANCH   5   7
ENDBRANCH   1   5
BRANCH   3  24
HETATM   24  C4  UNL     1      28.446   6.545   9.086  1.00  0.00     0.189 A 
HETATM   25  N3  UNL     1      29.111   7.639   9.482  1.00  0.00    -0.277 N 
HETATM   26  N4  UNL     1      30.427   7.677   9.408  1.00  0.00    -0.128 N 
ATOM     27  H3  UNL     1      28.597   8.444   9.842  1.00  0.00     0.188 HD
HETATM   28  C5  UNL     1      31.138   6.641   8.939  1.00  0.00     0.740 A 
ATOM     29  H4  UNL     1      30.918   8.517   9.714  1.00  0.00     0.205 HD
HETATM   30  N7  UNL     1      30.512   5.538   8.538  1.00  0.00    -0.008 N 
HETATM   31  C6  UNL     1      29.169   5.493   8.612  1.00  0.00     0.322 A 
HETATM   32  O3  UNL     1      28.580   4.451   8.231  1.00  0.00    -0.262 OA
BRANCH  28  33
HETATM   33  N5  UNL     1      32.406   6.736   8.891  1.00  0.00    -0.135 N 
ATOM     34  H5  UNL     1      32.936   6.481   9.724  1.00  0.00     0.205 HD
BRANCH  33  35
HETATM   35  N6  UNL     1      33.114   7.162   7.780  1.00  0.00    -0.331 N 
ATOM     36  H62 UNL     1      32.989   8.135   7.501  1.00  0.00     0.177 HD
ATOM     37  H61 UNL     1      33.741   6.569   7.236  1.00  0.00     0.177 HD
ENDBRANCH  33  35
ENDBRANCH  28  33
BRANCH  30  38
HETATM   38  O2  UNL     1      31.261   4.495   8.065  1.00  0.00    -0.266 OA
ATOM     39  H2  UNL     1      30.867   3.900   7.438  1.00  0.00     0.246 HD
ENDBRANCH  30  38
ENDBRANCH   3  24
TORSDOF 10
ENDMDL
MODEL 3
REMARK VINA RESULT: -7.865115852      2.776      5.857
REMARK  10 active torsions:
REMARK  status: ('A' for Active; 'I' for Inactive)
REMARK    1  A    between atoms: C2_2  and  N1_3 
REMARK    2  A    between atoms: C2_2  and  C7_25 
REMARK    3  A    between atoms: N1_3  and  N2_5 
REMARK       I    between atoms: N2_5  and  C3_7 
REMARK    4  A    between atoms: C3_7  and  C4_9 
REMARK    5  A    between atoms: C5_14  and  N5_15 
REMARK    6  A    between atoms: N5_15  and  N6_17 
REMARK    7  A    between atoms: N7_20  and  O2_21 
REMARK    8  A    between atoms: C10_32  and  N10_33 
REMARK    9  A    between atoms: N10_33  and  N11_35 
REMARK   10  A    between atoms: N11_35  and  N12_37 
ROOT
HETATM    1  N2  UNL     1      26.274   6.707  10.337  1.00  0.00    -0.264 N 
ATOM      2  H2  UNL     1      26.825   6.865  11.181  1.00  0.00     0.190 HD
HETATM    3  C3  UNL     1      26.956   6.514   9.092  1.00  0.00     0.293 C 
HETATM    4  O1  UNL     1      26.273   6.324   8.074  1.00  0.00    -0.264 OA
ENDROOT
BRANCH   1   5
HETATM    5  N1  UNL     1      24.890   6.686  10.436  1.00  0.00    -0.300 N 
ATOM      6  H1  UNL     1      24.392   5.804  10.312  1.00  0.00     0.186 HD
BRANCH   5   7
HETATM    7  C2  UNL     1      24.220   7.770  10.683  1.00  0.00     0.052 C 
HETATM    8  C1  UNL     1      22.953   7.679  11.410  1.00  0.00     0.072 C 
BRANCH   7   9
HETATM    9  C7  UNL     1      24.774   9.033  10.218  1.00  0.00     0.103 A 
HETATM   10  N8  UNL     1      25.378   9.991  10.960  1.00  0.00    -0.342 N 
HETATM   11  C8  UNL     1      25.753  11.007  10.165  1.00  0.00     0.079 A 
ATOM     12  H8  UNL     1      25.525   9.948  11.969  1.00  0.00     0.167 HD
HETATM   13  C9  UNL     1      26.454  12.270  10.583  1.00  0.00     0.089 C 
HETATM   14  N9  UNL     1      25.378  10.681   8.908  1.00  0.00    -0.329 N 
HETATM   15  C10 UNL     1      24.775   9.471   8.916  1.00  0.00     0.151 A 
ATOM     16  H9  UNL     1      25.528  11.259   8.081  1.00  0.00     0.168 HD
BRANCH  15  17
HETATM   17  N10 UNL     1      24.235   8.763   7.810  1.00  0.00    -0.269 N 
ATOM     18  H10 UNL     1      24.404   7.762   7.717  1.00  0.00     0.190 HD
BRANCH  17  19
HETATM   19  N11 UNL     1      23.533   9.380   6.924  1.00  0.00    -0.248 N 
ATOM     20  H11 UNL     1      23.937   9.618   6.017  1.00  0.00     0.207 HD
BRANCH  19  21
HETATM   21  N12 UNL     1      22.211   9.718   7.223  1.00  0.00    -0.331 N 
ATOM     22 2H12 UNL     1      21.886   9.673   8.189  1.00  0.00     0.178 HD
ATOM     23 1H12 UNL     1      21.590  10.005   6.466  1.00  0.00     0.178 HD
ENDBRANCH  19  21
ENDBRANCH  17  19
ENDBRANCH  15  17
ENDBRANCH   7   9
ENDBRANCH   5   7
ENDBRANCH   1   5
BRANCH   3  24
HETATM   24  C4  UNL     1      28.407   6.544   9.032  1.00  0.00     0.189 A 
HETATM   25  N3  UNL     1      29.061   7.639   9.441  1.00  0.00    -0.277 N 
HETATM   26  N4  UNL     1      30.379   7.680   9.393  1.00  0.00    -0.128 N 
ATOM     27  H3  UNL     1      28.539   8.443   9.790  1.00  0.00     0.188 HD
HETATM   28  C5  UNL     1      31.101   6.645   8.940  1.00  0.00     0.740 A 
ATOM     29  H4  UNL     1      30.861   8.521   9.709  1.00  0.00     0.205 HD
HETATM   30  N7  UNL     1      30.485   5.541   8.526  1.00  0.00    -0.008 N 
HETATM   31  C6  UNL     1      29.142   5.494   8.573  1.00  0.00     0.322 A 
HETATM   32  O3  UNL     1      28.563   4.450   8.181  1.00  0.00    -0.262 OA
BRANCH  28  33
HETATM   33  N5  UNL     1      32.370   6.743   8.917  1.00  0.00    -0.135 N 
ATOM     34  H5  UNL     1      32.882   6.497   9.764  1.00  0.00     0.205 HD
BRANCH  33  35
HETATM   35  N6  UNL     1      33.100   7.161   7.818  1.00  0.00    -0.331 N 
ATOM     36  H62 UNL     1      32.950   6.653   6.946  1.00  0.00     0.177 HD
ATOM     37  H61 UNL     1      33.765   7.934   7.831  1.00  0.00     0.177 HD
ENDBRANCH  33  35
ENDBRANCH  28  33
BRANCH  30  38
HETATM   38  O2  UNL     1      31.246   4.500   8.069  1.00  0.00    -0.266 OA
ATOM     39  H2  UNL     1      30.817   3.796   7.596  1.00  0.00     0.246 HD
ENDBRANCH  30  38
ENDBRANCH   3  24
TORSDOF 10
ENDMDL
MODEL 4
REMARK VINA RESULT: -7.832143896      3.227      5.687
REMARK  10 active torsions:
REMARK  status: ('A' for Active; 'I' for Inactive)
REMARK    1  A    between atoms: C2_2  and  N1_3 
REMARK    2  A    between atoms: C2_2  and  C7_25 
REMARK    3  A    between atoms: N1_3  and  N2_5 
REMARK       I    between atoms: N2_5  and  C3_7 
REMARK    4  A    between atoms: C3_7  and  C4_9 
REMARK    5  A    between atoms: C5_14  and  N5_15 
REMARK    6  A    between atoms: N5_15  and  N6_17 
REMARK    7  A    between atoms: N7_20  and  O2_21 
REMARK    8  A    between atoms: C10_32  and  N10_33 
REMARK    9  A    between atoms: N10_33  and  N11_35 
REMARK   10  A    between atoms: N11_35  and  N12_37 
ROOT
HETATM    1  N2  UNL     1      28.490   7.905  10.277  1.00  0.00    -0.264 N 
ATOM      2  H2  UNL     1      28.416   7.272  11.074  1.00  0.00     0.190 HD
HETATM    3  C3  UNL     1      27.304   8.545   9.791  1.00  0.00     0.293 C 
HETATM    4  O1  UNL     1      27.409   9.311   8.821  1.00  0.00    -0.264 OA
ENDROOT
BRANCH   1   5
HETATM    5  N1  UNL     1      29.735   8.113   9.702  1.00  0.00    -0.300 N 
ATOM      6  H1  UNL     1      30.270   8.945   9.953  1.00  0.00     0.186 HD
BRANCH   5   7
HETATM    7  C2  UNL     1      30.230   7.267   8.851  1.00  0.00     0.052 C 
HETATM    8  C1  UNL     1      31.646   6.909   8.938  1.00  0.00     0.072 C 
BRANCH   7   9
HETATM    9  C7  UNL     1      29.336   6.714   7.844  1.00  0.00     0.103 A 
HETATM   10  N8  UNL     1      28.895   7.316   6.715  1.00  0.00    -0.342 N 
HETATM   11  C8  UNL     1      28.085   6.478   6.045  1.00  0.00     0.079 A 
ATOM     12  H8  UNL     1      29.138   8.261   6.418  1.00  0.00     0.167 HD
HETATM   13  C9  UNL     1      27.382   6.749   4.743  1.00  0.00     0.089 C 
HETATM   14  N9  UNL     1      28.020   5.336   6.765  1.00  0.00    -0.329 N 
HETATM   15  C10 UNL     1      28.782   5.457   7.875  1.00  0.00     0.151 A 
ATOM     16  H9  UNL     1      27.479   4.510   6.510  1.00  0.00     0.168 HD
BRANCH  15  17
HETATM   17  N10 UNL     1      28.989   4.492   8.895  1.00  0.00    -0.269 N 
ATOM     18  H10 UNL     1      29.937   4.253   9.184  1.00  0.00     0.190 HD
BRANCH  17  19
HETATM   19  N11 UNL     1      27.983   3.917   9.459  1.00  0.00    -0.248 N 
ATOM     20  H11 UNL     1      27.882   2.903   9.426  1.00  0.00     0.207 HD
BRANCH  19  21
HETATM   21  N12 UNL     1      27.035   4.705  10.117  1.00  0.00    -0.331 N 
ATOM     22 2H12 UNL     1      26.151   4.290  10.410  1.00  0.00     0.178 HD
ATOM     23 1H12 UNL     1      27.245   5.688  10.293  1.00  0.00     0.178 HD
ENDBRANCH  19  21
ENDBRANCH  17  19
ENDBRANCH  15  17
ENDBRANCH   7   9
ENDBRANCH   5   7
ENDBRANCH   1   5
BRANCH   3  24
HETATM   24  C4  UNL     1      26.019   8.299  10.422  1.00  0.00     0.189 A 
HETATM   25  N3  UNL     1      25.075   7.624   9.752  1.00  0.00    -0.277 N 
HETATM   26  N4  UNL     1      23.903   7.392  10.312  1.00  0.00    -0.128 N 
ATOM     27  H3  UNL     1      25.263   7.289   8.807  1.00  0.00     0.188 HD
HETATM   28  C5  UNL     1      23.618   7.817  11.551  1.00  0.00     0.740 A 
ATOM     29  H4  UNL     1      23.196   6.877   9.789  1.00  0.00     0.205 HD
HETATM   30  N7  UNL     1      24.531   8.490  12.246  1.00  0.00    -0.008 N 
HETATM   31  C6  UNL     1      25.728   8.729  11.680  1.00  0.00     0.322 A 
HETATM   32  O3  UNL     1      26.588   9.365  12.338  1.00  0.00    -0.262 OA
BRANCH  28  33
HETATM   33  N5  UNL     1      22.470   7.564  12.040  1.00  0.00    -0.135 N 
ATOM     34  H5  UNL     1      22.153   8.128  12.828  1.00  0.00     0.205 HD
BRANCH  33  35
HETATM   35  N6  UNL     1      21.624   6.574  11.571  1.00  0.00    -0.331 N 
ATOM     36  H62 UNL     1      21.879   6.132  10.687  1.00  0.00     0.177 HD
ATOM     37  H61 UNL     1      20.777   6.268  12.049  1.00  0.00     0.177 HD
ENDBRANCH  33  35
ENDBRANCH  28  33
BRANCH  30  38
HETATM   38  O2  UNL     1      24.213   8.911  13.509  1.00  0.00    -0.266 OA
ATOM     39  H2  UNL     1      23.352   9.281  13.662  1.00  0.00     0.246 HD
ENDBRANCH  30  38
ENDBRANCH   3  24
TORSDOF 10
ENDMDL
MODEL 5
REMARK VINA RESULT: -7.816515017      3.772      6.603
REMARK  10 active torsions:
REMARK  status: ('A' for Active; 'I' for Inactive)
REMARK    1  A    between atoms: C2_2  and  N1_3 
REMARK    2  A    between atoms: C2_2  and  C7_25 
REMARK    3  A    between atoms: N1_3  and  N2_5 
REMARK       I    between atoms: N2_5  and  C3_7 
REMARK    4  A    between atoms: C3_7  and  C4_9 
REMARK    5  A    between atoms: C5_14  and  N5_15 
REMARK    6  A    between atoms: N5_15  and  N6_17 
REMARK    7  A    between atoms: N7_20  and  O2_21 
REMARK    8  A    between atoms: C10_32  and  N10_33 
REMARK    9  A    between atoms: N10_33  and  N11_35 
REMARK   10  A    between atoms: N11_35  and  N12_37 
ROOT
HETATM    1  N2  UNL     1      27.481   6.906   8.216  1.00  0.00    -0.264 N 
ATOM      2  H2  UNL     1      27.095   7.832   8.032  1.00  0.00     0.190 HD
HETATM    3  C3  UNL     1      27.203   6.278   9.473  1.00  0.00     0.293 C 
HETATM    4  O1  UNL     1      27.680   5.152   9.682  1.00  0.00    -0.264 OA
ENDROOT
BRANCH   1   5
HETATM    5  N1  UNL     1      28.257   6.300   7.239  1.00  0.00    -0.300 N 
ATOM      6  H1  UNL     1      27.916   5.455   6.780  1.00  0.00     0.186 HD
BRANCH   5   7
HETATM    7  C2  UNL     1      29.410   6.791   6.899  1.00  0.00     0.052 C 
HETATM    8  C1  UNL     1      29.624   7.232   5.520  1.00  0.00     0.072 C 
BRANCH   7   9
HETATM    9  C7  UNL     1      30.441   6.876   7.923  1.00  0.00     0.103 A 
HETATM   10  N8  UNL     1      31.094   7.985   8.343  1.00  0.00    -0.342 N 
HETATM   11  C8  UNL     1      31.973   7.653   9.304  1.00  0.00     0.079 A 
ATOM     12  H8  UNL     1      30.942   8.928   7.986  1.00  0.00     0.167 HD
HETATM   13  C9  UNL     1      32.900   8.580  10.041  1.00  0.00     0.089 C 
HETATM   14  N9  UNL     1      31.868   6.318   9.487  1.00  0.00    -0.329 N 
HETATM   15  C10 UNL     1      30.932   5.819   8.649  1.00  0.00     0.151 A 
ATOM     16  H9  UNL     1      32.412   5.771  10.155  1.00  0.00     0.168 HD
BRANCH  15  17
HETATM   17  N10 UNL     1      30.515   4.468   8.520  1.00  0.00    -0.269 N 
ATOM     18  H10 UNL     1      30.442   4.046   7.594  1.00  0.00     0.190 HD
BRANCH  17  19
HETATM   19  N11 UNL     1      30.228   3.773   9.566  1.00  0.00    -0.248 N 
ATOM     20  H11 UNL     1      30.701   3.951  10.451  1.00  0.00     0.207 HD
BRANCH  19  21
HETATM   21  N12 UNL     1      29.258   2.772   9.467  1.00  0.00    -0.331 N 
ATOM     22 2H12 UNL     1      29.199   2.055  10.190  1.00  0.00     0.178 HD
ATOM     23 1H12 UNL     1      28.623   2.776   8.669  1.00  0.00     0.178 HD
ENDBRANCH  19  21
ENDBRANCH  17  19
ENDBRANCH  15  17
ENDBRANCH   7   9
ENDBRANCH   5   7
ENDBRANCH   1   5
BRANCH   3  24
HETATM   24  C4  UNL     1      26.385   6.948  10.469  1.00  0.00     0.189 A 
HETATM   25  N3  UNL     1      25.090   6.624  10.583  1.00  0.00    -0.277 N 
HETATM   26  N4  UNL     1      24.335   7.223  11.484  1.00  0.00    -0.128 N 
ATOM     27  H3  UNL     1      24.687   5.912   9.973  1.00  0.00     0.188 HD
HETATM   28  C5  UNL     1      24.827   8.164  12.304  1.00  0.00     0.740 A 
ATOM     29  H4  UNL     1      23.352   6.964  11.559  1.00  0.00     0.205 HD
HETATM   30  N7  UNL     1      26.108   8.510  12.218  1.00  0.00    -0.008 N 
HETATM   31  C6  UNL     1      26.883   7.902  11.302  1.00  0.00     0.322 A 
HETATM   32  O3  UNL     1      28.092   8.232  11.223  1.00  0.00    -0.262 OA
BRANCH  28  33
HETATM   33  N5  UNL     1      24.050   8.707  13.153  1.00  0.00    -0.135 N 
ATOM     34  H5  UNL     1      23.749   8.148  13.951  1.00  0.00     0.205 HD
BRANCH  33  35
HETATM   35  N6  UNL     1      23.586  10.009  13.064  1.00  0.00    -0.331 N 
ATOM     36  H62 UNL     1      23.394  10.366  12.128  1.00  0.00     0.177 HD
ATOM     37  H61 UNL     1      23.429  10.618  13.866  1.00  0.00     0.177 HD
ENDBRANCH  33  35
ENDBRANCH  28  33
BRANCH  30  38
HETATM   38  O2  UNL     1      26.584   9.472  13.067  1.00  0.00    -0.266 OA
ATOM     39  H2  UNL     1      26.720   9.246  13.980  1.00  0.00     0.246 HD
ENDBRANCH  30  38
ENDBRANCH   3  24
TORSDOF 10
ENDMDL
