MODEL 1
REMARK VINA RESULT: -8.405431516      0.000      0.000
REMARK  8 active torsions:
REMARK  status: ('A' for Active; 'I' for Inactive)
REMARK    1  A    between atoms: S1_2  and  C2_3 
REMARK    2  A    between atoms: C3_6  and  N2_7 
REMARK    3  A    between atoms: N2_7  and  C4_9 
REMARK    4  A    between atoms: C4_9  and  C5_10 
REMARK    5  A    between atoms: C7_19  and  O1_20 
REMARK    6  A    between atoms: C7_19  and  C8_22 
REMARK    7  A    between atoms: C8_22  and  N8_26 
REMARK    8  A    between atoms: N8_26  and  N9_28 
ROOT
HETATM    1  C5  UNL     1      24.593   8.010  10.005  1.00  0.00     0.090 A 
HETATM    2  N3  UNL     1      23.637   7.410  10.711  1.00  0.00    -0.285 N 
ATOM      3  H3  UNL     1      23.539   6.406  10.863  1.00  0.00     0.188 HD
HETATM    4  N4  UNL     1      22.845   8.349  11.175  1.00  0.00    -0.238 N 
ATOM      5  H4  UNL     1      22.022   8.181  11.753  1.00  0.00     0.208 HD
HETATM    6  N5  UNL     1      23.266   9.550  10.786  1.00  0.00    -0.255 N 
HETATM    7  C6  UNL     1      24.366   9.363  10.047  1.00  0.00     0.148 A 
HETATM    8  N6  UNL     1      24.851  10.659   9.603  1.00  0.00    -0.334 N 
ATOM      9  H6  UNL     1      25.805  10.925   9.357  1.00  0.00     0.164 HD
HETATM   10  C7  UNL     1      23.663  11.480   9.593  1.00  0.00     0.212 C 
HETATM   11  C9  UNL     1      22.978  10.981  10.867  1.00  0.00     0.222 C 
ENDROOT
BRANCH   1  12
HETATM   12  C4  UNL     1      25.691   7.325   9.311  1.00  0.00     0.200 C 
BRANCH  12  13
HETATM   13  N2  UNL     1      26.102   6.109   9.945  1.00  0.00    -0.220 N 
ATOM     14  H2  UNL     1      25.461   5.696  10.623  1.00  0.00     0.178 HD
BRANCH  13  15
HETATM   15  C3  UNL     1      27.200   5.501   9.734  1.00  0.00     0.681 A 
HETATM   16  N1  UNL     1      28.267   6.068   9.137  1.00  0.00    -0.170 N 
HETATM   17  C2  UNL     1      29.425   5.418   8.917  1.00  0.00     0.160 A 
ATOM     18  H1  UNL     1      28.193   7.039   8.836  1.00  0.00     0.186 HD
HETATM   19  N11 UNL     1      29.506   4.137   9.320  1.00  0.00    -0.326 N 
HETATM   20  C10 UNL     1      28.466   3.528   9.922  1.00  0.00     0.095 A 
ATOM     21  H11 UNL     1      30.370   3.618   9.167  1.00  0.00     0.169 HD
HETATM   22  N10 UNL     1      27.318   4.217  10.124  1.00  0.00    -0.181 N 
HETATM   23  C11 UNL     1      28.636   2.113  10.338  1.00  0.00     0.089 C 
ATOM     24  H10 UNL     1      26.530   3.757  10.579  1.00  0.00     0.185 HD
BRANCH  17  25
HETATM   25  S1  UNL     1      30.817   6.229   8.113  1.00  0.00    -0.098 SA
HETATM   26  C1  UNL     1      31.887   6.956   9.387  1.00  0.00     0.099 C 
ENDBRANCH  17  25
ENDBRANCH  13  15
ENDBRANCH  12  13
ENDBRANCH   1  12
BRANCH  10  27
HETATM   27  O1  UNL     1      22.896  11.046   8.515  1.00  0.00    -0.363 OA
ATOM     28  H1  UNL     1      22.004  11.319   8.694  1.00  0.00     0.213 HD
ENDBRANCH  10  27
BRANCH  10  29
HETATM   29  C8  UNL     1      23.889  12.915   9.610  1.00  0.00     0.147 C 
HETATM   30  N7  UNL     1      23.824  13.591  10.691  1.00  0.00    -0.384 N 
ATOM     31  H72 UNL     1      23.609  13.106  11.562  1.00  0.00     0.157 HD
ATOM     32  H71 UNL     1      23.983  14.599  10.703  1.00  0.00     0.157 HD
BRANCH  29  33
HETATM   33  N8  UNL     1      24.188  13.589   8.400  1.00  0.00    -0.292 N 
ATOM     34  H8  UNL     1      23.787  14.514   8.243  1.00  0.00     0.188 HD
BRANCH  33  35
HETATM   35  N9  UNL     1      25.009  13.037   7.412  1.00  0.00    -0.344 N 
ATOM     36  H92 UNL     1      25.974  13.363   7.362  1.00  0.00     0.176 HD
ATOM     37  H91 UNL     1      24.679  12.331   6.753  1.00  0.00     0.176 HD
ENDBRANCH  33  35
ENDBRANCH  29  33
ENDBRANCH  10  29
TORSDOF 8
ENDMDL
MODEL 2
REMARK VINA RESULT: -8.336668460      1.721      2.071
REMARK  8 active torsions:
REMARK  status: ('A' for Active; 'I' for Inactive)
REMARK    1  A    between atoms: S1_2  and  C2_3 
REMARK    2  A    between atoms: C3_6  and  N2_7 
REMARK    3  A    between atoms: N2_7  and  C4_9 
REMARK    4  A    between atoms: C4_9  and  C5_10 
REMARK    5  A    between atoms: C7_19  and  O1_20 
REMARK    6  A    between atoms: C7_19  and  C8_22 
REMARK    7  A    between atoms: C8_22  and  N8_26 
REMARK    8  A    between atoms: N8_26  and  N9_28 
ROOT
HETATM    1  C5  UNL     1      24.894   7.459  10.633  1.00  0.00     0.090 A 
HETATM    2  N3  UNL     1      23.686   7.285  11.165  1.00  0.00    -0.285 N 
ATOM      3  H3  UNL     1      23.430   6.592  11.868  1.00  0.00     0.188 HD
HETATM    4  N4  UNL     1      22.885   8.171  10.617  1.00  0.00    -0.238 N 
ATOM      5  H4  UNL     1      21.894   8.270  10.835  1.00  0.00     0.208 HD
HETATM    6  N5  UNL     1      23.547   8.919   9.739  1.00  0.00    -0.255 N 
HETATM    7  C6  UNL     1      24.815   8.490   9.730  1.00  0.00     0.148 A 
HETATM    8  N6  UNL     1      25.567   9.287   8.776  1.00  0.00    -0.334 N 
ATOM      9  H6  UNL     1      26.567   9.489   8.772  1.00  0.00     0.164 HD
HETATM   10  C7  UNL     1      24.563   9.726   7.835  1.00  0.00     0.212 C 
HETATM   11  C9  UNL     1      23.406  10.025   8.793  1.00  0.00     0.222 C 
ENDROOT
BRANCH   1  12
HETATM   12  C4  UNL     1      26.089   6.674  10.968  1.00  0.00     0.200 C 
BRANCH  12  13
HETATM   13  N2  UNL     1      26.288   5.539  10.118  1.00  0.00    -0.220 N 
ATOM     14  H2  UNL     1      25.458   5.114   9.703  1.00  0.00     0.178 HD
BRANCH  13  15
HETATM   15  C3  UNL     1      27.414   5.016   9.836  1.00  0.00     0.681 A 
HETATM   16  N1  UNL     1      28.398   5.665   9.182  1.00  0.00    -0.170 N 
HETATM   17  C2  UNL     1      29.586   5.106   8.888  1.00  0.00     0.160 A 
ATOM     18  H1  UNL     1      28.233   6.629   8.895  1.00  0.00     0.186 HD
HETATM   19  N11 UNL     1      29.786   3.833   9.275  1.00  0.00    -0.326 N 
HETATM   20  C10 UNL     1      28.833   3.144   9.932  1.00  0.00     0.095 A 
ATOM     21  H11 UNL     1      30.677   3.381   9.067  1.00  0.00     0.169 HD
HETATM   22  N10 UNL     1      27.651   3.744  10.208  1.00  0.00    -0.181 N 
HETATM   23  C11 UNL     1      29.134   1.744  10.325  1.00  0.00     0.089 C 
ATOM     24  H10 UNL     1      26.928   3.223  10.705  1.00  0.00     0.185 HD
BRANCH  17  25
HETATM   25  S1  UNL     1      30.862   6.022   8.011  1.00  0.00    -0.098 SA
HETATM   26  C1  UNL     1      30.068   7.136   6.817  1.00  0.00     0.099 C 
ENDBRANCH  17  25
ENDBRANCH  13  15
ENDBRANCH  12  13
ENDBRANCH   1  12
BRANCH  10  27
HETATM   27  O1  UNL     1      24.205   8.604   7.093  1.00  0.00    -0.363 OA
ATOM     28  H1  UNL     1      24.811   7.915   7.339  1.00  0.00     0.213 HD
ENDBRANCH  10  27
BRANCH  10  29
HETATM   29  C8  UNL     1      24.921  10.876   7.023  1.00  0.00     0.147 C 
HETATM   30  N7  UNL     1      25.111  12.029   7.539  1.00  0.00    -0.384 N 
ATOM     31  H72 UNL     1      25.009  12.138   8.548  1.00  0.00     0.157 HD
ATOM     32  H71 UNL     1      25.363  12.836   6.968  1.00  0.00     0.157 HD
BRANCH  29  33
HETATM   33  N8  UNL     1      25.062  10.723   5.621  1.00  0.00    -0.292 N 
ATOM     34  H8  UNL     1      25.943  10.996   5.185  1.00  0.00     0.188 HD
BRANCH  33  35
HETATM   35  N9  UNL     1      24.041  10.214   4.812  1.00  0.00    -0.344 N 
ATOM     36  H92 UNL     1      23.914  10.633   3.891  1.00  0.00     0.176 HD
ATOM     37  H91 UNL     1      23.432   9.452   5.110  1.00  0.00     0.176 HD
ENDBRANCH  33  35
ENDBRANCH  29  33
ENDBRANCH  10  29
TORSDOF 8
ENDMDL
MODEL 3
REMARK VINA RESULT: -8.279034698      1.821      2.067
REMARK  8 active torsions:
REMARK  status: ('A' for Active; 'I' for Inactive)
REMARK    1  A    between atoms: S1_2  and  C2_3 
REMARK    2  A    between atoms: C3_6  and  N2_7 
REMARK    3  A    between atoms: N2_7  and  C4_9 
REMARK    4  A    between atoms: C4_9  and  C5_10 
REMARK    5  A    between atoms: C7_19  and  O1_20 
REMARK    6  A    between atoms: C7_19  and  C8_22 
REMARK    7  A    between atoms: C8_22  and  N8_26 
REMARK    8  A    between atoms: N8_26  and  N9_28 
ROOT
HETATM    1  C5  UNL     1      24.984   8.338  11.921  1.00  0.00     0.090 A 
HETATM    2  N3  UNL     1      24.252   8.658  12.987  1.00  0.00    -0.285 N 
ATOM      3  H3  UNL     1      24.149   8.104  13.837  1.00  0.00     0.188 HD
HETATM    4  N4  UNL     1      23.689   9.819  12.741  1.00  0.00    -0.238 N 
ATOM      5  H4  UNL     1      23.069  10.311  13.384  1.00  0.00     0.208 HD
HETATM    6  N5  UNL     1      24.039  10.263  11.537  1.00  0.00    -0.255 N 
HETATM    7  C6  UNL     1      24.854   9.347  11.000  1.00  0.00     0.148 A 
HETATM    8  N6  UNL     1      25.254   9.802   9.679  1.00  0.00    -0.334 N 
ATOM      9  H6  UNL     1      26.104   9.570   9.162  1.00  0.00     0.164 HD
HETATM   10  C7  UNL     1      24.165  10.658   9.271  1.00  0.00     0.212 C 
HETATM   11  C9  UNL     1      23.868  11.367  10.594  1.00  0.00     0.222 C 
ENDROOT
BRANCH   1  12
HETATM   12  C4  UNL     1      25.783   7.115  11.778  1.00  0.00     0.200 C 
BRANCH  12  13
HETATM   13  N2  UNL     1      25.524   6.398  10.566  1.00  0.00    -0.220 N 
ATOM     14  H2  UNL     1      24.548   6.263  10.303  1.00  0.00     0.178 HD
BRANCH  13  15
HETATM   15  C3  UNL     1      26.411   5.916   9.790  1.00  0.00     0.681 A 
HETATM   16  N1  UNL     1      26.701   6.427   8.577  1.00  0.00    -0.170 N 
HETATM   17  C2  UNL     1      27.640   5.912   7.763  1.00  0.00     0.160 A 
ATOM     18  H1  UNL     1      26.183   7.246   8.261  1.00  0.00     0.186 HD
HETATM   19  N11 UNL     1      28.315   4.832   8.196  1.00  0.00    -0.326 N 
HETATM   20  C10 UNL     1      28.060   4.286   9.401  1.00  0.00     0.095 A 
ATOM     21  H11 UNL     1      29.033   4.418   7.601  1.00  0.00     0.169 HD
HETATM   22  N10 UNL     1      27.107   4.835  10.190  1.00  0.00    -0.181 N 
HETATM   23  C11 UNL     1      28.850   3.095   9.805  1.00  0.00     0.089 C 
ATOM     24  H10 UNL     1      26.912   4.422  11.103  1.00  0.00     0.185 HD
BRANCH  17  25
HETATM   25  S1  UNL     1      27.985   6.638   6.152  1.00  0.00    -0.098 SA
HETATM   26  C1  UNL     1      29.621   7.422   6.201  1.00  0.00     0.099 C 
ENDBRANCH  17  25
ENDBRANCH  13  15
ENDBRANCH  12  13
ENDBRANCH   1  12
BRANCH  10  27
HETATM   27  O1  UNL     1      23.087   9.819   9.001  1.00  0.00    -0.363 OA
ATOM     28  H1  UNL     1      22.617   9.716   9.820  1.00  0.00     0.213 HD
ENDBRANCH  10  27
BRANCH  10  29
HETATM   29  C8  UNL     1      24.465  11.589   8.197  1.00  0.00     0.147 C 
HETATM   30  N7  UNL     1      24.223  12.839   8.306  1.00  0.00    -0.384 N 
ATOM     31  H72 UNL     1      23.810  13.185   9.173  1.00  0.00     0.157 HD
ATOM     32  H71 UNL     1      24.433  13.493   7.552  1.00  0.00     0.157 HD
BRANCH  29  33
HETATM   33  N8  UNL     1      25.038  11.107   6.994  1.00  0.00    -0.292 N 
ATOM     34  H8  UNL     1      25.911  11.521   6.668  1.00  0.00     0.188 HD
BRANCH  33  35
HETATM   35  N9  UNL     1      24.453  10.088   6.236  1.00  0.00    -0.344 N 
ATOM     36  H92 UNL     1      24.984   9.721   5.447  1.00  0.00     0.176 HD
ATOM     37  H91 UNL     1      23.529   9.709   6.445  1.00  0.00     0.176 HD
ENDBRANCH  33  35
ENDBRANCH  29  33
ENDBRANCH  10  29
TORSDOF 8
ENDMDL
MODEL 4
REMARK VINA RESULT: -8.247895255      2.260      4.186
REMARK  8 active torsions:
REMARK  status: ('A' for Active; 'I' for Inactive)
REMARK    1  A    between atoms: S1_2  and  C2_3 
REMARK    2  A    between atoms: C3_6  and  N2_7 
REMARK    3  A    between atoms: N2_7  and  C4_9 
REMARK    4  A    between atoms: C4_9  and  C5_10 
REMARK    5  A    between atoms: C7_19  and  O1_20 
REMARK    6  A    between atoms: C7_19  and  C8_22 
REMARK    7  A    between atoms: C8_22  and  N8_26 
REMARK    8  A    between atoms: N8_26  and  N9_28 
ROOT
HETATM    1  C5  UNL     1      25.718   8.817   6.804  1.00  0.00     0.090 A 
HETATM    2  N3  UNL     1      25.438  10.008   6.278  1.00  0.00    -0.285 N 
ATOM      3  H3  UNL     1      25.831  10.397   5.421  1.00  0.00     0.188 HD
HETATM    4  N4  UNL     1      24.562  10.588   7.066  1.00  0.00    -0.238 N 
ATOM      5  H4  UNL     1      24.165  11.515   6.911  1.00  0.00     0.208 HD
HETATM    6  N5  UNL     1      24.265   9.799   8.095  1.00  0.00    -0.255 N 
HETATM    7  C6  UNL     1      24.981   8.677   7.953  1.00  0.00     0.148 A 
HETATM    8  N6  UNL     1      24.680   7.792   9.066  1.00  0.00    -0.334 N 
ATOM      9  H6  UNL     1      24.741   6.774   9.096  1.00  0.00     0.164 HD
HETATM   10  C7  UNL     1      24.276   8.695  10.117  1.00  0.00     0.212 C 
HETATM   11  C9  UNL     1      23.454   9.702   9.308  1.00  0.00     0.222 C 
ENDROOT
BRANCH   1  12
HETATM   12  C4  UNL     1      26.655   7.839   6.236  1.00  0.00     0.200 C 
BRANCH  12  13
HETATM   13  N2  UNL     1      26.785   6.647   7.019  1.00  0.00    -0.220 N 
ATOM     14  H2  UNL     1      25.993   6.005   7.029  1.00  0.00     0.178 HD
BRANCH  13  15
HETATM   15  C3  UNL     1      27.809   6.323   7.704  1.00  0.00     0.681 A 
HETATM   16  N1  UNL     1      28.019   5.086   8.195  1.00  0.00    -0.170 N 
HETATM   17  C2  UNL     1      29.104   4.751   8.918  1.00  0.00     0.160 A 
ATOM     18  H1  UNL     1      27.321   4.367   8.010  1.00  0.00     0.186 HD
HETATM   19  N11 UNL     1      30.016   5.712   9.152  1.00  0.00    -0.326 N 
HETATM   20  C10 UNL     1      29.850   6.963   8.681  1.00  0.00     0.095 A 
ATOM     21  H11 UNL     1      30.849   5.489   9.697  1.00  0.00     0.169 HD
HETATM   22  N10 UNL     1      28.743   7.259   7.959  1.00  0.00    -0.181 N 
HETATM   23  C11 UNL     1      30.903   7.965   8.983  1.00  0.00     0.089 C 
ATOM     24  H10 UNL     1      28.616   8.206   7.602  1.00  0.00     0.185 HD
BRANCH  17  25
HETATM   25  S1  UNL     1      29.331   3.081   9.549  1.00  0.00    -0.098 SA
HETATM   26  C1  UNL     1      27.908   2.649  10.590  1.00  0.00     0.099 C 
ENDBRANCH  17  25
ENDBRANCH  13  15
ENDBRANCH  12  13
ENDBRANCH   1  12
BRANCH  10  27
HETATM   27  O1  UNL     1      25.431   9.348  10.539  1.00  0.00    -0.363 OA
ATOM     28  H1  UNL     1      26.159   8.789  10.293  1.00  0.00     0.213 HD
ENDBRANCH  10  27
BRANCH  10  29
HETATM   29  C8  UNL     1      23.512   8.099  11.200  1.00  0.00     0.147 C 
HETATM   30  N7  UNL     1      22.620   7.211  10.982  1.00  0.00    -0.384 N 
ATOM     31  H72 UNL     1      22.445   6.916  10.021  1.00  0.00     0.157 HD
ATOM     32  H71 UNL     1      22.083   6.792  11.742  1.00  0.00     0.157 HD
BRANCH  29  33
HETATM   33  N8  UNL     1      23.755   8.509  12.534  1.00  0.00    -0.292 N 
ATOM     34  H8  UNL     1      23.872   7.795  13.253  1.00  0.00     0.188 HD
BRANCH  33  35
HETATM   35  N9  UNL     1      23.839   9.855  12.905  1.00  0.00    -0.344 N 
ATOM     36  H92 UNL     1      24.762  10.229  13.124  1.00  0.00     0.176 HD
ATOM     37  H91 UNL     1      23.021  10.462  12.962  1.00  0.00     0.176 HD
ENDBRANCH  33  35
ENDBRANCH  29  33
ENDBRANCH  10  29
TORSDOF 8
ENDMDL
MODEL 5
REMARK VINA RESULT: -8.222033204      1.778      2.707
REMARK  8 active torsions:
REMARK  status: ('A' for Active; 'I' for Inactive)
REMARK    1  A    between atoms: S1_2  and  C2_3 
REMARK    2  A    between atoms: C3_6  and  N2_7 
REMARK    3  A    between atoms: N2_7  and  C4_9 
REMARK    4  A    between atoms: C4_9  and  C5_10 
REMARK    5  A    between atoms: C7_19  and  O1_20 
REMARK    6  A    between atoms: C7_19  and  C8_22 
REMARK    7  A    between atoms: C8_22  and  N8_26 
REMARK    8  A    between atoms: N8_26  and  N9_28 
ROOT
HETATM    1  C5  UNL     1      24.984   8.284  11.898  1.00  0.00     0.090 A 
HETATM    2  N3  UNL     1      24.279   8.611  12.979  1.00  0.00    -0.285 N 
ATOM      3  H3  UNL     1      24.188   8.057  13.831  1.00  0.00     0.188 HD
HETATM    4  N4  UNL     1      23.723   9.778  12.746  1.00  0.00    -0.238 N 
ATOM      5  H4  UNL     1      23.122  10.276  13.402  1.00  0.00     0.208 HD
HETATM    6  N5  UNL     1      24.052  10.218  11.535  1.00  0.00    -0.255 N 
HETATM    7  C6  UNL     1      24.846   9.294  10.980  1.00  0.00     0.148 A 
HETATM    8  N6  UNL     1      25.223   9.745   9.651  1.00  0.00    -0.334 N 
ATOM      9  H6  UNL     1      26.059   9.505   9.117  1.00  0.00     0.164 HD
HETATM   10  C7  UNL     1      24.135  10.613   9.266  1.00  0.00     0.212 C 
HETATM   11  C9  UNL     1      23.874  11.325  10.596  1.00  0.00     0.222 C 
ENDROOT
BRANCH   1  12
HETATM   12  C4  UNL     1      25.767   7.051  11.738  1.00  0.00     0.200 C 
BRANCH  12  13
HETATM   13  N2  UNL     1      25.511   6.364  10.508  1.00  0.00    -0.220 N 
ATOM     14  H2  UNL     1      24.539   6.140  10.292  1.00  0.00     0.178 HD
BRANCH  13  15
HETATM   15  C3  UNL     1      26.394   6.010   9.663  1.00  0.00     0.681 A 
HETATM   16  N1  UNL     1      27.362   5.110   9.924  1.00  0.00    -0.170 N 
HETATM   17  C2  UNL     1      28.292   4.741   9.024  1.00  0.00     0.160 A 
ATOM     18  H1  UNL     1      27.391   4.687  10.851  1.00  0.00     0.186 HD
HETATM   19  N11 UNL     1      28.239   5.308   7.806  1.00  0.00    -0.326 N 
HETATM   20  C10 UNL     1      27.289   6.213   7.497  1.00  0.00     0.095 A 
ATOM     21  H11 UNL     1      28.930   5.049   7.102  1.00  0.00     0.169 HD
HETATM   22  N10 UNL     1      26.372   6.557   8.432  1.00  0.00    -0.181 N 
HETATM   23  C11 UNL     1      27.299   6.792   6.130  1.00  0.00     0.089 C 
ATOM     24  H10 UNL     1      25.653   7.242   8.200  1.00  0.00     0.185 HD
BRANCH  17  25
HETATM   25  S1  UNL     1      29.563   3.532   9.432  1.00  0.00    -0.098 SA
HETATM   26  C1  UNL     1      28.787   2.131  10.286  1.00  0.00     0.099 C 
ENDBRANCH  17  25
ENDBRANCH  13  15
ENDBRANCH  12  13
ENDBRANCH   1  12
BRANCH  10  27
HETATM   27  O1  UNL     1      23.043   9.786   9.019  1.00  0.00    -0.363 OA
ATOM     28  H1  UNL     1      22.449   9.900   9.752  1.00  0.00     0.213 HD
ENDBRANCH  10  27
BRANCH  10  29
HETATM   29  C8  UNL     1      24.422  11.542   8.187  1.00  0.00     0.147 C 
HETATM   30  N7  UNL     1      24.941  11.152   7.087  1.00  0.00    -0.384 N 
ATOM     31  H72 UNL     1      25.156  10.161   6.968  1.00  0.00     0.157 HD
ATOM     32  H71 UNL     1      25.143  11.804   6.328  1.00  0.00     0.157 HD
BRANCH  29  33
HETATM   33  N8  UNL     1      24.124  12.917   8.351  1.00  0.00    -0.292 N 
ATOM     34  H8  UNL     1      23.341  13.181   8.949  1.00  0.00     0.188 HD
BRANCH  33  35
HETATM   35  N9  UNL     1      24.862  13.928   7.726  1.00  0.00    -0.344 N 
ATOM     36  H92 UNL     1      24.350  14.607   7.162  1.00  0.00     0.176 HD
ATOM     37  H91 UNL     1      25.875  14.004   7.815  1.00  0.00     0.176 HD
ENDBRANCH  33  35
ENDBRANCH  29  33
ENDBRANCH  10  29
TORSDOF 8
ENDMDL
