MODEL 1
REMARK VINA RESULT: -8.219747119      0.000      0.000
REMARK  3 active torsions:
REMARK  status: ('A' for Active; 'I' for Inactive)
REMARK    1  A    between atoms: C4_4  and  C5_5 
REMARK    2  A    between atoms: C12_12  and  N1_13 
REMARK    3  A    between atoms: N1_13  and  C13_15 
ROOT
HETATM    1  C13 UNL     1      -3.952  53.461 161.041  1.00  0.00     0.143 A 
HETATM    2  N2  UNL     1      -4.852  53.864 161.954  1.00  0.00    -0.284 N 
ATOM      3  H2  UNL     1      -4.873  53.584 162.935  1.00  0.00     0.188 HD
HETATM    4  N3  UNL     1      -5.719  54.697 161.358  1.00  0.00    -0.302 N 
ATOM      5  H3  UNL     1      -6.505  55.150 161.823  1.00  0.00     0.186 HD
HETATM    6  C14 UNL     1      -5.406  54.848 160.071  1.00  0.00     0.046 A 
HETATM    7  C15 UNL     1      -6.104  55.681 159.051  1.00  0.00     0.071 C 
HETATM    8  C16 UNL     1      -4.270  54.057 159.861  1.00  0.00     0.113 A 
HETATM    9  C17 UNL     1      -3.623  53.950 158.597  1.00  0.00     0.105 C 
HETATM   10  N4  UNL     1      -3.116  53.857 157.566  1.00  0.00    -0.191 NA
ENDROOT
BRANCH   1  11
HETATM   11  N1  UNL     1      -2.983  52.669 161.249  1.00  0.00    -0.340 N 
ATOM     12  H1  UNL     1      -2.360  52.450 160.472  1.00  0.00     0.167 HD
BRANCH  11  13
HETATM   13  C12 UNL     1      -2.722  52.064 162.525  1.00  0.00     0.040 A 
HETATM   14  C2  UNL     1      -3.307  50.860 162.847  1.00  0.00    -0.035 A 
HETATM   15  C1  UNL     1      -4.205  50.199 161.863  1.00  0.00     0.050 C 
HETATM   16  C3  UNL     1      -3.044  50.292 164.084  1.00  0.00     0.017 A 
HETATM   17  C4  UNL     1      -2.221  50.856 165.037  1.00  0.00    -0.044 A 
HETATM   18  C9  UNL     1      -1.641  52.069 164.695  1.00  0.00    -0.053 A 
HETATM   19  C10 UNL     1      -0.755  52.754 165.633  1.00  0.00     0.049 C 
HETATM   20  C11 UNL     1      -1.905  52.646 163.445  1.00  0.00     0.037 A 
BRANCH  17  21
HETATM   21  C5  UNL     1      -1.963  50.216 166.345  1.00  0.00    -0.024 C 
HETATM   22  C6  UNL     1      -2.832  48.947 166.387  1.00  0.00     0.019 C 
HETATM   23  C7  UNL     1      -2.375  51.019 167.525  1.00  0.00     0.019 C 
HETATM   24  C8  UNL     1      -0.537  49.693 166.458  1.00  0.00     0.019 C 
ENDBRANCH  17  21
ENDBRANCH  11  13
ENDBRANCH   1  11
TORSDOF 3
ENDMDL
MODEL 2
REMARK VINA RESULT: -8.112816012      3.636      6.436
REMARK  3 active torsions:
REMARK  status: ('A' for Active; 'I' for Inactive)
REMARK    1  A    between atoms: C4_4  and  C5_5 
REMARK    2  A    between atoms: C12_12  and  N1_13 
REMARK    3  A    between atoms: N1_13  and  C13_15 
ROOT
HETATM    1  C13 UNL     1       0.272  53.144 165.628  1.00  0.00     0.143 A 
HETATM    2  N2  UNL     1       0.990  54.178 165.157  1.00  0.00    -0.284 N 
ATOM      3  H2  UNL     1       0.692  55.153 165.144  1.00  0.00     0.188 HD
HETATM    4  N3  UNL     1       2.166  53.711 164.709  1.00  0.00    -0.302 N 
ATOM      5  H3  UNL     1       2.903  54.285 164.300  1.00  0.00     0.186 HD
HETATM    6  C14 UNL     1       2.233  52.390 164.875  1.00  0.00     0.046 A 
HETATM    7  C15 UNL     1       3.356  51.479 164.515  1.00  0.00     0.071 C 
HETATM    8  C16 UNL     1       1.019  52.019 165.466  1.00  0.00     0.113 A 
HETATM    9  C17 UNL     1       0.702  50.672 165.805  1.00  0.00     0.105 C 
HETATM   10  N4  UNL     1       0.449  49.578 166.061  1.00  0.00    -0.191 NA
ENDROOT
BRANCH   1  11
HETATM   11  N1  UNL     1      -0.891  53.210 166.130  1.00  0.00    -0.340 N 
ATOM     12  H1  UNL     1      -1.019  53.746 166.988  1.00  0.00     0.167 HD
BRANCH  11  13
HETATM   13  C12 UNL     1      -2.035  52.567 165.548  1.00  0.00     0.040 A 
HETATM   14  C2  UNL     1      -2.798  51.706 166.305  1.00  0.00    -0.035 A 
HETATM   15  C1  UNL     1      -2.424  51.453 167.722  1.00  0.00     0.050 C 
HETATM   16  C3  UNL     1      -3.899  51.094 165.726  1.00  0.00     0.017 A 
HETATM   17  C4  UNL     1      -4.296  51.288 164.419  1.00  0.00    -0.044 A 
HETATM   18  C9  UNL     1      -3.515  52.158 163.672  1.00  0.00    -0.053 A 
HETATM   19  C10 UNL     1      -3.845  52.432 162.276  1.00  0.00     0.049 C 
HETATM   20  C11 UNL     1      -2.402  52.778 164.254  1.00  0.00     0.037 A 
BRANCH  17  21
HETATM   21  C5  UNL     1      -5.480  50.618 163.840  1.00  0.00    -0.024 C 
HETATM   22  C6  UNL     1      -5.960  49.599 164.888  1.00  0.00     0.019 C 
HETATM   23  C7  UNL     1      -5.210  49.828 162.610  1.00  0.00     0.019 C 
HETATM   24  C8  UNL     1      -6.659  51.569 163.681  1.00  0.00     0.019 C 
ENDBRANCH  17  21
ENDBRANCH  11  13
ENDBRANCH   1  11
TORSDOF 3
ENDMDL
MODEL 3
REMARK VINA RESULT: -7.877569785      3.214      4.680
REMARK  3 active torsions:
REMARK  status: ('A' for Active; 'I' for Inactive)
REMARK    1  A    between atoms: C4_4  and  C5_5 
REMARK    2  A    between atoms: C12_12  and  N1_13 
REMARK    3  A    between atoms: N1_13  and  C13_15 
ROOT
HETATM    1  C13 UNL     1      -4.114  52.869 165.229  1.00  0.00     0.143 A 
HETATM    2  N2  UNL     1      -3.846  53.953 164.482  1.00  0.00    -0.284 N 
ATOM      3  H2  UNL     1      -3.011  54.534 164.551  1.00  0.00     0.188 HD
HETATM    4  N3  UNL     1      -4.864  54.143 163.628  1.00  0.00    -0.302 N 
ATOM      5  H3  UNL     1      -4.918  54.897 162.944  1.00  0.00     0.186 HD
HETATM    6  C14 UNL     1      -5.795  53.205 163.801  1.00  0.00     0.046 A 
HETATM    7  C15 UNL     1      -7.081  53.045 163.065  1.00  0.00     0.071 C 
HETATM    8  C16 UNL     1      -5.319  52.382 164.829  1.00  0.00     0.113 A 
HETATM    9  C17 UNL     1      -6.037  51.251 165.312  1.00  0.00     0.105 C 
HETATM   10  N4  UNL     1      -6.633  50.347 165.707  1.00  0.00    -0.191 NA
ENDROOT
BRANCH   1  11
HETATM   11  N1  UNL     1      -3.374  52.391 166.142  1.00  0.00    -0.340 N 
ATOM     12  H1  UNL     1      -3.791  52.190 167.051  1.00  0.00     0.167 HD
BRANCH  11  13
HETATM   13  C12 UNL     1      -1.975  52.121 165.958  1.00  0.00     0.040 A 
HETATM   14  C2  UNL     1      -1.514  50.825 166.004  1.00  0.00    -0.035 A 
HETATM   15  C1  UNL     1      -2.476  49.716 166.246  1.00  0.00     0.050 C 
HETATM   16  C3  UNL     1      -0.161  50.583 165.824  1.00  0.00     0.017 A 
HETATM   17  C4  UNL     1       0.779  51.568 165.596  1.00  0.00    -0.044 A 
HETATM   18  C9  UNL     1       0.296  52.868 165.553  1.00  0.00    -0.053 A 
HETATM   19  C10 UNL     1       1.206  53.986 165.322  1.00  0.00     0.049 C 
HETATM   20  C11 UNL     1      -1.072  53.115 165.735  1.00  0.00     0.037 A 
BRANCH  17  21
HETATM   21  C5  UNL     1       2.214  51.268 165.405  1.00  0.00    -0.024 C 
HETATM   22  C6  UNL     1       2.349  49.736 165.456  1.00  0.00     0.019 C 
HETATM   23  C7  UNL     1       3.106  51.783 166.476  1.00  0.00     0.019 C 
HETATM   24  C8  UNL     1       2.698  51.636 164.009  1.00  0.00     0.019 C 
ENDBRANCH  17  21
ENDBRANCH  11  13
ENDBRANCH   1  11
TORSDOF 3
ENDMDL
MODEL 4
REMARK VINA RESULT: -7.665743402      1.303      2.111
REMARK  3 active torsions:
REMARK  status: ('A' for Active; 'I' for Inactive)
REMARK    1  A    between atoms: C4_4  and  C5_5 
REMARK    2  A    between atoms: C12_12  and  N1_13 
REMARK    3  A    between atoms: N1_13  and  C13_15 
ROOT
HETATM    1  C13 UNL     1      -4.223  54.077 161.374  1.00  0.00     0.143 A 
HETATM    2  N2  UNL     1      -3.169  53.610 160.683  1.00  0.00    -0.284 N 
ATOM      3  H2  UNL     1      -2.324  53.205 161.085  1.00  0.00     0.188 HD
HETATM    4  N3  UNL     1      -3.417  53.768 159.373  1.00  0.00    -0.302 N 
ATOM      5  H3  UNL     1      -2.781  53.496 158.624  1.00  0.00     0.186 HD
HETATM    6  C14 UNL     1      -4.612  54.329 159.191  1.00  0.00     0.046 A 
HETATM    7  C15 UNL     1      -5.273  54.678 157.902  1.00  0.00     0.071 C 
HETATM    8  C16 UNL     1      -5.136  54.530 160.474  1.00  0.00     0.113 A 
HETATM    9  C17 UNL     1      -6.413  55.116 160.707  1.00  0.00     0.105 C 
HETATM   10  N4  UNL     1      -7.441  55.606 160.884  1.00  0.00    -0.191 NA
ENDROOT
BRANCH   1  11
HETATM   11  N1  UNL     1      -4.339  54.090 162.638  1.00  0.00    -0.340 N 
ATOM     12  H1  UNL     1      -4.852  54.858 163.070  1.00  0.00     0.167 HD
BRANCH  11  13
HETATM   13  C12 UNL     1      -3.782  53.075 163.488  1.00  0.00     0.040 A 
HETATM   14  C2  UNL     1      -4.535  51.974 163.827  1.00  0.00    -0.035 A 
HETATM   15  C1  UNL     1      -5.923  51.850 163.307  1.00  0.00     0.050 C 
HETATM   16  C3  UNL     1      -3.981  51.005 164.650  1.00  0.00     0.017 A 
HETATM   17  C4  UNL     1      -2.701  51.063 165.163  1.00  0.00    -0.044 A 
HETATM   18  C9  UNL     1      -1.957  52.180 164.810  1.00  0.00    -0.053 A 
HETATM   19  C10 UNL     1      -0.592  52.343 165.302  1.00  0.00     0.049 C 
HETATM   20  C11 UNL     1      -2.516  53.161 163.979  1.00  0.00     0.037 A 
BRANCH  17  21
HETATM   21  C5  UNL     1      -2.146  50.006 166.035  1.00  0.00    -0.024 C 
HETATM   22  C6  UNL     1      -3.197  48.884 166.083  1.00  0.00     0.019 C 
HETATM   23  C7  UNL     1      -1.930  50.412 167.448  1.00  0.00     0.019 C 
HETATM   24  C8  UNL     1      -0.921  49.340 165.421  1.00  0.00     0.019 C 
ENDBRANCH  17  21
ENDBRANCH  11  13
ENDBRANCH   1  11
TORSDOF 3
ENDMDL
MODEL 5
REMARK VINA RESULT: -7.614334288      3.726      4.845
REMARK  3 active torsions:
REMARK  status: ('A' for Active; 'I' for Inactive)
REMARK    1  A    between atoms: C4_4  and  C5_5 
REMARK    2  A    between atoms: C12_12  and  N1_13 
REMARK    3  A    between atoms: N1_13  and  C13_15 
ROOT
HETATM    1  C13 UNL     1      -4.650  51.327 165.888  1.00  0.00     0.143 A 
HETATM    2  N2  UNL     1      -5.276  50.191 165.534  1.00  0.00    -0.284 N 
ATOM      3  H2  UNL     1      -5.083  49.262 165.908  1.00  0.00     0.188 HD
HETATM    4  N3  UNL     1      -6.198  50.486 164.604  1.00  0.00    -0.302 N 
ATOM      5  H3  UNL     1      -6.817  49.807 164.163  1.00  0.00     0.186 HD
HETATM    6  C14 UNL     1      -6.189  51.793 164.340  1.00  0.00     0.046 A 
HETATM    7  C15 UNL     1      -7.047  52.538 163.377  1.00  0.00     0.071 C 
HETATM    8  C16 UNL     1      -5.196  52.340 165.163  1.00  0.00     0.113 A 
HETATM    9  C17 UNL     1      -4.876  53.727 165.175  1.00  0.00     0.105 C 
HETATM   10  N4  UNL     1      -4.615  54.850 165.165  1.00  0.00    -0.191 NA
ENDROOT
BRANCH   1  11
HETATM   11  N1  UNL     1      -3.719  51.429 166.744  1.00  0.00    -0.340 N 
ATOM     12  H1  UNL     1      -3.972  51.550 167.724  1.00  0.00     0.167 HD
BRANCH  11  13
HETATM   13  C12 UNL     1      -2.326  51.383 166.397  1.00  0.00     0.040 A 
HETATM   14  C2  UNL     1      -1.653  50.183 166.415  1.00  0.00    -0.035 A 
HETATM   15  C1  UNL     1      -2.382  48.943 166.794  1.00  0.00     0.050 C 
HETATM   16  C3  UNL     1      -0.308  50.158 166.078  1.00  0.00     0.017 A 
HETATM   17  C4  UNL     1       0.421  51.272 165.717  1.00  0.00    -0.044 A 
HETATM   18  C9  UNL     1      -0.273  52.473 165.706  1.00  0.00    -0.053 A 
HETATM   19  C10 UNL     1       0.404  53.715 165.342  1.00  0.00     0.049 C 
HETATM   20  C11 UNL     1      -1.633  52.501 166.046  1.00  0.00     0.037 A 
BRANCH  17  21
HETATM   21  C5  UNL     1       1.855  51.203 165.361  1.00  0.00    -0.024 C 
HETATM   22  C6  UNL     1       2.211  49.709 165.278  1.00  0.00     0.019 C 
HETATM   23  C7  UNL     1       2.778  51.777 166.375  1.00  0.00     0.019 C 
HETATM   24  C8  UNL     1       2.124  51.727 163.956  1.00  0.00     0.019 C 
ENDBRANCH  17  21
ENDBRANCH  11  13
ENDBRANCH   1  11
TORSDOF 3
ENDMDL
