MODEL 1
REMARK VINA RESULT: -8.649361773      0.000      0.000
REMARK  7 active torsions:
REMARK  status: ('A' for Active; 'I' for Inactive)
REMARK    1  A    between atoms: O1_2  and  C2_3 
REMARK    2  A    between atoms: C2_3  and  O2_4 
REMARK    3  A    between atoms: C2_3  and  C3_6 
REMARK    4  A    between atoms: C3_6  and  C4_7 
REMARK    5  A    between atoms: C4_7  and  C5_8 
REMARK       I    between atoms: C5_8  and  N1_10 
REMARK    6  A    between atoms: N1_10  and  C7_12 
REMARK    7  A    between atoms: C8_13  and  C9_14 
ROOT
HETATM    1  C7  UNL     1      26.946   9.749  16.492  1.00  0.00     0.011 C 
HETATM    2  C8  UNL     1      25.533  10.069  16.968  1.00  0.00     0.094 C 
HETATM    3  C10 UNL     1      24.620   8.892  16.783  1.00  0.00     0.027 C 
HETATM    4  C11 UNL     1      24.889   8.259  15.405  1.00  0.00    -0.033 C 
HETATM    5  C12 UNL     1      24.162   9.002  14.319  1.00  0.00     0.011 C 
HETATM    6  C13 UNL     1      22.883   8.473  13.845  1.00  0.00     0.020 C 
HETATM    7  C14 UNL     1      22.566   7.245  13.174  1.00  0.00     0.043 C 
HETATM    8  C15 UNL     1      22.805   7.408  11.656  1.00  0.00     0.026 C 
HETATM    9  C16 UNL     1      21.091   7.034  13.247  1.00  0.00     0.230 C 
HETATM   10  O5  UNL     1      20.370   8.009  13.530  1.00  0.00    -0.272 OA
HETATM   11  N2  UNL     1      20.506   5.773  13.005  1.00  0.00    -0.340 N 
ATOM     12  H2  UNL     1      19.702   5.668  12.387  1.00  0.00     0.167 HD
HETATM   13  C17 UNL     1      21.041   4.749  13.610  1.00  0.00     0.064 C 
HETATM   14  C18 UNL     1      22.200   5.094  14.472  1.00  0.00     0.052 C 
HETATM   15  C19 UNL     1      23.153   5.905  13.644  1.00  0.00     0.031 C 
HETATM   16  C20 UNL     1      24.412   6.239  14.254  1.00  0.00     0.043 C 
HETATM   17 CL1  UNL     1      25.220   6.980  12.854  1.00  0.00    -0.119 Cl
HETATM   18  C21 UNL     1      25.525   5.408  14.694  1.00  0.00     0.026 C 
HETATM   19  C22 UNL     1      26.651   6.445  14.925  1.00  0.00     0.008 C 
HETATM   20  C23 UNL     1      26.284   7.836  15.195  1.00  0.00     0.008 C 
HETATM   21  C24 UNL     1      27.226   8.323  16.368  1.00  0.00    -0.004 C 
HETATM   22  C25 UNL     1      27.146   7.396  17.496  1.00  0.00     0.021 C 
HETATM   23  C26 UNL     1      28.629   8.152  15.759  1.00  0.00     0.021 C 
HETATM   24  C27 UNL     1      24.084   6.985  15.477  1.00  0.00     0.036 C 
ENDROOT
BRANCH   1  25
HETATM   25  N1  UNL     1      27.820  10.737  16.918  1.00  0.00    -0.325 N 
HETATM   26  C5  UNL     1      28.458  11.868  16.434  1.00  0.00     0.247 C 
HETATM   27  O3  UNL     1      29.273  12.459  17.231  1.00  0.00    -0.268 OA
HETATM   28  C6  UNL     1      28.255  10.520  18.369  1.00  0.00     0.159 C 
BRANCH  26  29
HETATM   29  C4  UNL     1      28.334  12.479  15.156  1.00  0.00     0.079 C 
BRANCH  29  30
HETATM   30  C3  UNL     1      28.836  13.563  14.648  1.00  0.00     0.069 C 
BRANCH  30  31
HETATM   31  C2  UNL     1      28.308  14.852  14.330  1.00  0.00     0.177 C 
BRANCH  31  32
HETATM   32  O1  UNL     1      27.303  15.562  14.947  1.00  0.00    -0.336 OA
HETATM   33  C1  UNL     1      26.556  16.588  14.370  1.00  0.00     0.212 C 
ENDBRANCH  31  32
BRANCH  31  34
HETATM   34  O2  UNL     1      28.807  15.514  13.314  1.00  0.00    -0.341 OA
ATOM     35  H2  UNL     1      29.732  15.692  13.438  1.00  0.00     0.220 HD
ENDBRANCH  31  34
ENDBRANCH  30  31
ENDBRANCH  29  30
ENDBRANCH  26  29
ENDBRANCH   1  25
BRANCH   2  36
HETATM   36  C9  UNL     1      25.407  10.586  18.319  1.00  0.00     0.241 C 
HETATM   37  O4  UNL     1      24.758   9.960  19.145  1.00  0.00    -0.306 OA
ENDBRANCH   2  36
TORSDOF 7
ENDMDL
MODEL 2
REMARK VINA RESULT: -8.457082118      1.927      3.579
REMARK  7 active torsions:
REMARK  status: ('A' for Active; 'I' for Inactive)
REMARK    1  A    between atoms: O1_2  and  C2_3 
REMARK    2  A    between atoms: C2_3  and  O2_4 
REMARK    3  A    between atoms: C2_3  and  C3_6 
REMARK    4  A    between atoms: C3_6  and  C4_7 
REMARK    5  A    between atoms: C4_7  and  C5_8 
REMARK       I    between atoms: C5_8  and  N1_10 
REMARK    6  A    between atoms: N1_10  and  C7_12 
REMARK    7  A    between atoms: C8_13  and  C9_14 
ROOT
HETATM    1  C7  UNL     1      26.338   9.552  16.638  1.00  0.00     0.011 C 
HETATM    2  C8  UNL     1      24.889   9.837  17.019  1.00  0.00     0.094 C 
HETATM    3  C10 UNL     1      24.008   8.660  16.716  1.00  0.00     0.027 C 
HETATM    4  C11 UNL     1      24.389   8.089  15.337  1.00  0.00    -0.033 C 
HETATM    5  C12 UNL     1      23.734   8.871  14.232  1.00  0.00     0.011 C 
HETATM    6  C13 UNL     1      22.502   8.350  13.641  1.00  0.00     0.020 C 
HETATM    7  C14 UNL     1      22.253   7.148  12.897  1.00  0.00     0.043 C 
HETATM    8  C15 UNL     1      22.603   7.378  11.409  1.00  0.00     0.026 C 
HETATM    9  C16 UNL     1      20.779   6.919  12.849  1.00  0.00     0.230 C 
HETATM   10  O5  UNL     1      20.026   7.874  13.117  1.00  0.00    -0.272 OA
HETATM   11  N2  UNL     1      20.231   5.664  12.512  1.00  0.00    -0.340 N 
ATOM     12  H2  UNL     1      19.477   5.577  11.830  1.00  0.00     0.167 HD
HETATM   13  C17 UNL     1      20.733   4.621  13.111  1.00  0.00     0.064 C 
HETATM   14  C18 UNL     1      21.820   4.940  14.072  1.00  0.00     0.052 C 
HETATM   15  C19 UNL     1      22.820   5.795  13.354  1.00  0.00     0.031 C 
HETATM   16  C20 UNL     1      24.026   6.116  14.070  1.00  0.00     0.043 C 
HETATM   17 CL1  UNL     1      24.927   6.924  12.767  1.00  0.00    -0.119 Cl
HETATM   18  C21 UNL     1      25.114   5.278  14.558  1.00  0.00     0.026 C 
HETATM   19  C22 UNL     1      26.206   6.315  14.917  1.00  0.00     0.008 C 
HETATM   20  C23 UNL     1      25.801   7.690  15.217  1.00  0.00     0.008 C 
HETATM   21  C24 UNL     1      26.645   8.136  16.476  1.00  0.00    -0.004 C 
HETATM   22  C25 UNL     1      26.493   7.161  17.555  1.00  0.00     0.021 C 
HETATM   23  C26 UNL     1      28.092   8.006  15.968  1.00  0.00     0.021 C 
HETATM   24  C27 UNL     1      23.597   6.806  15.295  1.00  0.00     0.036 C 
ENDROOT
BRANCH   1  25
HETATM   25  N1  UNL     1      27.164  10.530  17.170  1.00  0.00    -0.325 N 
HETATM   26  C5  UNL     1      27.894  10.791  18.319  1.00  0.00     0.247 C 
HETATM   27  O3  UNL     1      28.485  11.928  18.383  1.00  0.00    -0.268 OA
HETATM   28  C6  UNL     1      27.314  11.721  16.221  1.00  0.00     0.159 C 
BRANCH  26  29
HETATM   29  C4  UNL     1      28.083   9.960  19.459  1.00  0.00     0.079 C 
BRANCH  29  30
HETATM   30  C3  UNL     1      27.725  10.078  20.701  1.00  0.00     0.069 C 
BRANCH  30  31
HETATM   31  C2  UNL     1      27.762  11.144  21.651  1.00  0.00     0.177 C 
BRANCH  31  32
HETATM   32  O1  UNL     1      26.977  11.351  22.763  1.00  0.00    -0.336 OA
HETATM   33  C1  UNL     1      26.627  10.387  23.707  1.00  0.00     0.212 C 
ENDBRANCH  31  32
BRANCH  31  34
HETATM   34  O2  UNL     1      28.648  12.099  21.507  1.00  0.00    -0.341 OA
ATOM     35  H2  UNL     1      28.367  12.738  20.863  1.00  0.00     0.220 HD
ENDBRANCH  31  34
ENDBRANCH  30  31
ENDBRANCH  29  30
ENDBRANCH  26  29
ENDBRANCH   1  25
BRANCH   2  36
HETATM   36  C9  UNL     1      24.654  10.295  18.377  1.00  0.00     0.241 C 
HETATM   37  O4  UNL     1      24.475   9.475  19.267  1.00  0.00    -0.306 OA
ENDBRANCH   2  36
TORSDOF 7
ENDMDL
MODEL 3
REMARK VINA RESULT: -8.453901155      1.426      1.877
REMARK  7 active torsions:
REMARK  status: ('A' for Active; 'I' for Inactive)
REMARK    1  A    between atoms: O1_2  and  C2_3 
REMARK    2  A    between atoms: C2_3  and  O2_4 
REMARK    3  A    between atoms: C2_3  and  C3_6 
REMARK    4  A    between atoms: C3_6  and  C4_7 
REMARK    5  A    between atoms: C4_7  and  C5_8 
REMARK       I    between atoms: C5_8  and  N1_10 
REMARK    6  A    between atoms: N1_10  and  C7_12 
REMARK    7  A    between atoms: C8_13  and  C9_14 
ROOT
HETATM    1  C7  UNL     1      25.485   8.858  17.322  1.00  0.00     0.011 C 
HETATM    2  C8  UNL     1      24.002   9.130  17.546  1.00  0.00     0.094 C 
HETATM    3  C10 UNL     1      23.157   8.032  16.968  1.00  0.00     0.027 C 
HETATM    4  C11 UNL     1      23.713   7.645  15.584  1.00  0.00    -0.033 C 
HETATM    5  C12 UNL     1      23.222   8.590  14.523  1.00  0.00     0.011 C 
HETATM    6  C13 UNL     1      22.075   8.192  13.707  1.00  0.00     0.020 C 
HETATM    7  C14 UNL     1      21.915   7.112  12.776  1.00  0.00     0.043 C 
HETATM    8  C15 UNL     1      22.464   7.535  11.395  1.00  0.00     0.026 C 
HETATM    9  C16 UNL     1      20.458   6.936  12.503  1.00  0.00     0.230 C 
HETATM   10  O5  UNL     1      19.686   7.866  12.801  1.00  0.00    -0.272 OA
HETATM   11  N2  UNL     1      19.947   5.756  11.924  1.00  0.00    -0.340 N 
ATOM     12  H2  UNL     1      19.291   5.785  11.144  1.00  0.00     0.167 HD
HETATM   13  C17 UNL     1      20.352   4.625  12.432  1.00  0.00     0.064 C 
HETATM   14  C18 UNL     1      21.304   4.777  13.563  1.00  0.00     0.052 C 
HETATM   15  C19 UNL     1      22.401   5.693  13.109  1.00  0.00     0.031 C 
HETATM   16  C20 UNL     1      23.503   5.877  14.016  1.00  0.00     0.043 C 
HETATM   17 CL1  UNL     1      24.579   6.829  12.969  1.00  0.00    -0.119 Cl
HETATM   18  C21 UNL     1      24.506   4.948  14.520  1.00  0.00     0.026 C 
HETATM   19  C22 UNL     1      25.551   5.894  15.162  1.00  0.00     0.008 C 
HETATM   20  C23 UNL     1      25.124   7.226  15.595  1.00  0.00     0.008 C 
HETATM   21  C24 UNL     1      25.796   7.468  17.005  1.00  0.00    -0.004 C 
HETATM   22  C25 UNL     1      25.490   6.359  17.908  1.00  0.00     0.021 C 
HETATM   23  C26 UNL     1      27.297   7.367  16.679  1.00  0.00     0.021 C 
HETATM   24  C27 UNL     1      22.920   6.404  15.259  1.00  0.00     0.036 C 
ENDROOT
BRANCH   1  25
HETATM   25  N1  UNL     1      26.243   9.729  18.090  1.00  0.00    -0.325 N 
HETATM   26  C5  UNL     1      26.923  10.930  17.970  1.00  0.00     0.247 C 
HETATM   27  O3  UNL     1      27.570  11.335  19.002  1.00  0.00    -0.268 OA
HETATM   28  C6  UNL     1      26.423   9.212  19.519  1.00  0.00     0.159 C 
BRANCH  26  29
HETATM   29  C4  UNL     1      27.008  11.793  16.843  1.00  0.00     0.079 C 
BRANCH  29  30
HETATM   30  C3  UNL     1      27.928  12.611  16.430  1.00  0.00     0.069 C 
BRANCH  30  31
HETATM   31  C2  UNL     1      28.250  13.973  16.713  1.00  0.00     0.177 C 
BRANCH  31  32
HETATM   32  O1  UNL     1      28.569  14.995  15.847  1.00  0.00    -0.336 OA
HETATM   33  C1  UNL     1      28.264  15.037  14.487  1.00  0.00     0.212 C 
ENDBRANCH  31  32
BRANCH  31  34
HETATM   34  O2  UNL     1      28.265  14.381  17.959  1.00  0.00    -0.341 OA
ATOM     35  H2  UNL     1      29.146  14.380  18.313  1.00  0.00     0.220 HD
ENDBRANCH  31  34
ENDBRANCH  30  31
ENDBRANCH  29  30
ENDBRANCH  26  29
ENDBRANCH   1  25
BRANCH   2  36
HETATM   36  C9  UNL     1      23.591   9.403  18.912  1.00  0.00     0.241 C 
HETATM   37  O4  UNL     1      22.785   8.664  19.457  1.00  0.00    -0.306 OA
ENDBRANCH   2  36
TORSDOF 7
ENDMDL
MODEL 4
REMARK VINA RESULT: -8.423474077      2.910      4.307
REMARK  7 active torsions:
REMARK  status: ('A' for Active; 'I' for Inactive)
REMARK    1  A    between atoms: O1_2  and  C2_3 
REMARK    2  A    between atoms: C2_3  and  O2_4 
REMARK    3  A    between atoms: C2_3  and  C3_6 
REMARK    4  A    between atoms: C3_6  and  C4_7 
REMARK    5  A    between atoms: C4_7  and  C5_8 
REMARK       I    between atoms: C5_8  and  N1_10 
REMARK    6  A    between atoms: N1_10  and  C7_12 
REMARK    7  A    between atoms: C8_13  and  C9_14 
ROOT
HETATM    1  C7  UNL     1      26.151   7.726  17.233  1.00  0.00     0.011 C 
HETATM    2  C8  UNL     1      26.426   8.677  16.073  1.00  0.00     0.094 C 
HETATM    3  C10 UNL     1      25.160   9.022  15.344  1.00  0.00     0.027 C 
HETATM    4  C11 UNL     1      24.318   7.744  15.167  1.00  0.00    -0.033 C 
HETATM    5  C12 UNL     1      24.790   6.949  13.981  1.00  0.00     0.011 C 
HETATM    6  C13 UNL     1      24.075   7.092  12.713  1.00  0.00     0.020 C 
HETATM    7  C14 UNL     1      22.725   6.766  12.355  1.00  0.00     0.043 C 
HETATM    8  C15 UNL     1      22.635   5.270  11.977  1.00  0.00     0.026 C 
HETATM    9  C16 UNL     1      22.402   7.443  11.065  1.00  0.00     0.230 C 
HETATM   10  O5  UNL     1      23.345   7.859  10.366  1.00  0.00    -0.272 OA
HETATM   11  N2  UNL     1      21.072   7.619  10.628  1.00  0.00    -0.340 N 
ATOM     12  H2  UNL     1      20.788   7.388   9.676  1.00  0.00     0.167 HD
HETATM   13  C17 UNL     1      20.223   8.090  11.498  1.00  0.00     0.064 C 
HETATM   14  C18 UNL     1      20.815   8.370  12.831  1.00  0.00     0.052 C 
HETATM   15  C19 UNL     1      21.545   7.136  13.269  1.00  0.00     0.031 C 
HETATM   16  C20 UNL     1      22.092   7.148  14.599  1.00  0.00     0.043 C 
HETATM   17 CL1  UNL     1      22.639   5.460  14.700  1.00  0.00    -0.119 Cl
HETATM   18  C21 UNL     1      21.452   7.216  15.907  1.00  0.00     0.026 C 
HETATM   19  C22 UNL     1      22.608   6.847  16.869  1.00  0.00     0.008 C 
HETATM   20  C23 UNL     1      23.988   7.057  16.427  1.00  0.00     0.008 C 
HETATM   21  C24 UNL     1      24.756   7.688  17.656  1.00  0.00    -0.004 C 
HETATM   22  C25 UNL     1      24.041   8.866  18.146  1.00  0.00     0.021 C 
HETATM   23  C26 UNL     1      24.603   6.602  18.735  1.00  0.00     0.021 C 
HETATM   24  C27 UNL     1      23.012   8.294  14.648  1.00  0.00     0.036 C 
ENDROOT
BRANCH   1  25
HETATM   25  N1  UNL     1      27.272   7.640  18.045  1.00  0.00    -0.325 N 
HETATM   26  C5  UNL     1      27.744   8.124  19.254  1.00  0.00     0.247 C 
HETATM   27  O3  UNL     1      28.942   7.797  19.581  1.00  0.00    -0.268 OA
HETATM   28  C6  UNL     1      28.357   6.760  17.419  1.00  0.00     0.159 C 
BRANCH  26  29
HETATM   29  C4  UNL     1      27.076   8.947  20.203  1.00  0.00     0.079 C 
BRANCH  29  30
HETATM   30  C3  UNL     1      27.018  10.233  20.364  1.00  0.00     0.069 C 
BRANCH  30  31
HETATM   31  C2  UNL     1      27.987  11.283  20.359  1.00  0.00     0.177 C 
BRANCH  31  32
HETATM   32  O1  UNL     1      28.515  11.992  21.414  1.00  0.00    -0.336 OA
HETATM   33  C1  UNL     1      28.445  11.627  22.758  1.00  0.00     0.212 C 
ENDBRANCH  31  32
BRANCH  31  34
HETATM   34  O2  UNL     1      28.491  11.681  19.216  1.00  0.00    -0.341 OA
ATOM     35  H2  UNL     1      27.889  11.522  18.498  1.00  0.00     0.220 HD
ENDBRANCH  31  34
ENDBRANCH  30  31
ENDBRANCH  29  30
ENDBRANCH  26  29
ENDBRANCH   1  25
BRANCH   2  36
HETATM   36  C9  UNL     1      27.162   9.888  16.388  1.00  0.00     0.241 C 
HETATM   37  O4  UNL     1      26.576  10.834  16.896  1.00  0.00    -0.306 OA
ENDBRANCH   2  36
TORSDOF 7
ENDMDL
MODEL 5
REMARK VINA RESULT: -8.169790608      1.722      2.274
REMARK  7 active torsions:
REMARK  status: ('A' for Active; 'I' for Inactive)
REMARK    1  A    between atoms: O1_2  and  C2_3 
REMARK    2  A    between atoms: C2_3  and  O2_4 
REMARK    3  A    between atoms: C2_3  and  C3_6 
REMARK    4  A    between atoms: C3_6  and  C4_7 
REMARK    5  A    between atoms: C4_7  and  C5_8 
REMARK       I    between atoms: C5_8  and  N1_10 
REMARK    6  A    between atoms: N1_10  and  C7_12 
REMARK    7  A    between atoms: C8_13  and  C9_14 
ROOT
HETATM    1  C7  UNL     1      25.578   8.885  17.266  1.00  0.00     0.011 C 
HETATM    2  C8  UNL     1      24.100   9.175  17.507  1.00  0.00     0.094 C 
HETATM    3  C10 UNL     1      23.236   8.085  16.945  1.00  0.00     0.027 C 
HETATM    4  C11 UNL     1      23.770   7.685  15.557  1.00  0.00    -0.033 C 
HETATM    5  C12 UNL     1      23.276   8.631  14.497  1.00  0.00     0.011 C 
HETATM    6  C13 UNL     1      22.114   8.242  13.698  1.00  0.00     0.020 C 
HETATM    7  C14 UNL     1      21.929   7.160  12.774  1.00  0.00     0.043 C 
HETATM    8  C15 UNL     1      22.466   7.569  11.384  1.00  0.00     0.026 C 
HETATM    9  C16 UNL     1      20.468   6.998  12.521  1.00  0.00     0.230 C 
HETATM   10  O5  UNL     1      19.710   7.939  12.824  1.00  0.00    -0.272 OA
HETATM   11  N2  UNL     1      19.936   5.821  11.954  1.00  0.00    -0.340 N 
ATOM     12  H2  UNL     1      19.270   5.854  11.182  1.00  0.00     0.167 HD
HETATM   13  C17 UNL     1      20.335   4.689  12.463  1.00  0.00     0.064 C 
HETATM   14  C18 UNL     1      21.302   4.835  13.580  1.00  0.00     0.052 C 
HETATM   15  C19 UNL     1      22.404   5.736  13.108  1.00  0.00     0.031 C 
HETATM   16  C20 UNL     1      23.519   5.911  14.000  1.00  0.00     0.043 C 
HETATM   17 CL1  UNL     1      24.593   6.847  12.935  1.00  0.00    -0.119 Cl
HETATM   18  C21 UNL     1      24.518   4.974  14.496  1.00  0.00     0.026 C 
HETATM   19  C22 UNL     1      25.582   5.910  15.119  1.00  0.00     0.008 C 
HETATM   20  C23 UNL     1      25.176   7.249  15.552  1.00  0.00     0.008 C 
HETATM   21  C24 UNL     1      25.869   7.491  16.952  1.00  0.00    -0.004 C 
HETATM   22  C25 UNL     1      25.562   6.390  17.863  1.00  0.00     0.021 C 
HETATM   23  C26 UNL     1      27.364   7.371  16.607  1.00  0.00     0.021 C 
HETATM   24  C27 UNL     1      22.959   6.451  15.247  1.00  0.00     0.036 C 
ENDROOT
BRANCH   1  25
HETATM   25  N1  UNL     1      26.355   9.751  18.020  1.00  0.00    -0.325 N 
HETATM   26  C5  UNL     1      26.935  11.006  17.929  1.00  0.00     0.247 C 
HETATM   27  O3  UNL     1      27.663  11.380  18.918  1.00  0.00    -0.268 OA
HETATM   28  C6  UNL     1      26.726   9.144  19.375  1.00  0.00     0.159 C 
BRANCH  26  29
HETATM   29  C4  UNL     1      26.837  11.956  16.875  1.00  0.00     0.079 C 
BRANCH  29  30
HETATM   30  C3  UNL     1      27.728  12.557  16.148  1.00  0.00     0.069 C 
BRANCH  30  31
HETATM   31  C2  UNL     1      28.954  12.153  15.537  1.00  0.00     0.177 C 
BRANCH  31  32
HETATM   32  O1  UNL     1      30.151  11.806  16.122  1.00  0.00    -0.336 OA
HETATM   33  C1  UNL     1      30.530  10.520  16.505  1.00  0.00     0.212 C 
ENDBRANCH  31  32
BRANCH  31  34
HETATM   34  O2  UNL     1      29.022  12.078  14.230  1.00  0.00    -0.341 OA
ATOM     35  H2  UNL     1      28.501  11.357  13.896  1.00  0.00     0.220 HD
ENDBRANCH  31  34
ENDBRANCH  30  31
ENDBRANCH  29  30
ENDBRANCH  26  29
ENDBRANCH   1  25
BRANCH   2  36
HETATM   36  C9  UNL     1      23.711   9.460  18.877  1.00  0.00     0.241 C 
HETATM   37  O4  UNL     1      22.932   8.711  19.449  1.00  0.00    -0.306 OA
ENDBRANCH   2  36
TORSDOF 7
ENDMDL
