MODEL 1
REMARK VINA RESULT: -8.071015528      0.000      0.000
REMARK  5 active torsions:
REMARK  status: ('A' for Active; 'I' for Inactive)
REMARK    1  A    between atoms: C2_2  and  C3_3 
REMARK    2  A    between atoms: C3_3  and  C4_4 
REMARK       I    between atoms: N3_16  and  C11_17 
REMARK    3  A    between atoms: C11_17  and  C12_19 
REMARK    4  A    between atoms: N4_22  and  C15_23 
REMARK    5  A    between atoms: C15_23  and  C16_24 
ROOT
HETATM    1  C4  UNL     1      27.976  12.697  17.019  1.00  0.00     0.083 A 
HETATM    2  N1  UNL     1      28.101  12.181  18.249  1.00  0.00    -0.349 N 
ATOM      3  H1  UNL     1      28.629  12.706  18.946  1.00  0.00     0.167 HD
HETATM    4  C5  UNL     1      27.562  11.003  18.608  1.00  0.00     0.017 A 
HETATM    5  C6  UNL     1      27.700  10.427  19.976  1.00  0.00     0.069 C 
HETATM    6  C7  UNL     1      26.829  10.250  17.679  1.00  0.00     0.016 A 
HETATM    7  C8  UNL     1      26.710  10.791  16.424  1.00  0.00     0.152 A 
HETATM    8  N2  UNL     1      27.276  11.984  16.123  1.00  0.00    -0.326 N 
ATOM      9  H2  UNL     1      27.166  12.354  15.179  1.00  0.00     0.169 HD
HETATM   10  O1  UNL     1      25.988  10.081  15.460  1.00  0.00    -0.327 OA
HETATM   11  C9  UNL     1      25.015   9.179  15.946  1.00  0.00     0.164 C 
HETATM   12  C10 UNL     1      24.416   8.383  14.804  1.00  0.00     0.185 C 
HETATM   13  N3  UNL     1      23.400   7.508  15.348  1.00  0.00    -0.253 N 
HETATM   14  C11 UNL     1      22.158   7.415  14.720  1.00  0.00     0.241 C 
HETATM   15  O2  UNL     1      21.279   6.652  15.190  1.00  0.00    -0.271 OA
HETATM   16  N4  UNL     1      23.697   6.755  16.507  1.00  0.00    -0.252 N 
HETATM   17  C22 UNL     1      24.895   7.118  17.235  1.00  0.00     0.245 C 
HETATM   18  O3  UNL     1      25.229   6.457  18.278  1.00  0.00    -0.271 OA
HETATM   19  C23 UNL     1      25.768   8.220  16.845  1.00  0.00     0.115 C 
HETATM   20  C24 UNL     1      26.237   8.951  18.081  1.00  0.00     0.062 C 
ENDROOT
BRANCH  16  21
HETATM   21  C15 UNL     1      22.950   5.669  17.023  1.00  0.00     0.191 C 
BRANCH  21  22
HETATM   22  C16 UNL     1      22.181   5.897  18.237  1.00  0.00    -0.037 A 
HETATM   23  C17 UNL     1      21.961   7.179  18.670  1.00  0.00     0.009 A 
HETATM   24  C18 UNL     1      21.222   7.446  19.821  1.00  0.00     0.002 A 
HETATM   25  C19 UNL     1      20.704   6.395  20.531  1.00  0.00     0.019 A 
HETATM   26  C20 UNL     1      20.921   5.114  20.101  1.00  0.00     0.011 A 
HETATM   27 BR1  UNL     1      20.163   3.698  21.149  1.00  0.00    -0.051 Br
HETATM   28  C21 UNL     1      21.652   4.872  18.965  1.00  0.00     0.028 A 
ENDBRANCH  21  22
ENDBRANCH  16  21
BRANCH  14  29
HETATM   29  C12 UNL     1      21.761   8.159  13.507  1.00  0.00     0.071 C 
HETATM   30  C13 UNL     1      22.267   7.595  12.221  1.00  0.00     0.019 C 
HETATM   31  C14 UNL     1      20.247   8.405  13.473  1.00  0.00     0.019 C 
ENDBRANCH  14  29
BRANCH   1  32
HETATM   32  C3  UNL     1      28.597  14.009  16.679  1.00  0.00     0.076 C 
BRANCH  32  33
HETATM   33  C2  UNL     1      27.726  14.762  15.667  1.00  0.00     0.003 C 
HETATM   34  C1  UNL     1      28.418  14.836  14.326  1.00  0.00     0.005 C 
ENDBRANCH  32  33
ENDBRANCH   1  32
TORSDOF 5
ENDMDL
MODEL 2
REMARK VINA RESULT: -7.717411853      4.215      8.640
REMARK  5 active torsions:
REMARK  status: ('A' for Active; 'I' for Inactive)
REMARK    1  A    between atoms: C2_2  and  C3_3 
REMARK    2  A    between atoms: C3_3  and  C4_4 
REMARK       I    between atoms: N3_16  and  C11_17 
REMARK    3  A    between atoms: C11_17  and  C12_19 
REMARK    4  A    between atoms: N4_22  and  C15_23 
REMARK    5  A    between atoms: C15_23  and  C16_24 
ROOT
HETATM    1  C4  UNL     1      22.373   7.233  14.453  1.00  0.00     0.083 A 
HETATM    2  N1  UNL     1      23.065   6.094  14.594  1.00  0.00    -0.349 N 
ATOM      3  H1  UNL     1      22.650   5.227  14.256  1.00  0.00     0.167 HD
HETATM    4  C5  UNL     1      24.283   6.043  15.162  1.00  0.00     0.017 A 
HETATM    5  C6  UNL     1      25.055   4.778  15.320  1.00  0.00     0.069 C 
HETATM    6  C7  UNL     1      24.888   7.215  15.640  1.00  0.00     0.016 A 
HETATM    7  C8  UNL     1      24.167   8.372  15.488  1.00  0.00     0.152 A 
HETATM    8  N2  UNL     1      22.944   8.359  14.907  1.00  0.00    -0.326 N 
ATOM      9  H2  UNL     1      22.437   9.239  14.812  1.00  0.00     0.169 HD
HETATM   10  O1  UNL     1      24.726   9.568  15.947  1.00  0.00    -0.327 OA
HETATM   11  C9  UNL     1      26.136   9.609  16.029  1.00  0.00     0.164 C 
HETATM   12  C10 UNL     1      26.589  10.905  16.671  1.00  0.00     0.185 C 
HETATM   13  N3  UNL     1      28.036  10.915  16.693  1.00  0.00    -0.253 N 
HETATM   14  C11 UNL     1      28.727  12.058  16.290  1.00  0.00     0.241 C 
HETATM   15  O2  UNL     1      29.981  12.068  16.314  1.00  0.00    -0.271 OA
HETATM   16  N4  UNL     1      28.720   9.760  17.136  1.00  0.00    -0.252 N 
HETATM   17  C22 UNL     1      27.940   8.548  17.270  1.00  0.00     0.245 C 
HETATM   18  O3  UNL     1      28.498   7.476  17.691  1.00  0.00    -0.271 OA
HETATM   19  C23 UNL     1      26.519   8.468  16.948  1.00  0.00     0.115 C 
HETATM   20  C24 UNL     1      26.232   7.152  16.265  1.00  0.00     0.062 C 
ENDROOT
BRANCH  16  21
HETATM   21  C15 UNL     1      30.092   9.668  17.476  1.00  0.00     0.191 C 
BRANCH  21  22
HETATM   22  C16 UNL     1      31.020   9.272  16.429  1.00  0.00    -0.037 A 
HETATM   23  C17 UNL     1      30.544   8.688  15.284  1.00  0.00     0.009 A 
HETATM   24  C18 UNL     1      31.394   8.302  14.250  1.00  0.00     0.002 A 
HETATM   25  C19 UNL     1      32.740   8.517  14.389  1.00  0.00     0.019 A 
HETATM   26  C20 UNL     1      33.220   9.100  15.529  1.00  0.00     0.011 A 
HETATM   27 BR1  UNL     1      35.115   9.367  15.647  1.00  0.00    -0.051 Br
HETATM   28  C21 UNL     1      32.365   9.473  16.537  1.00  0.00     0.028 A 
ENDBRANCH  21  22
ENDBRANCH  16  21
BRANCH  14  29
HETATM   29  C12 UNL     1      28.097  13.309  15.818  1.00  0.00     0.071 C 
HETATM   30  C13 UNL     1      27.837  14.329  16.875  1.00  0.00     0.019 C 
HETATM   31  C14 UNL     1      28.856  13.898  14.621  1.00  0.00     0.019 C 
ENDBRANCH  14  29
BRANCH   1  32
HETATM   32  C3  UNL     1      21.025   7.227  13.815  1.00  0.00     0.076 C 
BRANCH  32  33
HETATM   33  C2  UNL     1      20.758   8.570  13.125  1.00  0.00     0.003 C 
HETATM   34  C1  UNL     1      20.231   8.350  11.727  1.00  0.00     0.005 C 
ENDBRANCH  32  33
ENDBRANCH   1  32
TORSDOF 5
ENDMDL
MODEL 3
REMARK VINA RESULT: -7.505521558      1.889      2.510
REMARK  5 active torsions:
REMARK  status: ('A' for Active; 'I' for Inactive)
REMARK    1  A    between atoms: C2_2  and  C3_3 
REMARK    2  A    between atoms: C3_3  and  C4_4 
REMARK       I    between atoms: N3_16  and  C11_17 
REMARK    3  A    between atoms: C11_17  and  C12_19 
REMARK    4  A    between atoms: N4_22  and  C15_23 
REMARK    5  A    between atoms: C15_23  and  C16_24 
ROOT
HETATM    1  C4  UNL     1      28.014  12.330  16.925  1.00  0.00     0.083 A 
HETATM    2  N1  UNL     1      27.939  11.966  18.214  1.00  0.00    -0.349 N 
ATOM      3  H1  UNL     1      28.454  12.512  18.904  1.00  0.00     0.167 HD
HETATM    4  C5  UNL     1      27.215  10.916  18.637  1.00  0.00     0.017 A 
HETATM    5  C6  UNL     1      27.130  10.510  20.069  1.00  0.00     0.069 C 
HETATM    6  C7  UNL     1      26.493  10.140  17.718  1.00  0.00     0.016 A 
HETATM    7  C8  UNL     1      26.580  10.524  16.405  1.00  0.00     0.152 A 
HETATM    8  N2  UNL     1      27.326  11.593  16.039  1.00  0.00    -0.326 N 
ATOM      9  H2  UNL     1      27.367  11.848  15.053  1.00  0.00     0.169 HD
HETATM   10  O1  UNL     1      25.878   9.784  15.449  1.00  0.00    -0.327 OA
HETATM   11  C9  UNL     1      24.749   9.072  15.913  1.00  0.00     0.164 C 
HETATM   12  C10 UNL     1      24.176   8.211  14.806  1.00  0.00     0.185 C 
HETATM   13  N3  UNL     1      23.003   7.538  15.319  1.00  0.00    -0.253 N 
HETATM   14  C11 UNL     1      21.833   7.510  14.559  1.00  0.00     0.241 C 
HETATM   15  O2  UNL     1      20.817   6.922  15.003  1.00  0.00    -0.271 OA
HETATM   16  N4  UNL     1      23.073   6.912  16.584  1.00  0.00    -0.252 N 
HETATM   17  C22 UNL     1      24.224   7.224  17.406  1.00  0.00     0.245 C 
HETATM   18  O3  UNL     1      24.356   6.669  18.551  1.00  0.00    -0.271 OA
HETATM   19  C23 UNL     1      25.270   8.157  17.001  1.00  0.00     0.115 C 
HETATM   20  C24 UNL     1      25.696   8.981  18.192  1.00  0.00     0.062 C 
ENDROOT
BRANCH  16  21
HETATM   21  C15 UNL     1      22.140   5.996  17.127  1.00  0.00     0.191 C 
BRANCH  21  22
HETATM   22  C16 UNL     1      22.413   4.577  16.960  1.00  0.00    -0.037 A 
HETATM   23  C17 UNL     1      22.342   3.739  18.042  1.00  0.00     0.009 A 
HETATM   24  C18 UNL     1      22.585   2.373  17.927  1.00  0.00     0.002 A 
HETATM   25  C19 UNL     1      22.900   1.860  16.696  1.00  0.00     0.019 A 
HETATM   26  C20 UNL     1      22.971   2.693  15.613  1.00  0.00     0.011 A 
HETATM   27 BR1  UNL     1      23.417   1.900  13.925  1.00  0.00    -0.051 Br
HETATM   28  C21 UNL     1      22.728   4.038  15.747  1.00  0.00     0.028 A 
ENDBRANCH  21  22
ENDBRANCH  16  21
BRANCH  14  29
HETATM   29  C12 UNL     1      21.669   8.131  13.229  1.00  0.00     0.071 C 
HETATM   30  C13 UNL     1      22.070   7.277  12.073  1.00  0.00     0.019 C 
HETATM   31  C14 UNL     1      20.260   8.713  13.055  1.00  0.00     0.019 C 
ENDBRANCH  14  29
BRANCH   1  32
HETATM   32  C3  UNL     1      28.834  13.505  16.515  1.00  0.00     0.076 C 
BRANCH  32  33
HETATM   33  C2  UNL     1      27.955  14.546  15.811  1.00  0.00     0.003 C 
HETATM   34  C1  UNL     1      28.434  14.772  14.397  1.00  0.00     0.005 C 
ENDBRANCH  32  33
ENDBRANCH   1  32
TORSDOF 5
ENDMDL
MODEL 4
REMARK VINA RESULT: -7.482861285      5.137      7.121
REMARK  5 active torsions:
REMARK  status: ('A' for Active; 'I' for Inactive)
REMARK    1  A    between atoms: C2_2  and  C3_3 
REMARK    2  A    between atoms: C3_3  and  C4_4 
REMARK       I    between atoms: N3_16  and  C11_17 
REMARK    3  A    between atoms: C11_17  and  C12_19 
REMARK    4  A    between atoms: N4_22  and  C15_23 
REMARK    5  A    between atoms: C15_23  and  C16_24 
ROOT
HETATM    1  C4  UNL     1      34.990   8.553  16.699  1.00  0.00     0.083 A 
HETATM    2  N1  UNL     1      34.596   7.737  17.687  1.00  0.00    -0.349 N 
ATOM      3  H1  UNL     1      35.296   7.151  18.142  1.00  0.00     0.167 HD
HETATM    4  C5  UNL     1      33.321   7.655  18.105  1.00  0.00     0.017 A 
HETATM    5  C6  UNL     1      32.881   6.748  19.202  1.00  0.00     0.069 C 
HETATM    6  C7  UNL     1      32.330   8.444  17.503  1.00  0.00     0.016 A 
HETATM    7  C8  UNL     1      32.748   9.274  16.495  1.00  0.00     0.152 A 
HETATM    8  N2  UNL     1      34.048   9.312  16.118  1.00  0.00    -0.326 N 
ATOM      9  H2  UNL     1      34.321   9.942  15.364  1.00  0.00     0.169 HD
HETATM   10  O1  UNL     1      31.798  10.082  15.863  1.00  0.00    -0.327 OA
HETATM   11  C9  UNL     1      30.643  10.395  16.615  1.00  0.00     0.164 C 
HETATM   12  C10 UNL     1      29.647  11.152  15.760  1.00  0.00     0.185 C 
HETATM   13  N3  UNL     1      28.505  11.483  16.585  1.00  0.00    -0.253 N 
HETATM   14  C11 UNL     1      27.976  12.773  16.549  1.00  0.00     0.241 C 
HETATM   15  O2  UNL     1      26.982  13.059  17.261  1.00  0.00    -0.271 OA
HETATM   16  N4  UNL     1      27.942  10.480  17.406  1.00  0.00    -0.252 N 
HETATM   17  C22 UNL     1      28.715   9.268  17.582  1.00  0.00     0.245 C 
HETATM   18  O3  UNL     1      28.247   8.314  18.294  1.00  0.00    -0.271 OA
HETATM   19  C23 UNL     1      30.029   9.060  16.983  1.00  0.00     0.115 C 
HETATM   20  C24 UNL     1      30.924   8.349  17.969  1.00  0.00     0.062 C 
ENDROOT
BRANCH  16  21
HETATM   21  C15 UNL     1      26.691  10.531  18.066  1.00  0.00     0.191 C 
BRANCH  21  22
HETATM   22  C16 UNL     1      25.606   9.735  17.514  1.00  0.00    -0.037 A 
HETATM   23  C17 UNL     1      24.639   9.234  18.347  1.00  0.00     0.009 A 
HETATM   24  C18 UNL     1      23.576   8.475  17.861  1.00  0.00     0.002 A 
HETATM   25  C19 UNL     1      23.501   8.231  16.515  1.00  0.00     0.019 A 
HETATM   26  C20 UNL     1      24.464   8.730  15.680  1.00  0.00     0.011 A 
HETATM   27 BR1  UNL     1      24.288   8.344  13.810  1.00  0.00    -0.051 Br
HETATM   28  C21 UNL     1      25.504   9.475  16.178  1.00  0.00     0.028 A 
ENDBRANCH  21  22
ENDBRANCH  16  21
BRANCH  14  29
HETATM   29  C12 UNL     1      28.494  13.882  15.720  1.00  0.00     0.071 C 
HETATM   30  C13 UNL     1      28.856  13.514  14.321  1.00  0.00     0.019 C 
HETATM   31  C14 UNL     1      27.563  15.101  15.775  1.00  0.00     0.019 C 
ENDBRANCH  14  29
BRANCH   1  32
HETATM   32  C3  UNL     1      36.419   8.601  16.278  1.00  0.00     0.076 C 
BRANCH  32  33
HETATM   33  C2  UNL     1      36.536   9.170  14.859  1.00  0.00     0.003 C 
HETATM   34  C1  UNL     1      37.108   8.135  13.920  1.00  0.00     0.005 C 
ENDBRANCH  32  33
ENDBRANCH   1  32
TORSDOF 5
ENDMDL
MODEL 5
REMARK VINA RESULT: -7.445880243      3.075      5.512
REMARK  5 active torsions:
REMARK  status: ('A' for Active; 'I' for Inactive)
REMARK    1  A    between atoms: C2_2  and  C3_3 
REMARK    2  A    between atoms: C3_3  and  C4_4 
REMARK       I    between atoms: N3_16  and  C11_17 
REMARK    3  A    between atoms: C11_17  and  C12_19 
REMARK    4  A    between atoms: N4_22  and  C15_23 
REMARK    5  A    between atoms: C15_23  and  C16_24 
ROOT
HETATM    1  C4  UNL     1      26.611   9.857  20.111  1.00  0.00     0.083 A 
HETATM    2  N1  UNL     1      27.354  10.269  19.074  1.00  0.00    -0.349 N 
ATOM      3  H1  UNL     1      28.225  10.763  19.266  1.00  0.00     0.167 HD
HETATM    4  C5  UNL     1      27.005  10.060  17.793  1.00  0.00     0.017 A 
HETATM    5  C6  UNL     1      27.830  10.518  16.639  1.00  0.00     0.069 C 
HETATM    6  C7  UNL     1      25.815   9.384  17.488  1.00  0.00     0.016 A 
HETATM    7  C8  UNL     1      25.065   8.969  18.559  1.00  0.00     0.152 A 
HETATM    8  N2  UNL     1      25.470   9.209  19.828  1.00  0.00    -0.326 N 
ATOM      9  H2  UNL     1      24.886   8.885  20.599  1.00  0.00     0.169 HD
HETATM   10  O1  UNL     1      23.869   8.289  18.308  1.00  0.00    -0.327 OA
HETATM   11  C9  UNL     1      23.778   7.619  17.068  1.00  0.00     0.164 C 
HETATM   12  C10 UNL     1      22.386   7.051  16.876  1.00  0.00     0.185 C 
HETATM   13  N3  UNL     1      22.357   6.343  15.615  1.00  0.00    -0.253 N 
HETATM   14  C11 UNL     1      21.781   5.074  15.547  1.00  0.00     0.241 C 
HETATM   15  O2  UNL     1      21.753   4.462  14.451  1.00  0.00    -0.271 OA
HETATM   16  N4  UNL     1      22.910   6.962  14.471  1.00  0.00    -0.252 N 
HETATM   17  C22 UNL     1      23.719   8.143  14.692  1.00  0.00     0.245 C 
HETATM   18  O3  UNL     1      24.225   8.762  13.694  1.00  0.00    -0.271 OA
HETATM   19  C23 UNL     1      24.001   8.686  16.017  1.00  0.00     0.115 C 
HETATM   20  C24 UNL     1      25.434   9.157  16.072  1.00  0.00     0.062 C 
ENDROOT
BRANCH  16  21
HETATM   21  C15 UNL     1      22.743   6.555  13.125  1.00  0.00     0.191 C 
BRANCH  21  22
HETATM   22  C16 UNL     1      21.523   6.962  12.446  1.00  0.00    -0.037 A 
HETATM   23  C17 UNL     1      21.033   8.229  12.630  1.00  0.00     0.009 A 
HETATM   24  C18 UNL     1      19.874   8.665  11.991  1.00  0.00     0.002 A 
HETATM   25  C19 UNL     1      19.215   7.801  11.158  1.00  0.00     0.019 A 
HETATM   26  C20 UNL     1      19.701   6.536  10.971  1.00  0.00     0.011 A 
HETATM   27 BR1  UNL     1      18.721   5.386   9.789  1.00  0.00    -0.051 Br
HETATM   28  C21 UNL     1      20.845   6.124  11.609  1.00  0.00     0.028 A 
ENDBRANCH  21  22
ENDBRANCH  16  21
BRANCH  14  29
HETATM   29  C12 UNL     1      21.177   4.353  16.686  1.00  0.00     0.071 C 
HETATM   30  C13 UNL     1      19.916   3.618  16.378  1.00  0.00     0.019 C 
HETATM   31  C14 UNL     1      22.208   3.460  17.390  1.00  0.00     0.019 C 
ENDBRANCH  14  29
BRANCH   1  32
HETATM   32  C3  UNL     1      27.050  10.118  21.511  1.00  0.00     0.076 C 
BRANCH  32  33
HETATM   33  C2  UNL     1      28.211  11.121  21.525  1.00  0.00     0.003 C 
HETATM   34  C1  UNL     1      28.349  11.750  22.891  1.00  0.00     0.005 C 
ENDBRANCH  32  33
ENDBRANCH   1  32
TORSDOF 5
ENDMDL
