MODEL 1
REMARK VINA RESULT: -9.273573504      0.000      0.000
REMARK  4 active torsions:
REMARK  status: ('A' for Active; 'I' for Inactive)
REMARK    1  A    between atoms: N1_11  and  C8_12 
REMARK    2  A    between atoms: C8_12  and  C9_13 
REMARK    3  A    between atoms: C9_13  and  C10_14 
REMARK    4  A    between atoms: N2_24  and  C18_25 
ROOT
HETATM    1  C1  UNL     1      14.205  46.746  63.529  1.00  0.00     0.048 C 
HETATM    2  C2  UNL     1      13.330  47.126  62.620  1.00  0.00     0.084 A 
HETATM    3  C3  UNL     1      11.935  46.635  62.472  1.00  0.00     0.215 A 
HETATM    4  O1  UNL     1      11.474  45.773  63.250  1.00  0.00    -0.285 OA
HETATM    5  C4  UNL     1      11.283  47.293  61.350  1.00  0.00     0.105 A 
HETATM    6  C5  UNL     1      10.021  47.114  60.885  1.00  0.00     0.108 A 
HETATM    7  C6  UNL     1       9.025  46.203  61.424  1.00  0.00     0.256 A 
HETATM    8  O2  UNL     1       9.100  45.426  62.395  1.00  0.00    -0.281 OA
HETATM    9  C7  UNL     1       7.794  46.320  60.607  1.00  0.00     0.301 A 
HETATM   10  O3  UNL     1       6.728  45.643  60.826  1.00  0.00    -0.263 OA
HETATM   11  N1  UNL     1       8.031  47.269  59.605  1.00  0.00    -0.277 N 
HETATM   12  C16 UNL     1       9.387  47.769  59.757  1.00  0.00     0.266 A 
HETATM   13  O4  UNL     1       9.861  48.629  58.992  1.00  0.00    -0.267 OA
HETATM   14  C17 UNL     1      12.300  48.190  60.819  1.00  0.00     0.268 A 
HETATM   15  O5  UNL     1      12.225  48.983  59.841  1.00  0.00    -0.267 OA
HETATM   16  N2  UNL     1      13.512  48.066  61.603  1.00  0.00    -0.274 N 
ENDROOT
BRANCH  16  17
HETATM   17  C18 UNL     1      14.688  48.829  61.309  1.00  0.00     0.060 A 
HETATM   18  C19 UNL     1      15.340  48.657  60.107  1.00  0.00     0.032 A 
HETATM   19  C20 UNL     1      16.484  49.389  59.815  1.00  0.00     0.009 A 
HETATM   20  C21 UNL     1      17.010  50.307  60.701  1.00  0.00    -0.061 A 
HETATM   21  C22 UNL     1      18.242  51.097  60.392  1.00  0.00     0.048 C 
HETATM   22  C23 UNL     1      16.338  50.463  61.904  1.00  0.00     0.028 A 
HETATM   23  C24 UNL     1      15.199  49.741  62.206  1.00  0.00     0.038 A 
HETATM   24 BR1  UNL     1      14.332  50.009  63.870  1.00  0.00    -0.049 Br
ENDBRANCH  16  17
BRANCH  11  25
HETATM   25  C8  UNL     1       7.095  47.690  58.582  1.00  0.00     0.140 C 
BRANCH  25  26
HETATM   26  C9  UNL     1       7.422  47.293  57.197  1.00  0.00     0.059 C 
BRANCH  26  27
HETATM   27  C10 UNL     1       7.653  48.413  56.253  1.00  0.00    -0.057 A 
HETATM   28  C11 UNL     1       8.211  48.206  55.010  1.00  0.00     0.007 A 
HETATM   29  C12 UNL     1       8.410  49.265  54.155  1.00  0.00     0.001 A 
HETATM   30  C13 UNL     1       8.071  50.570  54.481  1.00  0.00     0.000 A 
HETATM   31  C14 UNL     1       7.516  50.759  55.726  1.00  0.00     0.001 A 
HETATM   32  C15 UNL     1       7.309  49.716  56.591  1.00  0.00     0.007 A 
ENDBRANCH  26  27
ENDBRANCH  25  26
ENDBRANCH  11  25
TORSDOF 4
ENDMDL
MODEL 2
REMARK VINA RESULT: -8.992635732      1.844      7.786
REMARK  4 active torsions:
REMARK  status: ('A' for Active; 'I' for Inactive)
REMARK    1  A    between atoms: N1_11  and  C8_12 
REMARK    2  A    between atoms: C8_12  and  C9_13 
REMARK    3  A    between atoms: C9_13  and  C10_14 
REMARK    4  A    between atoms: N2_24  and  C18_25 
ROOT
HETATM    1  C1  UNL     1       6.944  46.372  60.073  1.00  0.00     0.048 C 
HETATM    2  C2  UNL     1       8.200  46.743  60.219  1.00  0.00     0.084 A 
HETATM    3  C3  UNL     1       9.085  46.444  61.375  1.00  0.00     0.215 A 
HETATM    4  O1  UNL     1       8.666  45.779  62.346  1.00  0.00    -0.285 OA
HETATM    5  C4  UNL     1      10.403  47.026  61.168  1.00  0.00     0.105 A 
HETATM    6  C5  UNL     1      11.481  46.984  61.990  1.00  0.00     0.108 A 
HETATM    7  C6  UNL     1      11.551  46.333  63.288  1.00  0.00     0.256 A 
HETATM    8  O2  UNL     1      10.681  45.687  63.902  1.00  0.00    -0.281 OA
HETATM    9  C7  UNL     1      12.908  46.546  63.844  1.00  0.00     0.301 A 
HETATM   10  O3  UNL     1      13.289  46.095  64.983  1.00  0.00    -0.263 OA
HETATM   11  N1  UNL     1      13.640  47.300  62.919  1.00  0.00    -0.277 N 
HETATM   12  C16 UNL     1      12.786  47.579  61.777  1.00  0.00     0.266 A 
HETATM   13  O4  UNL     1      13.189  48.238  60.800  1.00  0.00    -0.267 OA
HETATM   14  C17 UNL     1      10.307  47.681  59.871  1.00  0.00     0.268 A 
HETATM   15  O5  UNL     1      11.189  48.330  59.243  1.00  0.00    -0.267 OA
HETATM   16  N2  UNL     1       8.977  47.492  59.331  1.00  0.00    -0.274 N 
ENDROOT
BRANCH  16  17
HETATM   17  C18 UNL     1       8.588  48.032  58.062  1.00  0.00     0.060 A 
HETATM   18  C19 UNL     1       8.962  47.396  56.898  1.00  0.00     0.032 A 
HETATM   19  C20 UNL     1       8.594  47.914  55.662  1.00  0.00     0.009 A 
HETATM   20  C21 UNL     1       7.848  49.069  55.547  1.00  0.00    -0.061 A 
HETATM   21  C22 UNL     1       7.450  49.632  54.220  1.00  0.00     0.048 C 
HETATM   22  C23 UNL     1       7.484  49.692  56.731  1.00  0.00     0.028 A 
HETATM   23  C24 UNL     1       7.844  49.187  57.966  1.00  0.00     0.038 A 
HETATM   24 BR1  UNL     1       7.308  50.092  59.543  1.00  0.00    -0.049 Br
ENDBRANCH  16  17
BRANCH  11  25
HETATM   25  C8  UNL     1      15.013  47.740  63.064  1.00  0.00     0.140 C 
BRANCH  25  26
HETATM   26  C9  UNL     1      15.236  49.200  63.042  1.00  0.00     0.059 C 
BRANCH  26  27
HETATM   27  C10 UNL     1      16.185  49.682  62.010  1.00  0.00    -0.057 A 
HETATM   28  C11 UNL     1      17.218  50.540  62.322  1.00  0.00     0.007 A 
HETATM   29  C12 UNL     1      18.083  50.968  61.343  1.00  0.00     0.001 A 
HETATM   30  C13 UNL     1      17.976  50.573  60.017  1.00  0.00     0.000 A 
HETATM   31  C14 UNL     1      16.939  49.717  59.722  1.00  0.00     0.001 A 
HETATM   32  C15 UNL     1      16.067  49.280  60.685  1.00  0.00     0.007 A 
ENDBRANCH  26  27
ENDBRANCH  25  26
ENDBRANCH  11  25
TORSDOF 4
ENDMDL
MODEL 3
REMARK VINA RESULT: -8.826816298      2.264      7.957
REMARK  4 active torsions:
REMARK  status: ('A' for Active; 'I' for Inactive)
REMARK    1  A    between atoms: N1_11  and  C8_12 
REMARK    2  A    between atoms: C8_12  and  C9_13 
REMARK    3  A    between atoms: C9_13  and  C10_14 
REMARK    4  A    between atoms: N2_24  and  C18_25 
ROOT
HETATM    1  C1  UNL     1       6.434  48.128  60.788  1.00  0.00     0.048 C 
HETATM    2  C2  UNL     1       7.750  48.086  60.816  1.00  0.00     0.084 A 
HETATM    3  C3  UNL     1       8.609  47.969  62.024  1.00  0.00     0.215 A 
HETATM    4  O1  UNL     1       8.104  47.898  63.163  1.00  0.00    -0.285 OA
HETATM    5  C4  UNL     1      10.015  47.955  61.646  1.00  0.00     0.105 A 
HETATM    6  C5  UNL     1      11.102  47.871  62.452  1.00  0.00     0.108 A 
HETATM    7  C6  UNL     1      11.096  47.772  63.902  1.00  0.00     0.256 A 
HETATM    8  O2  UNL     1      10.134  47.735  64.692  1.00  0.00    -0.281 OA
HETATM    9  C7  UNL     1      12.500  47.715  64.372  1.00  0.00     0.301 A 
HETATM   10  O3  UNL     1      12.833  47.627  65.608  1.00  0.00    -0.263 OA
HETATM   11  N1  UNL     1      13.334  47.776  63.249  1.00  0.00    -0.277 N 
HETATM   12  C16 UNL     1      12.500  47.871  62.063  1.00  0.00     0.266 A 
HETATM   13  O4  UNL     1      12.987  47.939  60.920  1.00  0.00    -0.267 OA
HETATM   14  C17 UNL     1       9.998  48.066  60.194  1.00  0.00     0.268 A 
HETATM   15  O5  UNL     1      10.970  48.097  59.390  1.00  0.00    -0.267 OA
HETATM   16  N2  UNL     1       8.628  48.141  59.730  1.00  0.00    -0.274 N 
ENDROOT
BRANCH  16  17
HETATM   17  C18 UNL     1       8.302  48.260  58.340  1.00  0.00     0.060 A 
HETATM   18  C19 UNL     1       8.121  49.506  57.778  1.00  0.00     0.032 A 
HETATM   19  C20 UNL     1       7.800  49.631  56.431  1.00  0.00     0.009 A 
HETATM   20  C21 UNL     1       7.651  48.532  55.611  1.00  0.00    -0.061 A 
HETATM   21  C22 UNL     1       7.305  48.661  54.162  1.00  0.00     0.048 C 
HETATM   22  C23 UNL     1       7.837  47.289  56.198  1.00  0.00     0.028 A 
HETATM   23  C24 UNL     1       8.157  47.152  57.536  1.00  0.00     0.038 A 
HETATM   24 BR1  UNL     1       8.397  45.421  58.270  1.00  0.00    -0.049 Br
ENDBRANCH  16  17
BRANCH  11  25
HETATM   25  C8  UNL     1      14.782  47.753  63.252  1.00  0.00     0.140 C 
BRANCH  25  26
HETATM   26  C9  UNL     1      15.454  49.061  63.400  1.00  0.00     0.059 C 
BRANCH  26  27
HETATM   27  C10 UNL     1      16.213  49.522  62.212  1.00  0.00    -0.057 A 
HETATM   28  C11 UNL     1      17.217  50.460  62.315  1.00  0.00     0.007 A 
HETATM   29  C12 UNL     1      17.905  50.867  61.196  1.00  0.00     0.001 A 
HETATM   30  C13 UNL     1      17.638  50.371  59.927  1.00  0.00     0.000 A 
HETATM   31  C14 UNL     1      16.632  49.436  59.841  1.00  0.00     0.001 A 
HETATM   32  C15 UNL     1      15.936  49.019  60.946  1.00  0.00     0.007 A 
ENDBRANCH  26  27
ENDBRANCH  25  26
ENDBRANCH  11  25
TORSDOF 4
ENDMDL
MODEL 4
REMARK VINA RESULT: -8.811752988      1.868      2.402
REMARK  4 active torsions:
REMARK  status: ('A' for Active; 'I' for Inactive)
REMARK    1  A    between atoms: N1_11  and  C8_12 
REMARK    2  A    between atoms: C8_12  and  C9_13 
REMARK    3  A    between atoms: C9_13  and  C10_14 
REMARK    4  A    between atoms: N2_24  and  C18_25 
ROOT
HETATM    1  C1  UNL     1      12.109  45.644  64.217  1.00  0.00     0.048 C 
HETATM    2  C2  UNL     1      11.709  46.159  63.072  1.00  0.00     0.084 A 
HETATM    3  C3  UNL     1      10.690  45.592  62.150  1.00  0.00     0.215 A 
HETATM    4  O1  UNL     1      10.110  44.520  62.422  1.00  0.00    -0.285 OA
HETATM    5  C4  UNL     1      10.524  46.451  60.987  1.00  0.00     0.105 A 
HETATM    6  C5  UNL     1       9.702  46.278  59.923  1.00  0.00     0.108 A 
HETATM    7  C6  UNL     1       8.787  45.168  59.711  1.00  0.00     0.256 A 
HETATM    8  O2  UNL     1       8.556  44.179  60.432  1.00  0.00    -0.281 OA
HETATM    9  C7  UNL     1       8.096  45.373  58.417  1.00  0.00     0.301 A 
HETATM   10  O3  UNL     1       7.223  44.563  57.940  1.00  0.00    -0.263 OA
HETATM   11  N1  UNL     1       8.572  46.566  57.858  1.00  0.00    -0.277 N 
HETATM   12  C16 UNL     1       9.555  47.136  58.763  1.00  0.00     0.266 A 
HETATM   13  O4  UNL     1      10.141  48.205  58.510  1.00  0.00    -0.267 OA
HETATM   14  C17 UNL     1      11.455  47.547  61.215  1.00  0.00     0.268 A 
HETATM   15  O5  UNL     1      11.686  48.554  60.490  1.00  0.00    -0.267 OA
HETATM   16  N2  UNL     1      12.147  47.342  62.470  1.00  0.00    -0.274 N 
ENDROOT
BRANCH  16  17
HETATM   17  C18 UNL     1      13.131  48.263  62.955  1.00  0.00     0.060 A 
HETATM   18  C19 UNL     1      14.457  48.100  62.613  1.00  0.00     0.032 A 
HETATM   19  C20 UNL     1      15.419  48.987  63.082  1.00  0.00     0.009 A 
HETATM   20  C21 UNL     1      15.097  50.052  63.896  1.00  0.00    -0.061 A 
HETATM   21  C22 UNL     1      16.129  51.008  64.405  1.00  0.00     0.048 C 
HETATM   22  C23 UNL     1      13.757  50.196  64.228  1.00  0.00     0.028 A 
HETATM   23  C24 UNL     1      12.791  49.321  63.768  1.00  0.00     0.038 A 
HETATM   24 BR1  UNL     1      10.979  49.581  64.262  1.00  0.00    -0.049 Br
ENDBRANCH  16  17
BRANCH  11  25
HETATM   25  C8  UNL     1       8.167  47.143  56.593  1.00  0.00     0.140 C 
BRANCH  25  26
HETATM   26  C9  UNL     1       7.379  48.391  56.668  1.00  0.00     0.059 C 
BRANCH  26  27
HETATM   27  C10 UNL     1       7.701  49.408  55.638  1.00  0.00    -0.057 A 
HETATM   28  C11 UNL     1       7.386  50.738  55.813  1.00  0.00     0.007 A 
HETATM   29  C12 UNL     1       7.700  51.659  54.841  1.00  0.00     0.001 A 
HETATM   30  C13 UNL     1       8.336  51.317  53.657  1.00  0.00     0.000 A 
HETATM   31  C14 UNL     1       8.643  49.984  53.497  1.00  0.00     0.001 A 
HETATM   32  C15 UNL     1       8.338  49.052  54.455  1.00  0.00     0.007 A 
ENDBRANCH  26  27
ENDBRANCH  25  26
ENDBRANCH  11  25
TORSDOF 4
ENDMDL
MODEL 5
REMARK VINA RESULT: -8.708633512      2.404      3.148
REMARK  4 active torsions:
REMARK  status: ('A' for Active; 'I' for Inactive)
REMARK    1  A    between atoms: N1_11  and  C8_12 
REMARK    2  A    between atoms: C8_12  and  C9_13 
REMARK    3  A    between atoms: C9_13  and  C10_14 
REMARK    4  A    between atoms: N2_24  and  C18_25 
ROOT
HETATM    1  C1  UNL     1      12.298  45.658  64.227  1.00  0.00     0.048 C 
HETATM    2  C2  UNL     1      11.636  46.203  63.227  1.00  0.00     0.084 A 
HETATM    3  C3  UNL     1      10.882  45.485  62.166  1.00  0.00     0.215 A 
HETATM    4  O1  UNL     1      10.824  44.238  62.155  1.00  0.00    -0.285 OA
HETATM    5  C4  UNL     1      10.286  46.435  61.237  1.00  0.00     0.105 A 
HETATM    6  C5  UNL     1       9.535  46.179  60.138  1.00  0.00     0.108 A 
HETATM    7  C6  UNL     1       9.154  44.868  59.639  1.00  0.00     0.256 A 
HETATM    8  O2  UNL     1       9.412  43.738  60.095  1.00  0.00    -0.281 OA
HETATM    9  C7  UNL     1       8.347  45.052  58.410  1.00  0.00     0.301 A 
HETATM   10  O3  UNL     1       7.859  44.082  57.727  1.00  0.00    -0.263 OA
HETATM   11  N1  UNL     1       8.238  46.427  58.168  1.00  0.00    -0.277 N 
HETATM   12  C16 UNL     1       8.957  47.136  59.213  1.00  0.00     0.266 A 
HETATM   13  O4  UNL     1       9.022  48.378  59.240  1.00  0.00    -0.267 OA
HETATM   14  C17 UNL     1      10.689  47.738  61.749  1.00  0.00     0.268 A 
HETATM   15  O5  UNL     1      10.423  48.884  61.293  1.00  0.00    -0.267 OA
HETATM   16  N2  UNL     1      11.494  47.563  62.939  1.00  0.00    -0.274 N 
ENDROOT
BRANCH  16  17
HETATM   17  C18 UNL     1      12.036  48.676  63.660  1.00  0.00     0.060 A 
HETATM   18  C19 UNL     1      11.310  49.260  64.676  1.00  0.00     0.032 A 
HETATM   19  C20 UNL     1      11.826  50.343  65.378  1.00  0.00     0.009 A 
HETATM   20  C21 UNL     1      13.067  50.873  65.095  1.00  0.00    -0.061 A 
HETATM   21  C22 UNL     1      13.626  52.039  65.847  1.00  0.00     0.048 C 
HETATM   22  C23 UNL     1      13.779  50.270  64.069  1.00  0.00     0.028 A 
HETATM   23  C24 UNL     1      13.278  49.193  63.363  1.00  0.00     0.038 A 
HETATM   24 BR1  UNL     1      14.309  48.419  61.973  1.00  0.00    -0.049 Br
ENDBRANCH  16  17
BRANCH  11  25
HETATM   25  C8  UNL     1       7.536  47.052  57.065  1.00  0.00     0.140 C 
BRANCH  25  26
HETATM   26  C9  UNL     1       8.355  47.409  55.889  1.00  0.00     0.059 C 
BRANCH  26  27
HETATM   27  C10 UNL     1       8.190  48.799  55.398  1.00  0.00    -0.057 A 
HETATM   28  C11 UNL     1       7.573  49.766  56.161  1.00  0.00     0.007 A 
HETATM   29  C12 UNL     1       7.437  51.047  55.680  1.00  0.00     0.001 A 
HETATM   30  C13 UNL     1       7.900  51.435  54.431  1.00  0.00     0.000 A 
HETATM   31  C14 UNL     1       8.514  50.457  53.681  1.00  0.00     0.001 A 
HETATM   32  C15 UNL     1       8.658  49.175  54.145  1.00  0.00     0.007 A 
ENDBRANCH  26  27
ENDBRANCH  25  26
ENDBRANCH  11  25
TORSDOF 4
ENDMDL
