MODEL 1
REMARK VINA RESULT: -8.051691142      0.000      0.000
REMARK  6 active torsions:
REMARK  status: ('A' for Active; 'I' for Inactive)
REMARK    1  A    between atoms: N1_8  and  O1_9 
REMARK    2  A    between atoms: C8_11  and  C9_12 
REMARK    3  A    between atoms: C9_12  and  C10_13 
REMARK    4  A    between atoms: C13_16  and  N2_17 
REMARK    5  A    between atoms: C16_22  and  C17_23 
REMARK    6  A    between atoms: N3_30  and  O4_31 
ROOT
HETATM    1  C1  UNL     1      14.715  48.894  63.159  1.00  0.00     0.036 C 
HETATM    2  C2  UNL     1      13.914  48.417  62.001  1.00  0.00    -0.020 C 
HETATM    3  C3  UNL     1      12.602  48.548  61.943  1.00  0.00    -0.009 C 
HETATM    4  C4  UNL     1      11.938  49.199  63.093  1.00  0.00     0.048 C 
HETATM    5  C5  UNL     1      10.477  49.102  63.147  1.00  0.00     0.067 C 
HETATM    6  C6  UNL     1       9.813  48.593  61.935  1.00  0.00     0.074 A 
HETATM    7  C7  UNL     1      10.414  48.104  60.824  1.00  0.00     0.138 A 
HETATM    8  N1  UNL     1       9.702  47.667  59.777  1.00  0.00    -0.220 N 
HETATM    9  C8  UNL     1       8.332  47.689  59.773  1.00  0.00     0.075 A 
HETATM   10  C16 UNL     1       7.710  48.179  60.888  1.00  0.00     0.098 A 
HETATM   11  N3  UNL     1       8.471  48.620  61.944  1.00  0.00    -0.224 N 
HETATM   12  C23 UNL     1      11.887  48.066  60.794  1.00  0.00     0.209 C 
HETATM   13  O5  UNL     1      12.451  47.613  59.762  1.00  0.00    -0.285 OA
ENDROOT
BRANCH   9  14
HETATM   14  C9  UNL     1       7.674  47.215  58.564  1.00  0.00     0.100 C 
BRANCH  14  15
HETATM   15  C10 UNL     1       7.778  48.049  57.356  1.00  0.00    -0.052 A 
HETATM   16  C11 UNL     1       8.218  47.559  56.147  1.00  0.00     0.010 A 
HETATM   17  C12 UNL     1       8.355  48.391  55.031  1.00  0.00     0.036 A 
HETATM   18  C13 UNL     1       8.059  49.735  55.078  1.00  0.00     0.102 A 
HETATM   19  C14 UNL     1       7.619  50.219  56.292  1.00  0.00     0.036 A 
HETATM   20  C15 UNL     1       7.479  49.415  57.399  1.00  0.00     0.010 A 
BRANCH  18  21
HETATM   21  N2  UNL     1       8.192  50.591  53.962  1.00  0.00    -0.116 N 
HETATM   22  O2  UNL     1       7.645  51.700  53.957  1.00  0.00    -0.532 OA
HETATM   23  O3  UNL     1       8.927  50.187  52.888  1.00  0.00    -0.532 OA
ENDBRANCH  18  21
ENDBRANCH  14  15
ENDBRANCH   9  14
BRANCH   8  24
HETATM   24  O1  UNL     1      10.415  47.192  58.675  1.00  0.00    -0.282 OA
ATOM     25  H1  UNL     1      10.263  46.291  58.417  1.00  0.00     0.245 HD
ENDBRANCH   8  24
BRANCH  10  26
HETATM   26  C17 UNL     1       6.266  48.236  61.019  1.00  0.00    -0.005 A 
HETATM   27  C18 UNL     1       5.587  47.156  61.520  1.00  0.00     0.015 A 
HETATM   28  C19 UNL     1       4.197  47.231  61.637  1.00  0.00     0.020 A 
HETATM   29  C20 UNL     1       3.524  48.363  61.260  1.00  0.00     0.011 A 
HETATM   30 BR1  UNL     1       1.607  48.397  61.451  1.00  0.00    -0.051 Br
HETATM   31  C21 UNL     1       4.200  49.453  60.757  1.00  0.00     0.020 A 
HETATM   32  C22 UNL     1       5.588  49.364  60.646  1.00  0.00     0.015 A 
ENDBRANCH  10  26
BRANCH  11  33
HETATM   33  O4  UNL     1       7.763  49.099  63.029  1.00  0.00    -0.282 OA
ATOM     34  H4  UNL     1       6.929  48.723  63.286  1.00  0.00     0.245 HD
ENDBRANCH  11  33
TORSDOF 6
ENDMDL
MODEL 2
REMARK VINA RESULT: -7.824810512      3.544      6.879
REMARK  6 active torsions:
REMARK  status: ('A' for Active; 'I' for Inactive)
REMARK    1  A    between atoms: N1_8  and  O1_9 
REMARK    2  A    between atoms: C8_11  and  C9_12 
REMARK    3  A    between atoms: C9_12  and  C10_13 
REMARK    4  A    between atoms: C13_16  and  N2_17 
REMARK    5  A    between atoms: C16_22  and  C17_23 
REMARK    6  A    between atoms: N3_30  and  O4_31 
ROOT
HETATM    1  C1  UNL     1       8.705  50.309  52.435  1.00  0.00     0.036 C 
HETATM    2  C2  UNL     1       8.297  50.637  53.826  1.00  0.00    -0.020 C 
HETATM    3  C3  UNL     1       8.322  49.747  54.801  1.00  0.00    -0.009 C 
HETATM    4  C4  UNL     1       8.778  48.383  54.457  1.00  0.00     0.048 C 
HETATM    5  C5  UNL     1       8.551  47.343  55.465  1.00  0.00     0.067 C 
HETATM    6  C6  UNL     1       8.129  47.808  56.797  1.00  0.00     0.074 A 
HETATM    7  C7  UNL     1       7.825  49.079  57.155  1.00  0.00     0.138 A 
HETATM    8  N1  UNL     1       7.451  49.384  58.405  1.00  0.00    -0.220 N 
HETATM    9  C8  UNL     1       7.357  48.432  59.385  1.00  0.00     0.075 A 
HETATM   10  C16 UNL     1       7.661  47.143  59.039  1.00  0.00     0.098 A 
HETATM   11  N3  UNL     1       8.041  46.866  57.748  1.00  0.00    -0.224 N 
HETATM   12  C23 UNL     1       7.916  50.129  56.125  1.00  0.00     0.209 C 
HETATM   13  O5  UNL     1       7.634  51.312  56.453  1.00  0.00    -0.285 OA
ENDROOT
BRANCH   9  14
HETATM   14  C9  UNL     1       6.970  48.894  60.710  1.00  0.00     0.100 C 
BRANCH  14  15
HETATM   15  C10 UNL     1       5.563  49.272  60.919  1.00  0.00    -0.052 A 
HETATM   16  C11 UNL     1       4.512  48.460  60.555  1.00  0.00     0.010 A 
HETATM   17  C12 UNL     1       3.185  48.872  60.720  1.00  0.00     0.036 A 
HETATM   18  C13 UNL     1       2.859  50.100  61.250  1.00  0.00     0.102 A 
HETATM   19  C14 UNL     1       3.918  50.907  61.612  1.00  0.00     0.036 A 
HETATM   20  C15 UNL     1       5.227  50.518  61.457  1.00  0.00     0.010 A 
BRANCH  18  21
HETATM   21  N2  UNL     1       1.525  50.533  61.423  1.00  0.00    -0.116 N 
HETATM   22  O2  UNL     1       0.900  50.236  62.448  1.00  0.00    -0.532 OA
HETATM   23  O3  UNL     1       0.930  51.283  60.453  1.00  0.00    -0.532 OA
ENDBRANCH  18  21
ENDBRANCH  14  15
ENDBRANCH   9  14
BRANCH   8  24
HETATM   24  O1  UNL     1       7.169  50.723  58.676  1.00  0.00    -0.282 OA
ATOM     25  H1  UNL     1       6.290  50.929  58.971  1.00  0.00     0.245 HD
ENDBRANCH   8  24
BRANCH  10  26
HETATM   26  C17 UNL     1       7.579  46.040  59.977  1.00  0.00    -0.005 A 
HETATM   27  C18 UNL     1       6.406  45.344  60.106  1.00  0.00     0.015 A 
HETATM   28  C19 UNL     1       6.347  44.285  61.014  1.00  0.00     0.020 A 
HETATM   29  C20 UNL     1       7.443  43.947  61.764  1.00  0.00     0.011 A 
HETATM   30 BR1  UNL     1       7.292  42.475  62.998  1.00  0.00    -0.051 Br
HETATM   31  C21 UNL     1       8.626  44.641  61.640  1.00  0.00     0.020 A 
HETATM   32  C22 UNL     1       8.669  45.696  60.728  1.00  0.00     0.015 A 
ENDBRANCH  10  26
BRANCH  11  33
HETATM   33  O4  UNL     1       8.330  45.541  57.485  1.00  0.00    -0.282 OA
ATOM     34  H4  UNL     1       9.209  45.258  57.262  1.00  0.00     0.245 HD
ENDBRANCH  11  33
TORSDOF 6
ENDMDL
MODEL 3
REMARK VINA RESULT: -7.776012589      3.625      6.641
REMARK  6 active torsions:
REMARK  status: ('A' for Active; 'I' for Inactive)
REMARK    1  A    between atoms: N1_8  and  O1_9 
REMARK    2  A    between atoms: C8_11  and  C9_12 
REMARK    3  A    between atoms: C9_12  and  C10_13 
REMARK    4  A    between atoms: C13_16  and  N2_17 
REMARK    5  A    between atoms: C16_22  and  C17_23 
REMARK    6  A    between atoms: N3_30  and  O4_31 
ROOT
HETATM    1  C1  UNL     1       8.328  51.006  52.625  1.00  0.00     0.036 C 
HETATM    2  C2  UNL     1       8.629  49.770  53.393  1.00  0.00    -0.020 C 
HETATM    3  C3  UNL     1       8.291  49.623  54.661  1.00  0.00    -0.009 C 
HETATM    4  C4  UNL     1       7.588  50.753  55.307  1.00  0.00     0.048 C 
HETATM    5  C5  UNL     1       7.457  50.694  56.766  1.00  0.00     0.067 C 
HETATM    6  C6  UNL     1       7.809  49.413  57.400  1.00  0.00     0.074 A 
HETATM    7  C7  UNL     1       8.342  48.325  56.794  1.00  0.00     0.138 A 
HETATM    8  N1  UNL     1       8.622  47.208  57.478  1.00  0.00    -0.220 N 
HETATM    9  C8  UNL     1       8.384  47.104  58.823  1.00  0.00     0.075 A 
HETATM   10  C16 UNL     1       7.846  48.195  59.451  1.00  0.00     0.098 A 
HETATM   11  N3  UNL     1       7.572  49.324  58.719  1.00  0.00    -0.224 N 
HETATM   12  C23 UNL     1       8.610  48.402  55.347  1.00  0.00     0.209 C 
HETATM   13  O5  UNL     1       9.106  47.393  54.777  1.00  0.00    -0.285 OA
ENDROOT
BRANCH   9  14
HETATM   14  C9  UNL     1       8.703  45.829  59.447  1.00  0.00     0.100 C 
BRANCH  14  15
HETATM   15  C10 UNL     1       7.691  44.761  59.378  1.00  0.00    -0.052 A 
HETATM   16  C11 UNL     1       7.006  44.312  60.485  1.00  0.00     0.010 A 
HETATM   17  C12 UNL     1       6.089  43.259  60.394  1.00  0.00     0.036 A 
HETATM   18  C13 UNL     1       5.822  42.620  59.204  1.00  0.00     0.102 A 
HETATM   19  C14 UNL     1       6.513  43.076  58.101  1.00  0.00     0.036 A 
HETATM   20  C15 UNL     1       7.417  44.108  58.172  1.00  0.00     0.010 A 
BRANCH  18  21
HETATM   21  N2  UNL     1       4.900  41.555  59.093  1.00  0.00    -0.116 N 
HETATM   22  O2  UNL     1       4.993  40.569  59.834  1.00  0.00    -0.532 OA
HETATM   23  O3  UNL     1       3.906  41.621  58.163  1.00  0.00    -0.532 OA
ENDBRANCH  18  21
ENDBRANCH  14  15
ENDBRANCH   9  14
BRANCH   8  24
HETATM   24  O1  UNL     1       9.159  46.139  56.760  1.00  0.00    -0.282 OA
ATOM     25  H1  UNL     1       8.866  46.029  55.864  1.00  0.00     0.245 HD
ENDBRANCH   8  24
BRANCH  10  26
HETATM   26  C17 UNL     1       7.569  48.222  60.875  1.00  0.00    -0.005 A 
HETATM   27  C18 UNL     1       6.327  47.869  61.332  1.00  0.00     0.015 A 
HETATM   28  C19 UNL     1       6.080  47.903  62.706  1.00  0.00     0.020 A 
HETATM   29  C20 UNL     1       7.063  48.281  63.583  1.00  0.00     0.011 A 
HETATM   30 BR1  UNL     1       6.654  48.304  65.465  1.00  0.00    -0.051 Br
HETATM   31  C21 UNL     1       8.315  48.637  63.131  1.00  0.00     0.020 A 
HETATM   32  C22 UNL     1       8.546  48.599  61.756  1.00  0.00     0.015 A 
ENDBRANCH  10  26
BRANCH  11  33
HETATM   33  O4  UNL     1       7.030  50.378  59.429  1.00  0.00    -0.282 OA
ATOM     34  H4  UNL     1       7.325  51.271  59.299  1.00  0.00     0.245 HD
ENDBRANCH  11  33
TORSDOF 6
ENDMDL
MODEL 4
REMARK VINA RESULT: -7.599478102      2.985      6.704
REMARK  6 active torsions:
REMARK  status: ('A' for Active; 'I' for Inactive)
REMARK    1  A    between atoms: N1_8  and  O1_9 
REMARK    2  A    between atoms: C8_11  and  C9_12 
REMARK    3  A    between atoms: C9_12  and  C10_13 
REMARK    4  A    between atoms: C13_16  and  N2_17 
REMARK    5  A    between atoms: C16_22  and  C17_23 
REMARK    6  A    between atoms: N3_30  and  O4_31 
ROOT
HETATM    1  C1  UNL     1       9.067  50.453  52.616  1.00  0.00     0.036 C 
HETATM    2  C2  UNL     1       8.937  49.252  53.483  1.00  0.00    -0.020 C 
HETATM    3  C3  UNL     1       8.379  49.297  54.679  1.00  0.00    -0.009 C 
HETATM    4  C4  UNL     1       7.878  50.610  55.140  1.00  0.00     0.048 C 
HETATM    5  C5  UNL     1       7.510  50.710  56.555  1.00  0.00     0.067 C 
HETATM    6  C6  UNL     1       7.439  49.443  57.301  1.00  0.00     0.074 A 
HETATM    7  C7  UNL     1       7.782  48.213  56.847  1.00  0.00     0.138 A 
HETATM    8  N1  UNL     1       7.673  47.125  57.622  1.00  0.00    -0.220 N 
HETATM    9  C8  UNL     1       7.210  47.196  58.909  1.00  0.00     0.075 A 
HETATM   10  C16 UNL     1       6.860  48.431  59.382  1.00  0.00     0.098 A 
HETATM   11  N3  UNL     1       6.984  49.526  58.561  1.00  0.00    -0.224 N 
HETATM   12  C23 UNL     1       8.283  48.100  55.466  1.00  0.00     0.209 C 
HETATM   13  O5  UNL     1       8.604  46.958  55.039  1.00  0.00    -0.285 OA
ENDROOT
BRANCH   9  14
HETATM   14  C9  UNL     1       7.110  45.940  59.638  1.00  0.00     0.100 C 
BRANCH  14  15
HETATM   15  C10 UNL     1       8.146  45.646  60.642  1.00  0.00    -0.052 A 
HETATM   16  C11 UNL     1       7.873  44.996  61.824  1.00  0.00     0.010 A 
HETATM   17  C12 UNL     1       8.871  44.779  62.781  1.00  0.00     0.036 A 
HETATM   18  C13 UNL     1      10.169  45.200  62.595  1.00  0.00     0.102 A 
HETATM   19  C14 UNL     1      10.433  45.851  61.408  1.00  0.00     0.036 A 
HETATM   20  C15 UNL     1       9.465  46.073  60.458  1.00  0.00     0.010 A 
BRANCH  18  21
HETATM   21  N2  UNL     1      11.189  44.990  63.550  1.00  0.00    -0.116 N 
HETATM   22  O2  UNL     1      10.908  44.593  64.687  1.00  0.00    -0.532 OA
HETATM   23  O3  UNL     1      12.487  45.230  63.210  1.00  0.00    -0.532 OA
ENDBRANCH  18  21
ENDBRANCH  14  15
ENDBRANCH   9  14
BRANCH   8  24
HETATM   24  O1  UNL     1       8.043  45.903  57.059  1.00  0.00    -0.282 OA
ATOM     25  H1  UNL     1       8.522  45.298  57.613  1.00  0.00     0.245 HD
ENDBRANCH   8  24
BRANCH  10  26
HETATM   26  C17 UNL     1       6.378  48.645  60.734  1.00  0.00    -0.005 A 
HETATM   27  C18 UNL     1       7.266  48.958  61.729  1.00  0.00     0.015 A 
HETATM   28  C19 UNL     1       6.782  49.160  63.024  1.00  0.00     0.020 A 
HETATM   29  C20 UNL     1       5.443  49.048  63.294  1.00  0.00     0.011 A 
HETATM   30 BR1  UNL     1       4.845  49.340  65.102  1.00  0.00    -0.051 Br
HETATM   31  C21 UNL     1       4.544  48.734  62.299  1.00  0.00     0.020 A 
HETATM   32  C22 UNL     1       5.043  48.536  61.011  1.00  0.00     0.015 A 
ENDBRANCH  10  26
BRANCH  11  33
HETATM   33  O4  UNL     1       6.607  50.733  59.117  1.00  0.00    -0.282 OA
ATOM     34  H4  UNL     1       7.104  51.528  58.964  1.00  0.00     0.245 HD
ENDBRANCH  11  33
TORSDOF 6
ENDMDL
MODEL 5
REMARK VINA RESULT: -7.586090445      3.978      6.847
REMARK  6 active torsions:
REMARK  status: ('A' for Active; 'I' for Inactive)
REMARK    1  A    between atoms: N1_8  and  O1_9 
REMARK    2  A    between atoms: C8_11  and  C9_12 
REMARK    3  A    between atoms: C9_12  and  C10_13 
REMARK    4  A    between atoms: C13_16  and  N2_17 
REMARK    5  A    between atoms: C16_22  and  C17_23 
REMARK    6  A    between atoms: N3_30  and  O4_31 
ROOT
HETATM    1  C1  UNL     1       7.992  51.194  53.589  1.00  0.00     0.036 C 
HETATM    2  C2  UNL     1       8.375  49.854  54.105  1.00  0.00    -0.020 C 
HETATM    3  C3  UNL     1       8.083  49.456  55.329  1.00  0.00    -0.009 C 
HETATM    4  C4  UNL     1       7.346  50.406  56.190  1.00  0.00     0.048 C 
HETATM    5  C5  UNL     1       7.262  50.070  57.614  1.00  0.00     0.067 C 
HETATM    6  C6  UNL     1       7.694  48.713  57.990  1.00  0.00     0.074 A 
HETATM    7  C7  UNL     1       8.261  47.788  57.179  1.00  0.00     0.138 A 
HETATM    8  N1  UNL     1       8.614  46.579  57.636  1.00  0.00    -0.220 N 
HETATM    9  C8  UNL     1       8.422  46.214  58.942  1.00  0.00     0.075 A 
HETATM   10  C16 UNL     1       7.851  47.138  59.774  1.00  0.00     0.098 A 
HETATM   11  N3  UNL     1       7.500  48.368  59.272  1.00  0.00    -0.224 N 
HETATM   12  C23 UNL     1       8.481  48.146  55.767  1.00  0.00     0.209 C 
HETATM   13  O5  UNL     1       9.008  47.289  55.008  1.00  0.00    -0.285 OA
ENDROOT
BRANCH   9  14
HETATM   14  C9  UNL     1       8.820  44.863  59.309  1.00  0.00     0.100 C 
BRANCH  14  15
HETATM   15  C10 UNL     1       7.768  43.837  59.388  1.00  0.00    -0.052 A 
HETATM   16  C11 UNL     1       6.977  43.496  58.314  1.00  0.00     0.010 A 
HETATM   17  C12 UNL     1       5.949  42.554  58.437  1.00  0.00     0.036 A 
HETATM   18  C13 UNL     1       5.675  41.921  59.628  1.00  0.00     0.102 A 
HETATM   19  C14 UNL     1       6.472  42.268  60.699  1.00  0.00     0.036 A 
HETATM   20  C15 UNL     1       7.485  43.191  60.596  1.00  0.00     0.010 A 
BRANCH  18  21
HETATM   21  N2  UNL     1       4.642  40.967  59.772  1.00  0.00    -0.116 N 
HETATM   22  O2  UNL     1       4.026  40.560  58.780  1.00  0.00    -0.532 OA
HETATM   23  O3  UNL     1       4.328  40.498  61.012  1.00  0.00    -0.532 OA
ENDBRANCH  18  21
ENDBRANCH  14  15
ENDBRANCH   9  14
BRANCH   8  24
HETATM   24  O1  UNL     1       9.181  45.693  56.719  1.00  0.00    -0.282 OA
ATOM     25  H1  UNL     1       8.610  45.344  56.045  1.00  0.00     0.245 HD
ENDBRANCH   8  24
BRANCH  10  26
HETATM   26  C17 UNL     1       7.615  46.885  61.183  1.00  0.00    -0.005 A 
HETATM   27  C18 UNL     1       6.379  46.467  61.601  1.00  0.00     0.015 A 
HETATM   28  C19 UNL     1       6.173  46.230  62.961  1.00  0.00     0.020 A 
HETATM   29  C20 UNL     1       7.189  46.410  63.863  1.00  0.00     0.011 A 
HETATM   30 BR1  UNL     1       6.834  46.063  65.725  1.00  0.00    -0.051 Br
HETATM   31  C21 UNL     1       8.434  46.829  63.452  1.00  0.00     0.020 A 
HETATM   32  C22 UNL     1       8.625  47.062  62.089  1.00  0.00     0.015 A 
ENDBRANCH  10  26
BRANCH  11  33
HETATM   33  O4  UNL     1       6.929  49.240  60.179  1.00  0.00    -0.282 OA
ATOM     34  H4  UNL     1       7.040  50.181  60.103  1.00  0.00     0.245 HD
ENDBRANCH  11  33
TORSDOF 6
ENDMDL
