MODEL 1
REMARK VINA RESULT: -4.003531860      0.000      0.000
REMARK  1 active torsions:
REMARK  status: ('A' for Active; 'I' for Inactive)
REMARK    1  A    between atoms: N2_4  and  C1_6 
ROOT
HETATM    1  C1  UNL     1      97.324  60.938 -10.989  1.00  0.00     0.263 C 
HETATM    2  C2  UNL     1      96.301  62.019 -10.718  1.00  0.00     0.289 C 
HETATM    3  N3  UNL     1      96.931  63.250 -11.210  1.00  0.00    -0.050 N 
ATOM      4  H31 UNL     1      97.194  63.928 -10.494  1.00  0.00     0.279 HD
ATOM      5  H32 UNL     1      96.315  63.891 -11.710  1.00  0.00     0.279 HD
HETATM    6  C3  UNL     1      98.037  62.691 -11.992  1.00  0.00     0.402 C 
HETATM    7  O1  UNL     1      98.501  61.712 -11.082  1.00  0.00    -0.337 OA
ENDROOT
BRANCH   1   8
HETATM    8  N2  UNL     1      97.434  59.978  -9.973  1.00  0.00    -0.312 N 
HETATM    9  N1  UNL     1      96.738  60.141  -8.932  1.00  0.00    -0.347 N 
ATOM     10  H12 UNL     1      96.122  60.949  -8.849  1.00  0.00     0.176 HD
ATOM     11  H11 UNL     1      96.817  59.442  -8.194  1.00  0.00     0.176 HD
ATOM     12  H2  UNL     1      98.055  59.175 -10.072  1.00  0.00     0.182 HD
ENDBRANCH   1   8
TORSDOF 1
ENDMDL
MODEL 2
REMARK VINA RESULT: -3.877661825      1.137      2.991
REMARK  1 active torsions:
REMARK  status: ('A' for Active; 'I' for Inactive)
REMARK    1  A    between atoms: N2_4  and  C1_6 
ROOT
HETATM    1  C1  UNL     1      97.416  62.046 -10.605  1.00  0.00     0.263 C 
HETATM    2  C2  UNL     1      97.050  61.343  -9.316  1.00  0.00     0.289 C 
HETATM    3  N3  UNL     1      97.354  59.930  -9.572  1.00  0.00    -0.050 N 
ATOM      4  H31 UNL     1      96.546  59.309  -9.630  1.00  0.00     0.279 HD
ATOM      5  H32 UNL     1      97.793  59.427  -8.802  1.00  0.00     0.279 HD
HETATM    6  C3  UNL     1      98.155  60.045 -10.794  1.00  0.00     0.402 C 
HETATM    7  O1  UNL     1      97.359  60.967 -11.514  1.00  0.00    -0.337 OA
ENDROOT
BRANCH   1   8
HETATM    8  N2  UNL     1      96.528  63.065 -10.979  1.00  0.00    -0.312 N 
HETATM    9  N1  UNL     1      97.006  64.070 -11.577  1.00  0.00    -0.347 N 
ATOM     10  H12 UNL     1      98.005  64.123 -11.773  1.00  0.00     0.176 HD
ATOM     11  H11 UNL     1      96.360  64.811 -11.850  1.00  0.00     0.176 HD
ATOM     12  H2  UNL     1      95.531  62.996 -10.776  1.00  0.00     0.182 HD
ENDBRANCH   1   8
TORSDOF 1
ENDMDL
MODEL 3
REMARK VINA RESULT: -3.824806257      1.464      2.668
REMARK  1 active torsions:
REMARK  status: ('A' for Active; 'I' for Inactive)
REMARK    1  A    between atoms: N2_4  and  C1_6 
ROOT
HETATM    1  C1  UNL     1      97.451  61.917 -10.749  1.00  0.00     0.263 C 
HETATM    2  C2  UNL     1      97.915  61.374  -9.416  1.00  0.00     0.289 C 
HETATM    3  N3  UNL     1      98.215  59.962  -9.682  1.00  0.00    -0.050 N 
ATOM      4  H31 UNL     1      97.587  59.287  -9.245  1.00  0.00     0.279 HD
ATOM      5  H32 UNL     1      99.056  59.598  -9.233  1.00  0.00     0.279 HD
HETATM    6  C3  UNL     1      98.228  59.961 -11.148  1.00  0.00     0.402 C 
HETATM    7  O1  UNL     1      97.062  60.723 -11.395  1.00  0.00    -0.337 OA
ENDROOT
BRANCH   1   8
HETATM    8  N2  UNL     1      96.377  62.815 -10.666  1.00  0.00    -0.312 N 
HETATM    9  N1  UNL     1      95.460  62.559  -9.836  1.00  0.00    -0.347 N 
ATOM     10  H12 UNL     1      95.514  61.724  -9.254  1.00  0.00     0.176 HD
ATOM     11  H11 UNL     1      94.679  63.213  -9.775  1.00  0.00     0.176 HD
ATOM     12  H2  UNL     1      96.338  63.647 -11.256  1.00  0.00     0.182 HD
ENDBRANCH   1   8
TORSDOF 1
ENDMDL
MODEL 4
REMARK VINA RESULT: -3.813900904      1.923      3.070
REMARK  1 active torsions:
REMARK  status: ('A' for Active; 'I' for Inactive)
REMARK    1  A    between atoms: N2_4  and  C1_6 
ROOT
HETATM    1  C1  UNL     1      95.994  62.035  -9.966  1.00  0.00     0.263 C 
HETATM    2  C2  UNL     1      96.298  61.080  -8.833  1.00  0.00     0.289 C 
HETATM    3  N3  UNL     1      97.171  60.065  -9.435  1.00  0.00    -0.050 N 
ATOM      4  H31 UNL     1      96.765  59.134  -9.532  1.00  0.00     0.279 HD
ATOM      5  H32 UNL     1      97.953  59.757  -8.857  1.00  0.00     0.279 HD
HETATM    6  C3  UNL     1      97.533  60.733 -10.689  1.00  0.00     0.402 C 
HETATM    7  O1  UNL     1      96.260  61.210 -11.080  1.00  0.00    -0.337 OA
ENDROOT
BRANCH   1   8
HETATM    8  N2  UNL     1      94.672  62.501  -9.990  1.00  0.00    -0.312 N 
HETATM    9  N1  UNL     1      94.488  63.750  -9.940  1.00  0.00    -0.347 N 
ATOM     10  H12 UNL     1      95.285  64.383  -9.884  1.00  0.00     0.176 HD
ATOM     11  H11 UNL     1      93.526  64.089  -9.958  1.00  0.00     0.176 HD
ATOM     12  H2  UNL     1      93.886  61.854 -10.047  1.00  0.00     0.182 HD
ENDBRANCH   1   8
TORSDOF 1
ENDMDL
MODEL 5
REMARK VINA RESULT: -3.771552078      1.820      1.944
REMARK  1 active torsions:
REMARK  status: ('A' for Active; 'I' for Inactive)
REMARK    1  A    between atoms: N2_4  and  C1_6 
ROOT
HETATM    1  C1  UNL     1      97.601  60.591  -9.450  1.00  0.00     0.263 C 
HETATM    2  C2  UNL     1      96.321  61.077  -8.806  1.00  0.00     0.289 C 
HETATM    3  N3  UNL     1      95.900  62.210  -9.638  1.00  0.00    -0.050 N 
ATOM      4  H31 UNL     1      95.957  63.127  -9.196  1.00  0.00     0.279 HD
ATOM      5  H32 UNL     1      94.900  62.269  -9.829  1.00  0.00     0.279 HD
HETATM    6  C3  UNL     1      96.759  62.015 -10.810  1.00  0.00     0.402 C 
HETATM    7  O1  UNL     1      97.988  61.747 -10.162  1.00  0.00    -0.337 OA
ENDROOT
BRANCH   1   8
HETATM    8  N2  UNL     1      98.596  60.205  -8.540  1.00  0.00    -0.312 N 
HETATM    9  N1  UNL     1      98.746  60.907  -7.501  1.00  0.00    -0.347 N 
ATOM     10  H12 UNL     1      98.155  61.723  -7.343  1.00  0.00     0.176 HD
ATOM     11  H11 UNL     1      99.469  60.627  -6.839  1.00  0.00     0.176 HD
ATOM     12  H2  UNL     1      99.179  59.386  -8.712  1.00  0.00     0.182 HD
ENDBRANCH   1   8
TORSDOF 1
ENDMDL
