MODEL 1
REMARK VINA RESULT: -3.649375898      0.000      0.000
REMARK  2 active torsions:
REMARK  status: ('A' for Active; 'I' for Inactive)
REMARK    1  A    between atoms: O1_1  and  C1_3 
REMARK    2  A    between atoms: C1_3  and  C2_4 
ROOT
HETATM    1  C2  UNL     1      94.059  63.665 -10.392  1.00  0.00     0.206 A 
HETATM    2  N1  UNL     1      95.250  63.047 -10.001  1.00  0.00    -0.363 N 
ATOM      3  H1  UNL     1      96.059  63.373  -9.471  1.00  0.00     0.162 HD
HETATM    4  C3  UNL     1      94.970  61.949 -10.534  1.00  0.00     0.174 A 
HETATM    5  N2  UNL     1      93.745  62.443 -10.988  1.00  0.00    -0.363 N 
ATOM      6  H2  UNL     1      92.961  62.070 -11.523  1.00  0.00     0.162 HD
ENDROOT
BRANCH   1   7
HETATM    7  C1  UNL     1      94.167  64.886 -11.278  1.00  0.00     0.210 C 
BRANCH   7   8
HETATM    8  O1  UNL     1      92.994  65.042 -12.002  1.00  0.00    -0.397 OA
ATOM      9  H1  UNL     1      92.791  65.967 -12.086  1.00  0.00     0.209 HD
ENDBRANCH   7   8
ENDBRANCH   1   7
TORSDOF 2
ENDMDL
MODEL 2
REMARK VINA RESULT: -3.598345869      5.022      5.480
REMARK  2 active torsions:
REMARK  status: ('A' for Active; 'I' for Inactive)
REMARK    1  A    between atoms: O1_1  and  C1_3 
REMARK    2  A    between atoms: C1_3  and  C2_4 
ROOT
HETATM    1  C2  UNL     1      97.491  61.162  -9.012  1.00  0.00     0.206 A 
HETATM    2  N1  UNL     1      97.205  60.161  -9.944  1.00  0.00    -0.363 N 
ATOM      3  H1  UNL     1      97.047  59.157  -9.856  1.00  0.00     0.162 HD
HETATM    4  C3  UNL     1      97.212  60.938 -10.926  1.00  0.00     0.174 A 
HETATM    5  N2  UNL     1      97.500  62.029 -10.105  1.00  0.00    -0.363 N 
ATOM      6  H2  UNL     1      97.651  63.028 -10.244  1.00  0.00     0.162 HD
ENDROOT
BRANCH   1   7
HETATM    7  C1  UNL     1      98.760  61.018  -8.203  1.00  0.00     0.210 C 
BRANCH   7   8
HETATM    8  O1  UNL     1      98.966  59.683  -7.890  1.00  0.00    -0.397 OA
ATOM      9  H1  UNL     1      99.594  59.305  -8.495  1.00  0.00     0.209 HD
ENDBRANCH   7   8
ENDBRANCH   1   7
TORSDOF 2
ENDMDL
MODEL 3
REMARK VINA RESULT: -3.553486702      4.649      5.381
REMARK  2 active torsions:
REMARK  status: ('A' for Active; 'I' for Inactive)
REMARK    1  A    between atoms: O1_1  and  C1_3 
REMARK    2  A    between atoms: C1_3  and  C2_4 
ROOT
HETATM    1  C2  UNL     1      97.683  60.751  -9.484  1.00  0.00     0.206 A 
HETATM    2  N1  UNL     1      96.981  61.928  -9.759  1.00  0.00    -0.363 N 
ATOM      3  H1  UNL     1      97.253  62.813 -10.189  1.00  0.00     0.162 HD
HETATM    4  C3  UNL     1      95.898  61.508  -9.290  1.00  0.00     0.174 A 
HETATM    5  N2  UNL     1      96.477  60.282  -8.959  1.00  0.00    -0.363 N 
ATOM      6  H2  UNL     1      96.158  59.417  -8.524  1.00  0.00     0.162 HD
ENDROOT
BRANCH   1   7
HETATM    7  C1  UNL     1      98.874  60.852  -8.558  1.00  0.00     0.210 C 
BRANCH   7   8
HETATM    8  O1  UNL     1      99.008  59.675  -7.839  1.00  0.00    -0.397 OA
ATOM      9  H1  UNL     1      98.909  59.853  -6.911  1.00  0.00     0.209 HD
ENDBRANCH   7   8
ENDBRANCH   1   7
TORSDOF 2
ENDMDL
MODEL 4
REMARK VINA RESULT: -3.502778444      3.222      3.527
REMARK  2 active torsions:
REMARK  status: ('A' for Active; 'I' for Inactive)
REMARK    1  A    between atoms: O1_1  and  C1_3 
REMARK    2  A    between atoms: C1_3  and  C2_4 
ROOT
HETATM    1  C2  UNL     1      96.554  61.426 -10.618  1.00  0.00     0.206 A 
HETATM    2  N1  UNL     1      96.057  61.944  -9.419  1.00  0.00    -0.363 N 
ATOM      3  H1  UNL     1      95.545  62.797  -9.193  1.00  0.00     0.162 HD
HETATM    4  C3  UNL     1      96.464  60.987  -8.722  1.00  0.00     0.174 A 
HETATM    5  N2  UNL     1      97.010  60.358  -9.843  1.00  0.00    -0.363 N 
ATOM      6  H2  UNL     1      97.521  59.493 -10.019  1.00  0.00     0.162 HD
ENDROOT
BRANCH   1   7
HETATM    7  C1  UNL     1      97.575  62.255 -11.364  1.00  0.00     0.210 C 
BRANCH   7   8
HETATM    8  O1  UNL     1      97.158  63.577 -11.413  1.00  0.00    -0.397 OA
ATOM      9  H1  UNL     1      96.639  63.720 -12.196  1.00  0.00     0.209 HD
ENDBRANCH   7   8
ENDBRANCH   1   7
TORSDOF 2
ENDMDL
MODEL 5
REMARK VINA RESULT: -3.482473824      3.094      3.709
REMARK  2 active torsions:
REMARK  status: ('A' for Active; 'I' for Inactive)
REMARK    1  A    between atoms: O1_1  and  C1_3 
REMARK    2  A    between atoms: C1_3  and  C2_4 
ROOT
HETATM    1  C2  UNL     1      96.145  61.802 -10.561  1.00  0.00     0.206 A 
HETATM    2  N1  UNL     1      95.623  63.089 -10.410  1.00  0.00    -0.363 N 
ATOM      3  H1  UNL     1      96.058  64.008 -10.326  1.00  0.00     0.162 HD
HETATM    4  C3  UNL     1      94.429  62.711 -10.414  1.00  0.00     0.174 A 
HETATM    5  N2  UNL     1      94.815  61.378 -10.564  1.00  0.00    -0.363 N 
ATOM      6  H2  UNL     1      94.334  60.483 -10.643  1.00  0.00     0.162 HD
ENDROOT
BRANCH   1   7
HETATM    7  C1  UNL     1      97.057  61.288  -9.469  1.00  0.00     0.210 C 
BRANCH   7   8
HETATM    8  O1  UNL     1      96.568  60.086  -8.979  1.00  0.00    -0.397 OA
ATOM      9  H1  UNL     1      96.453  60.147  -8.038  1.00  0.00     0.209 HD
ENDBRANCH   7   8
ENDBRANCH   1   7
TORSDOF 2
ENDMDL
