MODEL 1
REMARK VINA RESULT: -3.786871077      0.000      0.000
REMARK  3 active torsions:
REMARK  status: ('A' for Active; 'I' for Inactive)
REMARK    1  A    between atoms: N1_1  and  N2_4 
REMARK    2  A    between atoms: N3_6  and  C1_8 
REMARK    3  A    between atoms: C1_8  and  C2_9 
ROOT
HETATM    1  N2  UNL     1     100.124  59.793  -2.678  1.00  0.00    -0.254 N 
ATOM      2  H2  UNL     1     100.836  60.107  -2.019  1.00  0.00     0.207 HD
HETATM    3  N3  UNL     1     100.181  60.171  -3.889  1.00  0.00    -0.320 N 
ATOM      4  H3  UNL     1      99.472  59.860  -4.553  1.00  0.00     0.181 HD
ENDROOT
BRANCH   3   5
HETATM    5  C1  UNL     1     101.241  61.034  -4.325  1.00  0.00     0.174 C 
BRANCH   5   6
HETATM    6  C2  UNL     1     101.544  60.951  -5.777  1.00  0.00     0.164 A 
HETATM    7  C3  UNL     1     101.189  62.171  -6.603  1.00  0.00     0.201 A 
HETATM    8  O1  UNL     1     100.568  60.931  -6.737  1.00  0.00    -0.379 OA
ENDBRANCH   5   6
ENDBRANCH   3   5
BRANCH   1   9
HETATM    9  N1  UNL     1      99.098  58.951  -2.236  1.00  0.00    -0.331 N 
ATOM     10  H12 UNL     1      98.232  58.914  -2.774  1.00  0.00     0.178 HD
ATOM     11  H11 UNL     1      99.210  58.386  -1.394  1.00  0.00     0.178 HD
ENDBRANCH   1   9
TORSDOF 3
ENDMDL
MODEL 2
REMARK VINA RESULT: -3.745825772      5.796      6.506
REMARK  3 active torsions:
REMARK  status: ('A' for Active; 'I' for Inactive)
REMARK    1  A    between atoms: N1_1  and  N2_4 
REMARK    2  A    between atoms: N3_6  and  C1_8 
REMARK    3  A    between atoms: C1_8  and  C2_9 
ROOT
HETATM    1  N2  UNL     1      96.008  62.577 -10.260  1.00  0.00    -0.254 N 
ATOM      2  H2  UNL     1      96.639  62.594 -11.061  1.00  0.00     0.207 HD
HETATM    3  N3  UNL     1      96.263  61.814  -9.278  1.00  0.00    -0.320 N 
ATOM      4  H3  UNL     1      95.635  61.792  -8.474  1.00  0.00     0.181 HD
ENDROOT
BRANCH   3   5
HETATM    5  C1  UNL     1      97.432  60.982  -9.297  1.00  0.00     0.174 C 
BRANCH   5   6
HETATM    6  C2  UNL     1      98.101  60.833  -7.978  1.00  0.00     0.164 A 
HETATM    7  C3  UNL     1      99.537  61.311  -7.902  1.00  0.00     0.201 A 
HETATM    8  O1  UNL     1      99.150  59.978  -7.773  1.00  0.00    -0.379 OA
ENDBRANCH   5   6
ENDBRANCH   3   5
BRANCH   1   9
HETATM    9  N1  UNL     1      94.872  63.394 -10.259  1.00  0.00    -0.331 N 
ATOM     10  H12 UNL     1      94.320  63.462  -9.404  1.00  0.00     0.178 HD
ATOM     11  H11 UNL     1      94.600  63.913 -11.094  1.00  0.00     0.178 HD
ENDBRANCH   1   9
TORSDOF 3
ENDMDL
MODEL 3
REMARK VINA RESULT: -3.722950000      7.831      8.401
REMARK  3 active torsions:
REMARK  status: ('A' for Active; 'I' for Inactive)
REMARK    1  A    between atoms: N1_1  and  N2_4 
REMARK    2  A    between atoms: N3_6  and  C1_8 
REMARK    3  A    between atoms: C1_8  and  C2_9 
ROOT
HETATM    1  N2  UNL     1      93.739  61.316 -11.168  1.00  0.00    -0.254 N 
ATOM      2  H2  UNL     1      94.134  61.967 -11.846  1.00  0.00     0.207 HD
HETATM    3  N3  UNL     1      94.254  61.227 -10.011  1.00  0.00    -0.320 N 
ATOM      4  H3  UNL     1      93.862  60.578  -9.329  1.00  0.00     0.181 HD
ENDROOT
BRANCH   3   5
HETATM    5  C1  UNL     1      95.385  62.038  -9.663  1.00  0.00     0.174 C 
BRANCH   5   6
HETATM    6  C2  UNL     1      96.697  61.466 -10.062  1.00  0.00     0.164 A 
HETATM    7  C3  UNL     1      97.453  62.221 -11.138  1.00  0.00     0.201 A 
HETATM    8  O1  UNL     1      96.928  60.940 -11.304  1.00  0.00    -0.379 OA
ENDBRANCH   5   6
ENDBRANCH   3   5
BRANCH   1   9
HETATM    9  N1  UNL     1      92.635  60.534 -11.526  1.00  0.00    -0.331 N 
ATOM     10  H12 UNL     1      91.703  60.938 -11.442  1.00  0.00     0.178 HD
ATOM     11  H11 UNL     1      92.758  59.579 -11.864  1.00  0.00     0.178 HD
ENDBRANCH   1   9
TORSDOF 3
ENDMDL
MODEL 4
REMARK VINA RESULT: -3.706388624      7.867      8.447
REMARK  3 active torsions:
REMARK  status: ('A' for Active; 'I' for Inactive)
REMARK    1  A    between atoms: N1_1  and  N2_4 
REMARK    2  A    between atoms: N3_6  and  C1_8 
REMARK    3  A    between atoms: C1_8  and  C2_9 
ROOT
HETATM    1  N2  UNL     1      95.646  61.029  -9.259  1.00  0.00    -0.254 N 
ATOM      2  H2  UNL     1      95.140  61.433  -8.471  1.00  0.00     0.207 HD
HETATM    3  N3  UNL     1      95.288  61.310 -10.444  1.00  0.00    -0.320 N 
ATOM      4  H3  UNL     1      95.790  60.909 -11.236  1.00  0.00     0.181 HD
ENDROOT
BRANCH   3   5
HETATM    5  C1  UNL     1      94.178  62.191 -10.671  1.00  0.00     0.174 C 
BRANCH   5   6
HETATM    6  C2  UNL     1      94.447  63.615 -10.343  1.00  0.00     0.164 A 
HETATM    7  C3  UNL     1      93.790  64.642 -11.243  1.00  0.00     0.201 A 
HETATM    8  O1  UNL     1      95.166  64.441 -11.165  1.00  0.00    -0.379 OA
ENDBRANCH   5   6
ENDBRANCH   3   5
BRANCH   1   9
HETATM    9  N1  UNL     1      96.725  60.172  -9.018  1.00  0.00    -0.331 N 
ATOM     10  H12 UNL     1      96.596  59.394  -8.371  1.00  0.00     0.178 HD
ATOM     11  H11 UNL     1      97.624  60.319  -9.479  1.00  0.00     0.178 HD
ENDBRANCH   1   9
TORSDOF 3
ENDMDL
MODEL 5
REMARK VINA RESULT: -3.700084809      6.559      7.356
REMARK  3 active torsions:
REMARK  status: ('A' for Active; 'I' for Inactive)
REMARK    1  A    between atoms: N1_1  and  N2_4 
REMARK    2  A    between atoms: N3_6  and  C1_8 
REMARK    3  A    between atoms: C1_8  and  C2_9 
ROOT
HETATM    1  N2  UNL     1      96.812  63.037 -10.861  1.00  0.00    -0.254 N 
ATOM      2  H2  UNL     1      97.624  62.433 -10.983  1.00  0.00     0.207 HD
HETATM    3  N3  UNL     1      95.900  62.703 -10.044  1.00  0.00    -0.320 N 
ATOM      4  H3  UNL     1      95.085  63.304  -9.917  1.00  0.00     0.181 HD
ENDROOT
BRANCH   3   5
HETATM    5  C1  UNL     1      96.013  61.483  -9.298  1.00  0.00     0.174 C 
BRANCH   5   6
HETATM    6  C2  UNL     1      97.353  60.846  -9.362  1.00  0.00     0.164 A 
HETATM    7  C3  UNL     1      98.103  60.738  -8.049  1.00  0.00     0.201 A 
HETATM    8  O1  UNL     1      98.512  61.532  -9.119  1.00  0.00    -0.379 OA
ENDBRANCH   5   6
ENDBRANCH   3   5
BRANCH   1   9
HETATM    9  N1  UNL     1      96.719  64.224 -11.597  1.00  0.00    -0.331 N 
ATOM     10  H12 UNL     1      95.869  64.782 -11.516  1.00  0.00     0.178 HD
ATOM     11  H11 UNL     1      97.483  64.526 -12.201  1.00  0.00     0.178 HD
ENDBRANCH   1   9
TORSDOF 3
ENDMDL
