MODEL 1
REMARK VINA RESULT: -3.452111159      0.000      0.000
REMARK  2 active torsions:
REMARK  status: ('A' for Active; 'I' for Inactive)
REMARK    1  A    between atoms: O1_1  and  C1_3 
REMARK    2  A    between atoms: C1_3  and  N1_4 
ROOT
HETATM    1  N1  UNL     1      93.971  63.792 -10.368  1.00  0.00    -0.352 N 
ATOM      2  H1  UNL     1      93.166  63.776  -9.743  1.00  0.00     0.163 HD
HETATM    3  C2  UNL     1      94.814  62.845 -10.345  1.00  0.00     0.140 A 
HETATM    4  C3  UNL     1      95.957  61.943 -10.582  1.00  0.00     0.260 A 
HETATM    5  O2  UNL     1      94.960  61.591  -9.575  1.00  0.00    -0.330 OA
ENDROOT
BRANCH   1   6
HETATM    6  C1  UNL     1      94.158  64.897 -11.287  1.00  0.00     0.288 C 
BRANCH   6   7
HETATM    7  O1  UNL     1      92.969  65.039 -11.998  1.00  0.00    -0.382 OA
ATOM      8  H1  UNL     1      92.601  65.882 -11.758  1.00  0.00     0.211 HD
ENDBRANCH   6   7
ENDBRANCH   1   6
TORSDOF 2
ENDMDL
MODEL 2
REMARK VINA RESULT: -3.326629309      5.244      5.495
REMARK  2 active torsions:
REMARK  status: ('A' for Active; 'I' for Inactive)
REMARK    1  A    between atoms: O1_1  and  C1_3 
REMARK    2  A    between atoms: C1_3  and  N1_4 
ROOT
HETATM    1  N1  UNL     1      97.680  59.943  -9.914  1.00  0.00    -0.352 N 
ATOM      2  H1  UNL     1      97.034  59.203  -9.639  1.00  0.00     0.163 HD
HETATM    3  C2  UNL     1      98.434  60.484  -9.051  1.00  0.00     0.140 A 
HETATM    4  C3  UNL     1      99.426  61.311  -8.336  1.00  0.00     0.260 A 
HETATM    5  O2  UNL     1      98.655  60.315  -7.599  1.00  0.00    -0.330 OA
ENDROOT
BRANCH   1   6
HETATM    6  C1  UNL     1      97.738  60.381 -11.295  1.00  0.00     0.288 C 
BRANCH   6   7
HETATM    7  O1  UNL     1      98.576  59.494 -11.966  1.00  0.00    -0.382 OA
ATOM      8  H1  UNL     1      98.577  58.684 -11.470  1.00  0.00     0.211 HD
ENDBRANCH   6   7
ENDBRANCH   1   6
TORSDOF 2
ENDMDL
MODEL 3
REMARK VINA RESULT: -3.293375203      5.113      5.568
REMARK  2 active torsions:
REMARK  status: ('A' for Active; 'I' for Inactive)
REMARK    1  A    between atoms: O1_1  and  C1_3 
REMARK    2  A    between atoms: C1_3  and  N1_4 
ROOT
HETATM    1  N1  UNL     1      97.292  60.068  -9.609  1.00  0.00    -0.352 N 
ATOM      2  H1  UNL     1      96.493  59.435  -9.666  1.00  0.00     0.163 HD
HETATM    3  C2  UNL     1      98.014  60.275 -10.629  1.00  0.00     0.140 A 
HETATM    4  C3  UNL     1      99.039  60.736 -11.586  1.00  0.00     0.260 A 
HETATM    5  O2  UNL     1      98.013  59.797 -12.029  1.00  0.00    -0.330 OA
ENDROOT
BRANCH   1   6
HETATM    6  C1  UNL     1      97.605  60.733  -8.360  1.00  0.00     0.288 C 
BRANCH   6   7
HETATM    7  O1  UNL     1      98.653  60.025  -7.774  1.00  0.00    -0.382 OA
ATOM      8  H1  UNL     1      99.358  59.999  -8.410  1.00  0.00     0.211 HD
ENDBRANCH   6   7
ENDBRANCH   1   6
TORSDOF 2
ENDMDL
MODEL 4
REMARK VINA RESULT: -3.284047816      2.310      3.950
REMARK  2 active torsions:
REMARK  status: ('A' for Active; 'I' for Inactive)
REMARK    1  A    between atoms: O1_1  and  C1_3 
REMARK    2  A    between atoms: C1_3  and  N1_4 
ROOT
HETATM    1  N1  UNL     1      96.041  62.048  -9.332  1.00  0.00    -0.352 N 
ATOM      2  H1  UNL     1      96.528  62.928  -9.164  1.00  0.00     0.163 HD
HETATM    3  C2  UNL     1      95.006  62.023 -10.063  1.00  0.00     0.140 A 
HETATM    4  C3  UNL     1      93.809  61.633 -10.834  1.00  0.00     0.260 A 
HETATM    5  O2  UNL     1      94.230  63.030 -10.817  1.00  0.00    -0.330 OA
ENDROOT
BRANCH   1   6
HETATM    6  C1  UNL     1      96.530  60.820  -8.736  1.00  0.00     0.288 C 
BRANCH   6   7
HETATM    7  O1  UNL     1      97.096  60.068  -9.763  1.00  0.00    -0.382 OA
ATOM      8  H1  UNL     1      98.034  60.212  -9.726  1.00  0.00     0.211 HD
ENDBRANCH   6   7
ENDBRANCH   1   6
TORSDOF 2
ENDMDL
MODEL 5
REMARK VINA RESULT: -3.259124169      8.626      9.212
REMARK  2 active torsions:
REMARK  status: ('A' for Active; 'I' for Inactive)
REMARK    1  A    between atoms: O1_1  and  C1_3 
REMARK    2  A    between atoms: C1_3  and  N1_4 
ROOT
HETATM    1  N1  UNL     1     100.872  61.850  -6.004  1.00  0.00    -0.352 N 
ATOM      2  H1  UNL     1     100.281  61.984  -6.824  1.00  0.00     0.163 HD
HETATM    3  C2  UNL     1     101.337  62.853  -5.384  1.00  0.00     0.140 A 
HETATM    4  C3  UNL     1     102.029  63.760  -4.448  1.00  0.00     0.260 A 
HETATM    5  O2  UNL     1     101.245  64.319  -5.544  1.00  0.00    -0.330 OA
ENDROOT
BRANCH   1   6
HETATM    6  C1  UNL     1     101.184  60.512  -5.543  1.00  0.00     0.288 C 
BRANCH   6   7
HETATM    7  O1  UNL     1     100.146  60.120  -4.701  1.00  0.00    -0.382 OA
ATOM      8  H1  UNL     1     100.543  59.687  -3.955  1.00  0.00     0.211 HD
ENDBRANCH   6   7
ENDBRANCH   1   6
TORSDOF 2
ENDMDL
