MODEL 1
REMARK VINA RESULT: -6.372461722      0.000      0.000
REMARK  20 active torsions:
REMARK  status: ('A' for Active; 'I' for Inactive)
REMARK    1  A    between atoms: C2_2  and  C3_3 
REMARK    2  A    between atoms: C3_3  and  C4_4 
REMARK    3  A    between atoms: C4_4  and  C5_5 
REMARK    4  A    between atoms: C5_5  and  C7_7 
REMARK    5  A    between atoms: C7_7  and  C8_8 
REMARK    6  A    between atoms: C8_8  and  O1_9 
REMARK    7  A    between atoms: C8_8  and  C9_11 
REMARK    8  A    between atoms: C9_11  and  C11_13 
REMARK    9  A    between atoms: C11_13  and  O2_14 
REMARK   10  A    between atoms: C11_13  and  C12_16 
REMARK   11  A    between atoms: C12_16  and  O3_17 
REMARK   12  A    between atoms: C12_16  and  C13_19 
REMARK   13  A    between atoms: C15_23  and  C16_24 
REMARK   14  A    between atoms: C16_24  and  C17_25 
REMARK   15  A    between atoms: C17_25  and  O7_27 
REMARK   16  A    between atoms: O7_27  and  C18_28 
REMARK   17  A    between atoms: C18_28  and  C20_30 
REMARK   18  A    between atoms: C21_31  and  O8_32 
REMARK   19  A    between atoms: C24_36  and  C26_38 
REMARK   20  A    between atoms: C26_38  and  O9_40 
ROOT
HETATM    1  C13 UNL     1      27.818  29.049  16.477  1.00  0.00     0.177 C 
HETATM    2  O4  UNL     1      27.034  28.203  15.701  1.00  0.00    -0.312 OA
HETATM    3  C14 UNL     1      26.118  28.195  16.739  1.00  0.00     0.266 C 
HETATM    4  O5  UNL     1      25.288  27.357  17.148  1.00  0.00    -0.265 OA
HETATM    5  C15 UNL     1      26.578  29.563  17.095  1.00  0.00     0.127 C 
ENDROOT
BRANCH   1   6
HETATM    6  C12 UNL     1      28.893  28.463  17.337  1.00  0.00     0.177 C 
BRANCH   6   7
HETATM    7  C11 UNL     1      30.145  29.262  17.374  1.00  0.00     0.155 C 
BRANCH   7   8
HETATM    8  C9  UNL     1      30.140  30.644  17.894  1.00  0.00     0.042 C 
HETATM    9  C10 UNL     1      29.952  30.498  19.429  1.00  0.00     0.015 C 
BRANCH   8  10
HETATM   10  C8  UNL     1      31.379  31.466  17.698  1.00  0.00     0.124 C 
BRANCH  10  11
HETATM   11  C7  UNL     1      32.152  31.355  19.025  1.00  0.00     0.036 C 
BRANCH  11  12
HETATM   12  C5  UNL     1      33.550  30.939  18.826  1.00  0.00    -0.016 C 
HETATM   13  C6  UNL     1      34.000  30.716  17.412  1.00  0.00     0.010 C 
BRANCH  12  14
HETATM   14  C4  UNL     1      34.028  29.924  19.800  1.00  0.00     0.008 C 
BRANCH  14  15
HETATM   15  C3  UNL     1      33.033  29.212  20.626  1.00  0.00     0.027 C 
BRANCH  15  16
HETATM   16  C2  UNL     1      33.536  28.301  21.664  1.00  0.00    -0.037 C 
HETATM   17  C1  UNL     1      33.959  27.052  21.382  1.00  0.00     0.007 C 
ENDBRANCH  15  16
ENDBRANCH  14  15
ENDBRANCH  12  14
ENDBRANCH  11  12
ENDBRANCH  10  11
BRANCH  10  18
HETATM   18  O1  UNL     1      31.026  32.802  17.551  1.00  0.00    -0.395 OA
ATOM     19  H1  UNL     1      31.770  33.239  17.152  1.00  0.00     0.210 HD
ENDBRANCH  10  18
ENDBRANCH   8  10
ENDBRANCH   7   8
BRANCH   7  20
HETATM   20  O2  UNL     1      30.820  29.163  16.155  1.00  0.00    -0.392 OA
ATOM     21  H2  UNL     1      30.765  29.967  15.651  1.00  0.00     0.210 HD
ENDBRANCH   7  20
ENDBRANCH   6   7
BRANCH   6  22
HETATM   22  O3  UNL     1      29.146  27.135  17.191  1.00  0.00    -0.390 OA
ATOM     23  H3  UNL     1      28.862  26.813  16.344  1.00  0.00     0.210 HD
ENDBRANCH   6  22
ENDBRANCH   1   6
BRANCH   5  24
HETATM   24  C16 UNL     1      26.521  29.779  18.570  1.00  0.00     0.128 C 
BRANCH  24  25
HETATM   25  C17 UNL     1      25.560  30.860  18.942  1.00  0.00     0.260 C 
HETATM   26  O6  UNL     1      24.789  31.305  18.054  1.00  0.00    -0.265 OA
BRANCH  25  27
HETATM   27  O7  UNL     1      25.464  31.396  20.191  1.00  0.00    -0.316 OA
BRANCH  27  28
HETATM   28  C18 UNL     1      25.522  30.687  21.379  1.00  0.00     0.135 C 
HETATM   29  C19 UNL     1      26.443  31.402  22.396  1.00  0.00     0.040 C 
BRANCH  28  30
HETATM   30  C20 UNL     1      24.259  30.388  22.076  1.00  0.00     0.054 C 
HETATM   31  C21 UNL     1      23.178  31.421  21.768  1.00  0.00     0.125 C 
HETATM   32  C22 UNL     1      22.343  30.750  20.702  1.00  0.00     0.033 C 
HETATM   33  C23 UNL     1      22.835  29.323  20.571  1.00  0.00     0.014 C 
HETATM   34  C24 UNL     1      23.547  29.131  21.893  1.00  0.00    -0.010 C 
HETATM   35  C25 UNL     1      22.399  29.101  22.935  1.00  0.00     0.018 C 
BRANCH  31  36
HETATM   36  O8  UNL     1      22.388  31.726  22.864  1.00  0.00    -0.395 OA
ATOM     37  H8  UNL     1      21.472  31.511  22.735  1.00  0.00     0.210 HD
ENDBRANCH  31  36
BRANCH  34  38
HETATM   38  C26 UNL     1      24.237  27.838  22.059  1.00  0.00     0.122 C 
HETATM   39  C27 UNL     1      24.916  27.471  20.757  1.00  0.00     0.040 C 
BRANCH  38  40
HETATM   40  O9  UNL     1      23.596  26.824  22.694  1.00  0.00    -0.395 OA
ATOM     41  H9  UNL     1      24.077  26.033  22.906  1.00  0.00     0.210 HD
ENDBRANCH  38  40
ENDBRANCH  34  38
ENDBRANCH  28  30
ENDBRANCH  27  28
ENDBRANCH  25  27
ENDBRANCH  24  25
ENDBRANCH   5  24
TORSDOF 20
ENDMDL
MODEL 2
REMARK VINA RESULT: -6.355098498      2.146      4.564
REMARK  20 active torsions:
REMARK  status: ('A' for Active; 'I' for Inactive)
REMARK    1  A    between atoms: C2_2  and  C3_3 
REMARK    2  A    between atoms: C3_3  and  C4_4 
REMARK    3  A    between atoms: C4_4  and  C5_5 
REMARK    4  A    between atoms: C5_5  and  C7_7 
REMARK    5  A    between atoms: C7_7  and  C8_8 
REMARK    6  A    between atoms: C8_8  and  O1_9 
REMARK    7  A    between atoms: C8_8  and  C9_11 
REMARK    8  A    between atoms: C9_11  and  C11_13 
REMARK    9  A    between atoms: C11_13  and  O2_14 
REMARK   10  A    between atoms: C11_13  and  C12_16 
REMARK   11  A    between atoms: C12_16  and  O3_17 
REMARK   12  A    between atoms: C12_16  and  C13_19 
REMARK   13  A    between atoms: C15_23  and  C16_24 
REMARK   14  A    between atoms: C16_24  and  C17_25 
REMARK   15  A    between atoms: C17_25  and  O7_27 
REMARK   16  A    between atoms: O7_27  and  C18_28 
REMARK   17  A    between atoms: C18_28  and  C20_30 
REMARK   18  A    between atoms: C21_31  and  O8_32 
REMARK   19  A    between atoms: C24_36  and  C26_38 
REMARK   20  A    between atoms: C26_38  and  O9_40 
ROOT
HETATM    1  C13 UNL     1      26.045  29.447  20.489  1.00  0.00     0.177 C 
HETATM    2  O4  UNL     1      26.671  30.133  21.523  1.00  0.00    -0.312 OA
HETATM    3  C14 UNL     1      25.411  30.399  22.033  1.00  0.00     0.266 C 
HETATM    4  O5  UNL     1      24.935  31.335  22.707  1.00  0.00    -0.265 OA
HETATM    5  C15 UNL     1      24.948  29.123  21.426  1.00  0.00     0.127 C 
ENDROOT
BRANCH   1   6
HETATM    6  C12 UNL     1      25.747  30.165  19.211  1.00  0.00     0.177 C 
BRANCH   6   7
HETATM    7  C11 UNL     1      26.504  29.657  18.038  1.00  0.00     0.155 C 
BRANCH   7   8
HETATM    8  C9  UNL     1      27.907  29.218  18.182  1.00  0.00     0.042 C 
HETATM    9  C10 UNL     1      28.222  28.435  16.878  1.00  0.00     0.015 C 
BRANCH   8  10
HETATM   10  C8  UNL     1      28.959  30.281  18.299  1.00  0.00     0.124 C 
BRANCH  10  11
HETATM   11  C7  UNL     1      30.299  29.522  18.320  1.00  0.00     0.036 C 
BRANCH  11  12
HETATM   12  C5  UNL     1      31.303  30.182  19.171  1.00  0.00    -0.016 C 
HETATM   13  C6  UNL     1      32.379  30.963  18.474  1.00  0.00     0.010 C 
BRANCH  12  14
HETATM   14  C4  UNL     1      31.774  29.354  20.311  1.00  0.00     0.008 C 
BRANCH  14  15
HETATM   15  C3  UNL     1      33.227  29.229  20.543  1.00  0.00     0.027 C 
BRANCH  15  16
HETATM   16  C2  UNL     1      33.671  28.314  21.605  1.00  0.00    -0.037 C 
HETATM   17  C1  UNL     1      34.001  27.030  21.357  1.00  0.00     0.007 C 
ENDBRANCH  15  16
ENDBRANCH  14  15
ENDBRANCH  12  14
ENDBRANCH  11  12
ENDBRANCH  10  11
BRANCH  10  18
HETATM   18  O1  UNL     1      28.839  30.914  19.531  1.00  0.00    -0.395 OA
ATOM     19  H1  UNL     1      28.800  31.847  19.356  1.00  0.00     0.210 HD
ENDBRANCH  10  18
ENDBRANCH   8  10
ENDBRANCH   7   8
BRANCH   7  20
HETATM   20  O2  UNL     1      26.330  30.507  16.943  1.00  0.00    -0.392 OA
ATOM     21  H2  UNL     1      26.336  30.034  16.120  1.00  0.00     0.210 HD
ENDBRANCH   7  20
ENDBRANCH   6   7
BRANCH   6  22
HETATM   22  O3  UNL     1      25.735  31.524  19.253  1.00  0.00    -0.390 OA
ATOM     23  H3  UNL     1      25.862  31.850  20.136  1.00  0.00     0.210 HD
ENDBRANCH   6  22
ENDBRANCH   1   6
BRANCH   5  24
HETATM   24  C16 UNL     1      23.531  29.232  20.971  1.00  0.00     0.128 C 
BRANCH  24  25
HETATM   25  C17 UNL     1      22.616  28.364  21.772  1.00  0.00     0.260 C 
HETATM   26  O6  UNL     1      23.121  27.446  22.466  1.00  0.00    -0.265 OA
BRANCH  25  27
HETATM   27  O7  UNL     1      21.262  28.508  21.799  1.00  0.00    -0.316 OA
BRANCH  27  28
HETATM   28  C18 UNL     1      20.571  29.688  21.576  1.00  0.00     0.135 C 
HETATM   29  C19 UNL     1      19.380  29.450  20.618  1.00  0.00     0.040 C 
BRANCH  28  30
HETATM   30  C20 UNL     1      20.048  30.421  22.741  1.00  0.00     0.054 C 
HETATM   31  C21 UNL     1      19.773  29.494  23.923  1.00  0.00     0.125 C 
HETATM   32  C22 UNL     1      20.992  29.670  24.800  1.00  0.00     0.033 C 
HETATM   33  C23 UNL     1      21.813  30.800  24.213  1.00  0.00     0.014 C 
HETATM   34  C24 UNL     1      20.779  31.513  23.367  1.00  0.00    -0.010 C 
HETATM   35  C25 UNL     1      19.829  32.161  24.408  1.00  0.00     0.018 C 
BRANCH  31  36
HETATM   36  O8  UNL     1      18.631  29.835  24.629  1.00  0.00    -0.395 OA
ATOM     37  H8  UNL     1      18.035  29.105  24.749  1.00  0.00     0.210 HD
ENDBRANCH  31  36
BRANCH  34  38
HETATM   38  C26 UNL     1      21.285  32.644  22.568  1.00  0.00     0.122 C 
HETATM   39  C27 UNL     1      20.118  33.336  21.898  1.00  0.00     0.040 C 
BRANCH  38  40
HETATM   40  O9  UNL     1      22.386  32.465  21.794  1.00  0.00    -0.395 OA
ATOM     41  H9  UNL     1      22.816  33.224  21.419  1.00  0.00     0.210 HD
ENDBRANCH  38  40
ENDBRANCH  34  38
ENDBRANCH  28  30
ENDBRANCH  27  28
ENDBRANCH  25  27
ENDBRANCH  24  25
ENDBRANCH   5  24
TORSDOF 20
ENDMDL
MODEL 3
REMARK VINA RESULT: -6.340260677      1.935      3.393
REMARK  20 active torsions:
REMARK  status: ('A' for Active; 'I' for Inactive)
REMARK    1  A    between atoms: C2_2  and  C3_3 
REMARK    2  A    between atoms: C3_3  and  C4_4 
REMARK    3  A    between atoms: C4_4  and  C5_5 
REMARK    4  A    between atoms: C5_5  and  C7_7 
REMARK    5  A    between atoms: C7_7  and  C8_8 
REMARK    6  A    between atoms: C8_8  and  O1_9 
REMARK    7  A    between atoms: C8_8  and  C9_11 
REMARK    8  A    between atoms: C9_11  and  C11_13 
REMARK    9  A    between atoms: C11_13  and  O2_14 
REMARK   10  A    between atoms: C11_13  and  C12_16 
REMARK   11  A    between atoms: C12_16  and  O3_17 
REMARK   12  A    between atoms: C12_16  and  C13_19 
REMARK   13  A    between atoms: C15_23  and  C16_24 
REMARK   14  A    between atoms: C16_24  and  C17_25 
REMARK   15  A    between atoms: C17_25  and  O7_27 
REMARK   16  A    between atoms: O7_27  and  C18_28 
REMARK   17  A    between atoms: C18_28  and  C20_30 
REMARK   18  A    between atoms: C21_31  and  O8_32 
REMARK   19  A    between atoms: C24_36  and  C26_38 
REMARK   20  A    between atoms: C26_38  and  O9_40 
ROOT
HETATM    1  C13 UNL     1      27.525  30.342  19.965  1.00  0.00     0.177 C 
HETATM    2  O4  UNL     1      27.107  31.668  19.955  1.00  0.00    -0.312 OA
HETATM    3  C14 UNL     1      25.806  31.196  19.900  1.00  0.00     0.266 C 
HETATM    4  O5  UNL     1      24.748  31.645  19.413  1.00  0.00    -0.265 OA
HETATM    5  C15 UNL     1      26.260  29.992  20.644  1.00  0.00     0.127 C 
ENDROOT
BRANCH   1   6
HETATM    6  C12 UNL     1      27.886  29.681  18.672  1.00  0.00     0.177 C 
BRANCH   6   7
HETATM    7  C11 UNL     1      29.348  29.573  18.432  1.00  0.00     0.155 C 
BRANCH   7   8
HETATM    8  C9  UNL     1      30.281  30.551  19.027  1.00  0.00     0.042 C 
HETATM    9  C10 UNL     1      31.212  29.715  19.947  1.00  0.00     0.015 C 
BRANCH   8  10
HETATM   10  C8  UNL     1      31.182  31.310  18.096  1.00  0.00     0.124 C 
BRANCH  10  11
HETATM   11  C7  UNL     1      32.566  31.292  18.769  1.00  0.00     0.036 C 
BRANCH  11  12
HETATM   12  C5  UNL     1      33.657  31.094  17.800  1.00  0.00    -0.016 C 
HETATM   13  C6  UNL     1      33.281  30.556  16.451  1.00  0.00     0.010 C 
BRANCH  12  14
HETATM   14  C4  UNL     1      34.891  30.507  18.384  1.00  0.00     0.008 C 
BRANCH  14  15
HETATM   15  C3  UNL     1      34.979  30.359  19.850  1.00  0.00     0.027 C 
BRANCH  15  16
HETATM   16  C2  UNL     1      35.329  29.034  20.381  1.00  0.00    -0.037 C 
HETATM   17  C1  UNL     1      34.450  28.280  21.074  1.00  0.00     0.007 C 
ENDBRANCH  15  16
ENDBRANCH  14  15
ENDBRANCH  12  14
ENDBRANCH  11  12
ENDBRANCH  10  11
BRANCH  10  18
HETATM   18  O1  UNL     1      30.777  32.639  18.046  1.00  0.00    -0.395 OA
ATOM     19  H1  UNL     1      30.301  32.810  18.850  1.00  0.00     0.210 HD
ENDBRANCH  10  18
ENDBRANCH   8  10
ENDBRANCH   7   8
BRANCH   7  20
HETATM   20  O2  UNL     1      29.603  29.365  17.075  1.00  0.00    -0.392 OA
ATOM     21  H2  UNL     1      29.368  30.119  16.547  1.00  0.00     0.210 HD
ENDBRANCH   7  20
ENDBRANCH   6   7
BRANCH   6  22
HETATM   22  O3  UNL     1      27.222  30.094  17.560  1.00  0.00    -0.390 OA
ATOM     23  H3  UNL     1      26.959  31.004  17.624  1.00  0.00     0.210 HD
ENDBRANCH   6  22
ENDBRANCH   1   6
BRANCH   5  24
HETATM   24  C16 UNL     1      25.501  28.782  20.214  1.00  0.00     0.128 C 
BRANCH  24  25
HETATM   25  C17 UNL     1      24.560  28.305  21.272  1.00  0.00     0.260 C 
HETATM   26  O6  UNL     1      24.971  27.445  22.093  1.00  0.00    -0.265 OA
BRANCH  25  27
HETATM   27  O7  UNL     1      23.278  28.747  21.405  1.00  0.00    -0.316 OA
BRANCH  27  28
HETATM   28  C18 UNL     1      22.783  29.474  22.475  1.00  0.00     0.135 C 
HETATM   29  C19 UNL     1      23.506  30.838  22.588  1.00  0.00     0.040 C 
BRANCH  28  30
HETATM   30  C20 UNL     1      21.337  29.747  22.524  1.00  0.00     0.054 C 
HETATM   31  C21 UNL     1      20.578  29.007  21.426  1.00  0.00     0.125 C 
HETATM   32  C22 UNL     1      20.019  27.796  22.137  1.00  0.00     0.033 C 
HETATM   33  C23 UNL     1      20.300  27.970  23.616  1.00  0.00     0.014 C 
HETATM   34  C24 UNL     1      20.530  29.464  23.702  1.00  0.00    -0.010 C 
HETATM   35  C25 UNL     1      19.126  30.074  23.452  1.00  0.00     0.018 C 
BRANCH  31  36
HETATM   36  O8  UNL     1      19.545  29.752  20.880  1.00  0.00    -0.395 OA
ATOM     37  H8  UNL     1      19.412  29.583  19.955  1.00  0.00     0.210 HD
ENDBRANCH  31  36
BRANCH  34  38
HETATM   38  C26 UNL     1      20.925  29.968  25.031  1.00  0.00     0.122 C 
HETATM   39  C27 UNL     1      20.864  31.480  25.023  1.00  0.00     0.040 C 
BRANCH  38  40
HETATM   40  O9  UNL     1      22.005  29.426  25.649  1.00  0.00    -0.395 OA
ATOM     41  H9  UNL     1      22.681  30.001  25.988  1.00  0.00     0.210 HD
ENDBRANCH  38  40
ENDBRANCH  34  38
ENDBRANCH  28  30
ENDBRANCH  27  28
ENDBRANCH  25  27
ENDBRANCH  24  25
ENDBRANCH   5  24
TORSDOF 20
ENDMDL
MODEL 4
REMARK VINA RESULT: -6.314317548      1.524      1.976
REMARK  20 active torsions:
REMARK  status: ('A' for Active; 'I' for Inactive)
REMARK    1  A    between atoms: C2_2  and  C3_3 
REMARK    2  A    between atoms: C3_3  and  C4_4 
REMARK    3  A    between atoms: C4_4  and  C5_5 
REMARK    4  A    between atoms: C5_5  and  C7_7 
REMARK    5  A    between atoms: C7_7  and  C8_8 
REMARK    6  A    between atoms: C8_8  and  O1_9 
REMARK    7  A    between atoms: C8_8  and  C9_11 
REMARK    8  A    between atoms: C9_11  and  C11_13 
REMARK    9  A    between atoms: C11_13  and  O2_14 
REMARK   10  A    between atoms: C11_13  and  C12_16 
REMARK   11  A    between atoms: C12_16  and  O3_17 
REMARK   12  A    between atoms: C12_16  and  C13_19 
REMARK   13  A    between atoms: C15_23  and  C16_24 
REMARK   14  A    between atoms: C16_24  and  C17_25 
REMARK   15  A    between atoms: C17_25  and  O7_27 
REMARK   16  A    between atoms: O7_27  and  C18_28 
REMARK   17  A    between atoms: C18_28  and  C20_30 
REMARK   18  A    between atoms: C21_31  and  O8_32 
REMARK   19  A    between atoms: C24_36  and  C26_38 
REMARK   20  A    between atoms: C26_38  and  O9_40 
ROOT
HETATM    1  C13 UNL     1      26.478  27.761  16.955  1.00  0.00     0.177 C 
HETATM    2  O4  UNL     1      25.859  26.524  16.828  1.00  0.00    -0.312 OA
HETATM    3  C14 UNL     1      25.355  26.710  18.105  1.00  0.00     0.266 C 
HETATM    4  O5  UNL     1      25.040  25.930  19.028  1.00  0.00    -0.265 OA
HETATM    5  C15 UNL     1      25.376  28.174  17.850  1.00  0.00     0.127 C 
ENDROOT
BRANCH   1   6
HETATM    6  C12 UNL     1      27.894  27.823  17.437  1.00  0.00     0.177 C 
BRANCH   6   7
HETATM    7  C11 UNL     1      28.708  28.887  16.795  1.00  0.00     0.155 C 
BRANCH   7   8
HETATM    8  C9  UNL     1      30.060  29.203  17.298  1.00  0.00     0.042 C 
HETATM    9  C10 UNL     1      30.784  29.892  16.108  1.00  0.00     0.015 C 
BRANCH   8  10
HETATM   10  C8  UNL     1      30.168  30.147  18.459  1.00  0.00     0.124 C 
BRANCH  10  11
HETATM   11  C7  UNL     1      31.139  29.469  19.443  1.00  0.00     0.036 C 
BRANCH  11  12
HETATM   12  C5  UNL     1      32.313  30.307  19.738  1.00  0.00    -0.016 C 
HETATM   13  C6  UNL     1      32.627  31.407  18.766  1.00  0.00     0.010 C 
BRANCH  12  14
HETATM   14  C4  UNL     1      33.495  29.550  20.224  1.00  0.00     0.008 C 
BRANCH  14  15
HETATM   15  C3  UNL     1      33.338  28.674  21.403  1.00  0.00     0.027 C 
BRANCH  15  16
HETATM   16  C2  UNL     1      33.761  27.273  21.271  1.00  0.00    -0.037 C 
HETATM   17  C1  UNL     1      35.061  26.911  21.253  1.00  0.00     0.007 C 
ENDBRANCH  15  16
ENDBRANCH  14  15
ENDBRANCH  12  14
ENDBRANCH  11  12
ENDBRANCH  10  11
BRANCH  10  18
HETATM   18  O1  UNL     1      28.938  30.228  19.101  1.00  0.00    -0.395 OA
ATOM     19  H1  UNL     1      29.100  30.617  19.953  1.00  0.00     0.210 HD
ENDBRANCH  10  18
ENDBRANCH   8  10
ENDBRANCH   7   8
BRANCH   7  20
HETATM   20  O2  UNL     1      27.940  30.036  16.600  1.00  0.00    -0.392 OA
ATOM     21  H2  UNL     1      27.916  30.585  17.374  1.00  0.00     0.210 HD
ENDBRANCH   7  20
ENDBRANCH   6   7
BRANCH   6  22
HETATM   22  O3  UNL     1      28.572  26.647  17.516  1.00  0.00    -0.390 OA
ATOM     23  H3  UNL     1      28.275  26.118  18.247  1.00  0.00     0.210 HD
ENDBRANCH   6  22
ENDBRANCH   1   6
BRANCH   5  24
HETATM   24  C16 UNL     1      25.682  28.929  19.099  1.00  0.00     0.128 C 
BRANCH  24  25
HETATM   25  C17 UNL     1      25.401  30.389  18.956  1.00  0.00     0.260 C 
HETATM   26  O6  UNL     1      25.218  30.851  17.800  1.00  0.00    -0.265 OA
BRANCH  25  27
HETATM   27  O7  UNL     1      25.326  31.256  20.004  1.00  0.00    -0.316 OA
BRANCH  27  28
HETATM   28  C18 UNL     1      24.886  30.943  21.280  1.00  0.00     0.135 C 
HETATM   29  C19 UNL     1      25.914  31.406  22.340  1.00  0.00     0.040 C 
BRANCH  28  30
HETATM   30  C20 UNL     1      23.569  31.446  21.707  1.00  0.00     0.054 C 
HETATM   31  C21 UNL     1      22.954  32.387  20.673  1.00  0.00     0.125 C 
HETATM   32  C22 UNL     1      21.984  31.501  19.925  1.00  0.00     0.033 C 
HETATM   33  C23 UNL     1      21.929  30.173  20.651  1.00  0.00     0.014 C 
HETATM   34  C24 UNL     1      22.459  30.557  22.016  1.00  0.00    -0.010 C 
HETATM   35  C25 UNL     1      21.330  31.430  22.622  1.00  0.00     0.018 C 
BRANCH  31  36
HETATM   36  O8  UNL     1      22.278  33.453  21.242  1.00  0.00    -0.395 OA
ATOM     37  H8  UNL     1      21.913  34.050  20.599  1.00  0.00     0.210 HD
ENDBRANCH  31  36
BRANCH  34  38
HETATM   38  C26 UNL     1      22.622  29.443  22.968  1.00  0.00     0.122 C 
HETATM   39  C27 UNL     1      21.931  28.216  22.414  1.00  0.00     0.040 C 
BRANCH  38  40
HETATM   40  O9  UNL     1      22.439  29.674  24.293  1.00  0.00    -0.395 OA
ATOM     41  H9  UNL     1      22.002  29.016  24.821  1.00  0.00     0.210 HD
ENDBRANCH  38  40
ENDBRANCH  34  38
ENDBRANCH  28  30
ENDBRANCH  27  28
ENDBRANCH  25  27
ENDBRANCH  24  25
ENDBRANCH   5  24
TORSDOF 20
ENDMDL
MODEL 5
REMARK VINA RESULT: -6.306942299      6.347     10.126
REMARK  20 active torsions:
REMARK  status: ('A' for Active; 'I' for Inactive)
REMARK    1  A    between atoms: C2_2  and  C3_3 
REMARK    2  A    between atoms: C3_3  and  C4_4 
REMARK    3  A    between atoms: C4_4  and  C5_5 
REMARK    4  A    between atoms: C5_5  and  C7_7 
REMARK    5  A    between atoms: C7_7  and  C8_8 
REMARK    6  A    between atoms: C8_8  and  O1_9 
REMARK    7  A    between atoms: C8_8  and  C9_11 
REMARK    8  A    between atoms: C9_11  and  C11_13 
REMARK    9  A    between atoms: C11_13  and  O2_14 
REMARK   10  A    between atoms: C11_13  and  C12_16 
REMARK   11  A    between atoms: C12_16  and  O3_17 
REMARK   12  A    between atoms: C12_16  and  C13_19 
REMARK   13  A    between atoms: C15_23  and  C16_24 
REMARK   14  A    between atoms: C16_24  and  C17_25 
REMARK   15  A    between atoms: C17_25  and  O7_27 
REMARK   16  A    between atoms: O7_27  and  C18_28 
REMARK   17  A    between atoms: C18_28  and  C20_30 
REMARK   18  A    between atoms: C21_31  and  O8_32 
REMARK   19  A    between atoms: C24_36  and  C26_38 
REMARK   20  A    between atoms: C26_38  and  O9_40 
ROOT
HETATM    1  C13 UNL     1      32.121  31.878  14.372  1.00  0.00     0.177 C 
HETATM    2  O4  UNL     1      31.493  32.631  13.387  1.00  0.00    -0.312 OA
HETATM    3  C14 UNL     1      32.703  33.273  13.187  1.00  0.00     0.266 C 
HETATM    4  O5  UNL     1      33.016  34.420  12.805  1.00  0.00    -0.265 OA
HETATM    5  C15 UNL     1      33.385  32.024  13.619  1.00  0.00     0.127 C 
ENDROOT
BRANCH   1   6
HETATM    6  C12 UNL     1      32.045  32.330  15.796  1.00  0.00     0.177 C 
BRANCH   6   7
HETATM    7  C11 UNL     1      32.195  31.237  16.791  1.00  0.00     0.155 C 
BRANCH   7   8
HETATM    8  C9  UNL     1      32.948  31.457  18.042  1.00  0.00     0.042 C 
HETATM    9  C10 UNL     1      31.895  31.329  19.176  1.00  0.00     0.015 C 
BRANCH   8  10
HETATM   10  C8  UNL     1      34.045  30.488  18.374  1.00  0.00     0.124 C 
BRANCH  10  11
HETATM   11  C7  UNL     1      34.486  30.851  19.804  1.00  0.00     0.036 C 
BRANCH  11  12
HETATM   12  C5  UNL     1      34.824  29.663  20.604  1.00  0.00    -0.016 C 
HETATM   13  C6  UNL     1      36.184  29.064  20.393  1.00  0.00     0.010 C 
BRANCH  12  14
HETATM   14  C4  UNL     1      33.721  28.676  20.725  1.00  0.00     0.008 C 
BRANCH  14  15
HETATM   15  C3  UNL     1      33.695  27.784  21.902  1.00  0.00     0.027 C 
BRANCH  15  16
HETATM   16  C2  UNL     1      34.173  26.405  21.721  1.00  0.00    -0.037 C 
HETATM   17  C1  UNL     1      35.323  25.963  22.271  1.00  0.00     0.007 C 
ENDBRANCH  15  16
ENDBRANCH  14  15
ENDBRANCH  12  14
ENDBRANCH  11  12
ENDBRANCH  10  11
BRANCH  10  18
HETATM   18  O1  UNL     1      35.135  30.726  17.546  1.00  0.00    -0.395 OA
ATOM     19  H1  UNL     1      35.060  31.624  17.245  1.00  0.00     0.210 HD
ENDBRANCH  10  18
ENDBRANCH   8  10
ENDBRANCH   7   8
BRANCH   7  20
HETATM   20  O2  UNL     1      32.570  30.051  16.155  1.00  0.00    -0.392 OA
ATOM     21  H2  UNL     1      33.324  29.648  16.568  1.00  0.00     0.210 HD
ENDBRANCH   7  20
ENDBRANCH   6   7
BRANCH   6  22
HETATM   22  O3  UNL     1      31.029  33.173  16.124  1.00  0.00    -0.390 OA
ATOM     23  H3  UNL     1      30.951  33.888  15.504  1.00  0.00     0.210 HD
ENDBRANCH   6  22
ENDBRANCH   1   6
BRANCH   5  24
HETATM   24  C16 UNL     1      34.649  32.331  14.348  1.00  0.00     0.128 C 
BRANCH  24  25
HETATM   25  C17 UNL     1      35.645  31.223  14.236  1.00  0.00     0.260 C 
HETATM   26  O6  UNL     1      36.705  31.436  13.593  1.00  0.00    -0.265 OA
BRANCH  25  27
HETATM   27  O7  UNL     1      35.477  29.990  14.791  1.00  0.00    -0.316 OA
BRANCH  27  28
HETATM   28  C18 UNL     1      36.111  28.829  14.381  1.00  0.00     0.135 C 
HETATM   29  C19 UNL     1      36.993  28.260  15.519  1.00  0.00     0.040 C 
BRANCH  28  30
HETATM   30  C20 UNL     1      35.282  27.719  13.882  1.00  0.00     0.054 C 
HETATM   31  C21 UNL     1      33.823  28.132  13.700  1.00  0.00     0.125 C 
HETATM   32  C22 UNL     1      33.719  28.415  12.219  1.00  0.00     0.033 C 
HETATM   33  C23 UNL     1      35.025  27.984  11.582  1.00  0.00     0.014 C 
HETATM   34  C24 UNL     1      35.568  27.035  12.629  1.00  0.00    -0.010 C 
HETATM   35  C25 UNL     1      34.621  25.810  12.551  1.00  0.00     0.018 C 
BRANCH  31  36
HETATM   36  O8  UNL     1      32.927  27.138  14.055  1.00  0.00    -0.395 OA
ATOM     37  H8  UNL     1      33.119  26.746  14.899  1.00  0.00     0.210 HD
ENDBRANCH  31  36
BRANCH  34  38
HETATM   38  C26 UNL     1      36.910  26.489  12.352  1.00  0.00     0.122 C 
HETATM   39  C27 UNL     1      37.467  27.156  11.114  1.00  0.00     0.040 C 
BRANCH  38  40
HETATM   40  O9  UNL     1      37.109  25.150  12.440  1.00  0.00    -0.395 OA
ATOM     41  H9  UNL     1      37.676  24.810  13.122  1.00  0.00     0.210 HD
ENDBRANCH  38  40
ENDBRANCH  34  38
ENDBRANCH  28  30
ENDBRANCH  27  28
ENDBRANCH  25  27
ENDBRANCH  24  25
ENDBRANCH   5  24
TORSDOF 20
ENDMDL
