MODEL 1
REMARK VINA RESULT: -6.577769229      0.000      0.000
REMARK  19 active torsions:
REMARK  status: ('A' for Active; 'I' for Inactive)
REMARK    1  A    between atoms: C4_5  and  C5_6 
REMARK    2  A    between atoms: C5_6  and  C6_7 
REMARK    3  A    between atoms: C6_7  and  C7_8 
REMARK    4  A    between atoms: C7_8  and  C8_9 
REMARK    5  A    between atoms: C8_9  and  O2_10 
REMARK    6  A    between atoms: O2_10  and  C9_11 
REMARK    7  A    between atoms: C10_13  and  S1_14 
REMARK    8  A    between atoms: S1_14  and  C11_15 
REMARK    9  A    between atoms: C15_19  and  O4_20 
REMARK   10  A    between atoms: C16_22  and  O5_23 
REMARK   11  A    between atoms: C17_25  and  O6_26 
REMARK   12  A    between atoms: C18_28  and  O7_29 
REMARK   13  A    between atoms: N1_31  and  C19_32 
REMARK   14  A    between atoms: C19_32  and  C20_33 
REMARK   15  A    between atoms: C20_33  and  S2_34 
REMARK   16  A    between atoms: S2_34  and  C21_35 
REMARK   17  A    between atoms: C21_35  and  C22_36 
REMARK   18  A    between atoms: C22_36  and  C23_37 
REMARK   19  A    between atoms: C23_37  and  O8_38 
ROOT
HETATM    1  C9  UNL     1      35.785  28.932  20.760  1.00  0.00     0.292 C 
HETATM    2  O3  UNL     1      34.572  29.328  20.187  1.00  0.00    -0.340 OA
HETATM    3  C10 UNL     1      33.561  29.429  21.118  1.00  0.00     0.217 C 
HETATM    4  C16 UNL     1      33.685  28.514  22.289  1.00  0.00     0.188 C 
HETATM    5  C17 UNL     1      34.597  27.361  22.148  1.00  0.00     0.183 C 
HETATM    6  C18 UNL     1      35.535  27.409  20.964  1.00  0.00     0.204 C 
ENDROOT
BRANCH   1   7
HETATM    7  O2  UNL     1      36.823  29.156  19.948  1.00  0.00    -0.358 OA
BRANCH   7   8
HETATM    8  C8  UNL     1      36.790  30.061  18.970  1.00  0.00     0.171 C 
BRANCH   8   9
HETATM    9  C7  UNL     1      36.588  29.677  17.548  1.00  0.00     0.026 C 
BRANCH   9  10
HETATM   10  C6  UNL     1      35.557  30.366  16.754  1.00  0.00     0.004 C 
BRANCH  10  11
HETATM   11  C5  UNL     1      35.794  30.248  15.246  1.00  0.00     0.025 C 
BRANCH  11  12
HETATM   12  C4  UNL     1      34.577  30.504  14.444  1.00  0.00     0.087 C 
HETATM   13  C3  UNL     1      33.425  29.741  15.086  1.00  0.00     0.034 C 
HETATM   14  C2  UNL     1      32.220  30.607  14.917  1.00  0.00     0.105 C 
HETATM   15  C1  UNL     1      32.792  31.955  14.768  1.00  0.00     0.220 C 
HETATM   16  O1  UNL     1      32.127  33.007  14.869  1.00  0.00    -0.273 OA
HETATM   17  N1  UNL     1      34.190  31.884  14.497  1.00  0.00    -0.347 N 
BRANCH  17  18
HETATM   18  C19 UNL     1      35.019  33.063  14.271  1.00  0.00     0.136 C 
BRANCH  18  19
HETATM   19  C20 UNL     1      35.766  32.986  13.000  1.00  0.00     0.093 C 
BRANCH  19  20
HETATM   20  S2  UNL     1      37.452  33.295  12.922  1.00  0.00    -0.167 SA
BRANCH  20  21
HETATM   21  C21 UNL     1      38.291  34.403  13.951  1.00  0.00     0.076 C 
BRANCH  21  22
HETATM   22  C22 UNL     1      38.220  34.389  15.420  1.00  0.00     0.036 C 
BRANCH  22  23
HETATM   23  C23 UNL     1      38.251  35.635  16.206  1.00  0.00     0.165 C 
BRANCH  23  24
HETATM   24  O8  UNL     1      38.771  35.471  17.491  1.00  0.00    -0.401 OA
ATOM     25  H8  UNL     1      39.190  36.251  17.833  1.00  0.00     0.209 HD
ENDBRANCH  23  24
ENDBRANCH  22  23
ENDBRANCH  21  22
ENDBRANCH  20  21
ENDBRANCH  19  20
ENDBRANCH  18  19
ENDBRANCH  17  18
ENDBRANCH  11  12
ENDBRANCH  10  11
ENDBRANCH   9  10
ENDBRANCH   8   9
ENDBRANCH   7   8
ENDBRANCH   1   7
BRANCH   6  26
HETATM   26  O7  UNL     1      36.724  26.761  21.223  1.00  0.00    -0.388 OA
ATOM     27  H7  UNL     1      36.606  26.122  21.917  1.00  0.00     0.210 HD
ENDBRANCH   6  26
BRANCH   3  28
HETATM   28  S1  UNL     1      31.931  29.381  20.335  1.00  0.00    -0.127 SA
BRANCH  28  29
HETATM   29  C11 UNL     1      31.941  29.916  18.631  1.00  0.00     0.078 C 
HETATM   30  C12 UNL     1      32.457  31.332  18.547  1.00  0.00     0.018 C 
HETATM   31  C13 UNL     1      31.237  32.237  18.359  1.00  0.00     0.004 C 
HETATM   32  C14 UNL     1      30.046  31.313  18.654  1.00  0.00     0.033 C 
HETATM   33  C15 UNL     1      30.557  30.034  18.041  1.00  0.00     0.132 C 
BRANCH  33  34
HETATM   34  O4  UNL     1      29.756  28.945  18.350  1.00  0.00    -0.394 OA
ATOM     35  H4  UNL     1      28.856  29.195  18.519  1.00  0.00     0.210 HD
ENDBRANCH  33  34
ENDBRANCH  28  29
ENDBRANCH   3  28
BRANCH   5  36
HETATM   36  O6  UNL     1      33.910  26.122  22.179  1.00  0.00    -0.390 OA
ATOM     37  H6  UNL     1      34.412  25.440  22.610  1.00  0.00     0.210 HD
ENDBRANCH   5  36
BRANCH   4  38
HETATM   38  O5  UNL     1      33.984  29.212  23.472  1.00  0.00    -0.389 OA
ATOM     39  H5  UNL     1      34.178  28.624  24.192  1.00  0.00     0.210 HD
ENDBRANCH   4  38
TORSDOF 19
ENDMDL
MODEL 2
REMARK VINA RESULT: -6.532243817      4.812      8.451
REMARK  19 active torsions:
REMARK  status: ('A' for Active; 'I' for Inactive)
REMARK    1  A    between atoms: C4_5  and  C5_6 
REMARK    2  A    between atoms: C5_6  and  C6_7 
REMARK    3  A    between atoms: C6_7  and  C7_8 
REMARK    4  A    between atoms: C7_8  and  C8_9 
REMARK    5  A    between atoms: C8_9  and  O2_10 
REMARK    6  A    between atoms: O2_10  and  C9_11 
REMARK    7  A    between atoms: C10_13  and  S1_14 
REMARK    8  A    between atoms: S1_14  and  C11_15 
REMARK    9  A    between atoms: C15_19  and  O4_20 
REMARK   10  A    between atoms: C16_22  and  O5_23 
REMARK   11  A    between atoms: C17_25  and  O6_26 
REMARK   12  A    between atoms: C18_28  and  O7_29 
REMARK   13  A    between atoms: N1_31  and  C19_32 
REMARK   14  A    between atoms: C19_32  and  C20_33 
REMARK   15  A    between atoms: C20_33  and  S2_34 
REMARK   16  A    between atoms: S2_34  and  C21_35 
REMARK   17  A    between atoms: C21_35  and  C22_36 
REMARK   18  A    between atoms: C22_36  and  C23_37 
REMARK   19  A    between atoms: C23_37  and  O8_38 
ROOT
HETATM    1  C9  UNL     1      27.335  29.784  19.360  1.00  0.00     0.292 C 
HETATM    2  O3  UNL     1      26.693  30.486  20.384  1.00  0.00    -0.340 OA
HETATM    3  C10 UNL     1      25.808  29.697  21.086  1.00  0.00     0.217 C 
HETATM    4  C16 UNL     1      25.189  28.589  20.304  1.00  0.00     0.188 C 
HETATM    5  C17 UNL     1      25.255  28.687  18.832  1.00  0.00     0.183 C 
HETATM    6  C18 UNL     1      26.208  29.726  18.286  1.00  0.00     0.204 C 
ENDROOT
BRANCH   1   7
HETATM    7  O2  UNL     1      28.414  30.428  18.905  1.00  0.00    -0.358 OA
BRANCH   7   8
HETATM    8  C8  UNL     1      29.512  29.793  18.497  1.00  0.00     0.171 C 
BRANCH   8   9
HETATM    9  C7  UNL     1      30.794  29.876  19.246  1.00  0.00     0.026 C 
BRANCH   9  10
HETATM   10  C6  UNL     1      31.384  31.197  19.521  1.00  0.00     0.004 C 
BRANCH  10  11
HETATM   11  C5  UNL     1      32.329  31.666  18.411  1.00  0.00     0.025 C 
BRANCH  11  12
HETATM   12  C4  UNL     1      33.164  30.576  17.859  1.00  0.00     0.087 C 
HETATM   13  C3  UNL     1      33.238  30.762  16.349  1.00  0.00     0.034 C 
HETATM   14  C2  UNL     1      34.617  30.344  15.955  1.00  0.00     0.105 C 
HETATM   15  C1  UNL     1      35.389  30.520  17.195  1.00  0.00     0.220 C 
HETATM   16  O1  UNL     1      36.638  30.538  17.239  1.00  0.00    -0.273 OA
HETATM   17  N1  UNL     1      34.521  30.666  18.316  1.00  0.00    -0.347 N 
BRANCH  17  18
HETATM   18  C19 UNL     1      35.004  30.826  19.683  1.00  0.00     0.136 C 
BRANCH  18  19
HETATM   19  C20 UNL     1      35.155  29.532  20.378  1.00  0.00     0.093 C 
BRANCH  19  20
HETATM   20  S2  UNL     1      33.959  28.940  21.456  1.00  0.00    -0.167 SA
BRANCH  20  21
HETATM   21  C21 UNL     1      33.377  27.311  21.472  1.00  0.00     0.076 C 
BRANCH  21  22
HETATM   22  C22 UNL     1      34.240  26.121  21.519  1.00  0.00     0.036 C 
BRANCH  22  23
HETATM   23  C23 UNL     1      35.522  26.126  22.245  1.00  0.00     0.165 C 
BRANCH  23  24
HETATM   24  O8  UNL     1      36.615  26.461  21.443  1.00  0.00    -0.401 OA
ATOM     25  H8  UNL     1      37.131  25.711  21.172  1.00  0.00     0.209 HD
ENDBRANCH  23  24
ENDBRANCH  22  23
ENDBRANCH  21  22
ENDBRANCH  20  21
ENDBRANCH  19  20
ENDBRANCH  18  19
ENDBRANCH  17  18
ENDBRANCH  11  12
ENDBRANCH  10  11
ENDBRANCH   9  10
ENDBRANCH   8   9
ENDBRANCH   7   8
ENDBRANCH   1   7
BRANCH   6  26
HETATM   26  O7  UNL     1      26.729  29.355  17.066  1.00  0.00    -0.388 OA
ATOM     27  H7  UNL     1      26.766  28.408  16.997  1.00  0.00     0.210 HD
ENDBRANCH   6  26
BRANCH   3  28
HETATM   28  S1  UNL     1      24.606  30.696  21.997  1.00  0.00    -0.127 SA
BRANCH  28  29
HETATM   29  C11 UNL     1      22.908  30.274  21.637  1.00  0.00     0.078 C 
HETATM   30  C12 UNL     1      22.044  31.506  21.760  1.00  0.00     0.018 C 
HETATM   31  C13 UNL     1      21.318  31.405  23.103  1.00  0.00     0.004 C 
HETATM   32  C14 UNL     1      22.042  30.260  23.827  1.00  0.00     0.033 C 
HETATM   33  C15 UNL     1      22.302  29.343  22.659  1.00  0.00     0.132 C 
BRANCH  33  34
HETATM   34  O4  UNL     1      23.150  28.297  22.989  1.00  0.00    -0.394 OA
ATOM     35  H4  UNL     1      24.065  28.523  22.873  1.00  0.00     0.210 HD
ENDBRANCH  33  34
ENDBRANCH  28  29
ENDBRANCH   3  28
BRANCH   5  36
HETATM   36  O6  UNL     1      23.975  28.839  18.243  1.00  0.00    -0.390 OA
ATOM     37  H6  UNL     1      23.868  28.304  17.465  1.00  0.00     0.210 HD
ENDBRANCH   5  36
BRANCH   4  38
HETATM   38  O5  UNL     1      25.657  27.329  20.715  1.00  0.00    -0.389 OA
ATOM     39  H5  UNL     1      25.456  26.650  20.082  1.00  0.00     0.210 HD
ENDBRANCH   4  38
TORSDOF 19
ENDMDL
MODEL 3
REMARK VINA RESULT: -6.468095092      2.186      3.114
REMARK  19 active torsions:
REMARK  status: ('A' for Active; 'I' for Inactive)
REMARK    1  A    between atoms: C4_5  and  C5_6 
REMARK    2  A    between atoms: C5_6  and  C6_7 
REMARK    3  A    between atoms: C6_7  and  C7_8 
REMARK    4  A    between atoms: C7_8  and  C8_9 
REMARK    5  A    between atoms: C8_9  and  O2_10 
REMARK    6  A    between atoms: O2_10  and  C9_11 
REMARK    7  A    between atoms: C10_13  and  S1_14 
REMARK    8  A    between atoms: S1_14  and  C11_15 
REMARK    9  A    between atoms: C15_19  and  O4_20 
REMARK   10  A    between atoms: C16_22  and  O5_23 
REMARK   11  A    between atoms: C17_25  and  O6_26 
REMARK   12  A    between atoms: C18_28  and  O7_29 
REMARK   13  A    between atoms: N1_31  and  C19_32 
REMARK   14  A    between atoms: C19_32  and  C20_33 
REMARK   15  A    between atoms: C20_33  and  S2_34 
REMARK   16  A    between atoms: S2_34  and  C21_35 
REMARK   17  A    between atoms: C21_35  and  C22_36 
REMARK   18  A    between atoms: C22_36  and  C23_37 
REMARK   19  A    between atoms: C23_37  and  O8_38 
ROOT
HETATM    1  C9  UNL     1      35.769  28.876  20.714  1.00  0.00     0.292 C 
HETATM    2  O3  UNL     1      34.562  29.272  20.131  1.00  0.00    -0.340 OA
HETATM    3  C10 UNL     1      33.553  29.412  21.060  1.00  0.00     0.217 C 
HETATM    4  C16 UNL     1      33.666  28.529  22.256  1.00  0.00     0.188 C 
HETATM    5  C17 UNL     1      34.562  27.360  22.146  1.00  0.00     0.183 C 
HETATM    6  C18 UNL     1      35.499  27.362  20.960  1.00  0.00     0.204 C 
ENDROOT
BRANCH   1   7
HETATM    7  O2  UNL     1      36.810  29.063  19.896  1.00  0.00    -0.358 OA
BRANCH   7   8
HETATM    8  C8  UNL     1      36.899  30.108  19.074  1.00  0.00     0.171 C 
BRANCH   8   9
HETATM    9  C7  UNL     1      36.639  29.987  17.615  1.00  0.00     0.026 C 
BRANCH   9  10
HETATM   10  C6  UNL     1      35.351  30.450  17.071  1.00  0.00     0.004 C 
BRANCH  10  11
HETATM   11  C5  UNL     1      35.501  31.178  15.732  1.00  0.00     0.025 C 
BRANCH  11  12
HETATM   12  C4  UNL     1      34.531  30.722  14.711  1.00  0.00     0.087 C 
HETATM   13  C3  UNL     1      34.016  29.352  15.134  1.00  0.00     0.034 C 
HETATM   14  C2  UNL     1      32.579  29.315  14.728  1.00  0.00     0.105 C 
HETATM   15  C1  UNL     1      32.208  30.738  14.673  1.00  0.00     0.220 C 
HETATM   16  O1  UNL     1      31.029  31.148  14.632  1.00  0.00    -0.273 OA
HETATM   17  N1  UNL     1      33.370  31.564  14.672  1.00  0.00    -0.347 N 
BRANCH  17  18
HETATM   18  C19 UNL     1      33.313  33.020  14.591  1.00  0.00     0.136 C 
BRANCH  18  19
HETATM   19  C20 UNL     1      33.345  33.503  13.197  1.00  0.00     0.093 C 
BRANCH  19  20
HETATM   20  S2  UNL     1      32.577  34.964  12.728  1.00  0.00    -0.167 SA
BRANCH  20  21
HETATM   21  C21 UNL     1      32.160  36.242  13.816  1.00  0.00     0.076 C 
BRANCH  21  22
HETATM   22  C22 UNL     1      31.024  36.201  14.749  1.00  0.00     0.036 C 
BRANCH  22  23
HETATM   23  C23 UNL     1      29.635  36.093  14.270  1.00  0.00     0.165 C 
BRANCH  23  24
HETATM   24  O8  UNL     1      28.686  36.462  15.225  1.00  0.00    -0.401 OA
ATOM     25  H8  UNL     1      27.934  35.884  15.256  1.00  0.00     0.209 HD
ENDBRANCH  23  24
ENDBRANCH  22  23
ENDBRANCH  21  22
ENDBRANCH  20  21
ENDBRANCH  19  20
ENDBRANCH  18  19
ENDBRANCH  17  18
ENDBRANCH  11  12
ENDBRANCH  10  11
ENDBRANCH   9  10
ENDBRANCH   8   9
ENDBRANCH   7   8
ENDBRANCH   1   7
BRANCH   6  26
HETATM   26  O7  UNL     1      36.679  26.705  21.236  1.00  0.00    -0.388 OA
ATOM     27  H7  UNL     1      36.939  26.170  20.495  1.00  0.00     0.210 HD
ENDBRANCH   6  26
BRANCH   3  28
HETATM   28  S1  UNL     1      31.922  29.365  20.280  1.00  0.00    -0.127 SA
BRANCH  28  29
HETATM   29  C11 UNL     1      31.931  29.890  18.573  1.00  0.00     0.078 C 
HETATM   30  C12 UNL     1      32.447  31.306  18.482  1.00  0.00     0.018 C 
HETATM   31  C13 UNL     1      31.227  32.210  18.289  1.00  0.00     0.004 C 
HETATM   32  C14 UNL     1      30.035  31.288  18.590  1.00  0.00     0.033 C 
HETATM   33  C15 UNL     1      30.546  30.006  17.984  1.00  0.00     0.132 C 
BRANCH  33  34
HETATM   34  O4  UNL     1      29.745  28.919  18.300  1.00  0.00    -0.394 OA
ATOM     35  H4  UNL     1      29.081  29.134  18.944  1.00  0.00     0.210 HD
ENDBRANCH  33  34
ENDBRANCH  28  29
ENDBRANCH   3  28
BRANCH   5  36
HETATM   36  O6  UNL     1      33.858  26.131  22.212  1.00  0.00    -0.390 OA
ATOM     37  H6  UNL     1      34.434  25.392  22.369  1.00  0.00     0.210 HD
ENDBRANCH   5  36
BRANCH   4  38
HETATM   38  O5  UNL     1      33.976  29.255  23.419  1.00  0.00    -0.389 OA
ATOM     39  H5  UNL     1      33.237  29.304  24.015  1.00  0.00     0.210 HD
ENDBRANCH   4  38
TORSDOF 19
ENDMDL
MODEL 4
REMARK VINA RESULT: -6.211127771      2.483      3.423
REMARK  19 active torsions:
REMARK  status: ('A' for Active; 'I' for Inactive)
REMARK    1  A    between atoms: C4_5  and  C5_6 
REMARK    2  A    between atoms: C5_6  and  C6_7 
REMARK    3  A    between atoms: C6_7  and  C7_8 
REMARK    4  A    between atoms: C7_8  and  C8_9 
REMARK    5  A    between atoms: C8_9  and  O2_10 
REMARK    6  A    between atoms: O2_10  and  C9_11 
REMARK    7  A    between atoms: C10_13  and  S1_14 
REMARK    8  A    between atoms: S1_14  and  C11_15 
REMARK    9  A    between atoms: C15_19  and  O4_20 
REMARK   10  A    between atoms: C16_22  and  O5_23 
REMARK   11  A    between atoms: C17_25  and  O6_26 
REMARK   12  A    between atoms: C18_28  and  O7_29 
REMARK   13  A    between atoms: N1_31  and  C19_32 
REMARK   14  A    between atoms: C19_32  and  C20_33 
REMARK   15  A    between atoms: C20_33  and  S2_34 
REMARK   16  A    between atoms: S2_34  and  C21_35 
REMARK   17  A    between atoms: C21_35  and  C22_36 
REMARK   18  A    between atoms: C22_36  and  C23_37 
REMARK   19  A    between atoms: C23_37  and  O8_38 
ROOT
HETATM    1  C9  UNL     1      35.853  28.845  20.842  1.00  0.00     0.292 C 
HETATM    2  O3  UNL     1      34.662  29.262  20.240  1.00  0.00    -0.340 OA
HETATM    3  C10 UNL     1      33.627  29.369  21.143  1.00  0.00     0.217 C 
HETATM    4  C16 UNL     1      33.706  28.443  22.310  1.00  0.00     0.188 C 
HETATM    5  C17 UNL     1      34.606  27.279  22.183  1.00  0.00     0.183 C 
HETATM    6  C18 UNL     1      35.577  27.323  21.025  1.00  0.00     0.204 C 
ENDROOT
BRANCH   1   7
HETATM    7  O2  UNL     1      36.916  29.060  20.061  1.00  0.00    -0.358 OA
BRANCH   7   8
HETATM    8  C8  UNL     1      36.940  30.009  19.125  1.00  0.00     0.171 C 
BRANCH   8   9
HETATM    9  C7  UNL     1      36.573  29.729  17.711  1.00  0.00     0.026 C 
BRANCH   9  10
HETATM   10  C6  UNL     1      35.796  30.727  16.957  1.00  0.00     0.004 C 
BRANCH  10  11
HETATM   11  C5  UNL     1      35.022  30.113  15.786  1.00  0.00     0.025 C 
BRANCH  11  12
HETATM   12  C4  UNL     1      35.328  30.755  14.488  1.00  0.00     0.087 C 
HETATM   13  C3  UNL     1      35.685  29.655  13.496  1.00  0.00     0.034 C 
HETATM   14  C2  UNL     1      35.133  30.101  12.181  1.00  0.00     0.105 C 
HETATM   15  C1  UNL     1      34.055  31.026  12.564  1.00  0.00     0.220 C 
HETATM   16  O1  UNL     1      33.165  31.419  11.779  1.00  0.00    -0.273 OA
HETATM   17  N1  UNL     1      34.173  31.401  13.934  1.00  0.00    -0.347 N 
BRANCH  17  18
HETATM   18  C19 UNL     1      33.261  32.335  14.586  1.00  0.00     0.136 C 
BRANCH  18  19
HETATM   19  C20 UNL     1      31.913  31.761  14.773  1.00  0.00     0.093 C 
BRANCH  19  20
HETATM   20  S2  UNL     1      30.517  32.752  14.889  1.00  0.00    -0.167 SA
BRANCH  20  21
HETATM   21  C21 UNL     1      30.214  34.135  13.897  1.00  0.00     0.076 C 
BRANCH  21  22
HETATM   22  C22 UNL     1      30.981  35.388  13.962  1.00  0.00     0.036 C 
BRANCH  22  23
HETATM   23  C23 UNL     1      30.655  36.443  14.938  1.00  0.00     0.165 C 
BRANCH  23  24
HETATM   24  O8  UNL     1      29.315  36.445  15.329  1.00  0.00    -0.401 OA
ATOM     25  H8  UNL     1      29.019  37.282  15.665  1.00  0.00     0.209 HD
ENDBRANCH  23  24
ENDBRANCH  22  23
ENDBRANCH  21  22
ENDBRANCH  20  21
ENDBRANCH  19  20
ENDBRANCH  18  19
ENDBRANCH  17  18
ENDBRANCH  11  12
ENDBRANCH  10  11
ENDBRANCH   9  10
ENDBRANCH   8   9
ENDBRANCH   7   8
ENDBRANCH   1   7
BRANCH   6  26
HETATM   26  O7  UNL     1      36.748  26.656  21.311  1.00  0.00    -0.388 OA
ATOM     27  H7  UNL     1      37.497  27.174  21.038  1.00  0.00     0.210 HD
ENDBRANCH   6  26
BRANCH   3  28
HETATM   28  S1  UNL     1      32.019  29.351  20.316  1.00  0.00    -0.127 SA
BRANCH  28  29
HETATM   29  C11 UNL     1      32.073  29.956  18.636  1.00  0.00     0.078 C 
HETATM   30  C12 UNL     1      32.538  31.392  18.630  1.00  0.00     0.018 C 
HETATM   31  C13 UNL     1      31.293  32.259  18.430  1.00  0.00     0.004 C 
HETATM   32  C14 UNL     1      30.126  31.282  18.641  1.00  0.00     0.033 C 
HETATM   33  C15 UNL     1      30.708  30.048  17.998  1.00  0.00     0.132 C 
BRANCH  33  34
HETATM   34  O4  UNL     1      29.938  28.920  18.232  1.00  0.00    -0.394 OA
ATOM     35  H4  UNL     1      30.107  28.230  17.602  1.00  0.00     0.210 HD
ENDBRANCH  33  34
ENDBRANCH  28  29
ENDBRANCH   3  28
BRANCH   5  36
HETATM   36  O6  UNL     1      33.901  26.049  22.185  1.00  0.00    -0.390 OA
ATOM     37  H6  UNL     1      33.097  26.093  22.689  1.00  0.00     0.210 HD
ENDBRANCH   5  36
BRANCH   4  38
HETATM   38  O5  UNL     1      33.982  29.127  23.507  1.00  0.00    -0.389 OA
ATOM     39  H5  UNL     1      34.576  28.639  24.065  1.00  0.00     0.210 HD
ENDBRANCH   4  38
TORSDOF 19
ENDMDL
MODEL 5
REMARK VINA RESULT: -6.171065322      2.779      3.372
REMARK  19 active torsions:
REMARK  status: ('A' for Active; 'I' for Inactive)
REMARK    1  A    between atoms: C4_5  and  C5_6 
REMARK    2  A    between atoms: C5_6  and  C6_7 
REMARK    3  A    between atoms: C6_7  and  C7_8 
REMARK    4  A    between atoms: C7_8  and  C8_9 
REMARK    5  A    between atoms: C8_9  and  O2_10 
REMARK    6  A    between atoms: O2_10  and  C9_11 
REMARK    7  A    between atoms: C10_13  and  S1_14 
REMARK    8  A    between atoms: S1_14  and  C11_15 
REMARK    9  A    between atoms: C15_19  and  O4_20 
REMARK   10  A    between atoms: C16_22  and  O5_23 
REMARK   11  A    between atoms: C17_25  and  O6_26 
REMARK   12  A    between atoms: C18_28  and  O7_29 
REMARK   13  A    between atoms: N1_31  and  C19_32 
REMARK   14  A    between atoms: C19_32  and  C20_33 
REMARK   15  A    between atoms: C20_33  and  S2_34 
REMARK   16  A    between atoms: S2_34  and  C21_35 
REMARK   17  A    between atoms: C21_35  and  C22_36 
REMARK   18  A    between atoms: C22_36  and  C23_37 
REMARK   19  A    between atoms: C23_37  and  O8_38 
ROOT
HETATM    1  C9  UNL     1      35.844  28.851  20.824  1.00  0.00     0.292 C 
HETATM    2  O3  UNL     1      34.657  29.284  20.228  1.00  0.00    -0.340 OA
HETATM    3  C10 UNL     1      33.629  29.410  21.137  1.00  0.00     0.217 C 
HETATM    4  C16 UNL     1      33.700  28.486  22.306  1.00  0.00     0.188 C 
HETATM    5  C17 UNL     1      34.581  27.308  22.177  1.00  0.00     0.183 C 
HETATM    6  C18 UNL     1      35.546  27.334  21.014  1.00  0.00     0.204 C 
ENDROOT
BRANCH   1   7
HETATM    7  O2  UNL     1      36.906  29.048  20.037  1.00  0.00    -0.358 OA
BRANCH   7   8
HETATM    8  C8  UNL     1      36.936  29.988  19.092  1.00  0.00     0.171 C 
BRANCH   8   9
HETATM    9  C7  UNL     1      36.601  29.690  17.674  1.00  0.00     0.026 C 
BRANCH   9  10
HETATM   10  C6  UNL     1      35.683  30.582  16.947  1.00  0.00     0.004 C 
BRANCH  10  11
HETATM   11  C5  UNL     1      34.926  29.866  15.825  1.00  0.00     0.025 C 
BRANCH  11  12
HETATM   12  C4  UNL     1      34.896  30.636  14.561  1.00  0.00     0.087 C 
HETATM   13  C3  UNL     1      34.920  32.117  14.914  1.00  0.00     0.034 C 
HETATM   14  C2  UNL     1      35.738  32.775  13.852  1.00  0.00     0.105 C 
HETATM   15  C1  UNL     1      36.581  31.679  13.349  1.00  0.00     0.220 C 
HETATM   16  O1  UNL     1      37.596  31.851  12.640  1.00  0.00    -0.273 OA
HETATM   17  N1  UNL     1      36.081  30.416  13.781  1.00  0.00    -0.347 N 
BRANCH  17  18
HETATM   18  C19 UNL     1      36.695  29.146  13.410  1.00  0.00     0.136 C 
BRANCH  18  19
HETATM   19  C20 UNL     1      36.487  28.821  11.984  1.00  0.00     0.093 C 
BRANCH  19  20
HETATM   20  S2  UNL     1      37.457  27.664  11.170  1.00  0.00    -0.167 SA
BRANCH  20  21
HETATM   21  C21 UNL     1      39.185  27.619  11.233  1.00  0.00     0.076 C 
BRANCH  21  22
HETATM   22  C22 UNL     1      40.063  28.662  10.682  1.00  0.00     0.036 C 
BRANCH  22  23
HETATM   23  C23 UNL     1      40.190  29.982  11.324  1.00  0.00     0.165 C 
BRANCH  23  24
HETATM   24  O8  UNL     1      39.989  29.951  12.705  1.00  0.00    -0.401 OA
ATOM     25  H8  UNL     1      39.644  30.764  13.057  1.00  0.00     0.209 HD
ENDBRANCH  23  24
ENDBRANCH  22  23
ENDBRANCH  21  22
ENDBRANCH  20  21
ENDBRANCH  19  20
ENDBRANCH  18  19
ENDBRANCH  17  18
ENDBRANCH  11  12
ENDBRANCH  10  11
ENDBRANCH   9  10
ENDBRANCH   8   9
ENDBRANCH   7   8
ENDBRANCH   1   7
BRANCH   6  26
HETATM   26  O7  UNL     1      36.709  26.650  21.294  1.00  0.00    -0.388 OA
ATOM     27  H7  UNL     1      37.187  26.471  20.493  1.00  0.00     0.210 HD
ENDBRANCH   6  26
BRANCH   3  28
HETATM   28  S1  UNL     1      32.016  29.415  20.319  1.00  0.00    -0.127 SA
BRANCH  28  29
HETATM   29  C11 UNL     1      32.079  29.956  18.618  1.00  0.00     0.078 C 
HETATM   30  C12 UNL     1      32.526  31.396  18.562  1.00  0.00     0.018 C 
HETATM   31  C13 UNL     1      31.273  32.240  18.318  1.00  0.00     0.004 C 
HETATM   32  C14 UNL     1      30.116  31.256  18.555  1.00  0.00     0.033 C 
HETATM   33  C15 UNL     1      30.719  30.007  17.965  1.00  0.00     0.132 C 
BRANCH  33  34
HETATM   34  O4  UNL     1      29.960  28.878  18.235  1.00  0.00    -0.394 OA
ATOM     35  H4  UNL     1      30.365  28.318  18.886  1.00  0.00     0.210 HD
ENDBRANCH  33  34
ENDBRANCH  28  29
ENDBRANCH   3  28
BRANCH   5  36
HETATM   36  O6  UNL     1      33.858  26.089  22.187  1.00  0.00    -0.390 OA
ATOM     37  H6  UNL     1      34.187  25.467  21.548  1.00  0.00     0.210 HD
ENDBRANCH   5  36
BRANCH   4  38
HETATM   38  O5  UNL     1      33.994  29.169  23.499  1.00  0.00    -0.389 OA
ATOM     39  H5  UNL     1      33.208  29.394  23.983  1.00  0.00     0.210 HD
ENDBRANCH   4  38
TORSDOF 19
ENDMDL
