MODEL 1
REMARK VINA RESULT: -6.771052397      0.000      0.000
REMARK  20 active torsions:
REMARK  status: ('A' for Active; 'I' for Inactive)
REMARK    1  A    between atoms: C2_2  and  C3_3 
REMARK    2  A    between atoms: C3_3  and  C4_4 
REMARK    3  A    between atoms: C4_4  and  C5_5 
REMARK    4  A    between atoms: C5_5  and  C6_6 
REMARK    5  A    between atoms: C6_6  and  C7_7 
REMARK    6  A    between atoms: C7_7  and  C8_8 
REMARK    7  A    between atoms: C8_8  and  C9_9 
REMARK    8  A    between atoms: C9_9  and  C10_10 
REMARK    9  A    between atoms: C10_10  and  C11_11 
REMARK   10  A    between atoms: C10_10  and  C12_14 
REMARK   11  A    between atoms: C16_18  and  O3_19 
REMARK   12  A    between atoms: O3_19  and  C17_20 
REMARK   13  A    between atoms: C18_22  and  C19_23 
REMARK   14  A    between atoms: C19_23  and  O5_24 
REMARK   15  A    between atoms: C20_26  and  O6_27 
REMARK   16  A    between atoms: C21_29  and  N1_30 
REMARK   17  A    between atoms: N1_30  and  N2_32 
REMARK   18  A    between atoms: N2_32  and  N3_33 
REMARK   19  A    between atoms: C22_36  and  O7_37 
REMARK   20  A    between atoms: C23_39  and  O8_40 
ROOT
HETATM    1  C12 UNL     1      30.793  30.792  17.141  1.00  0.00     0.136 C 
HETATM    2  C13 UNL     1      30.351  31.332  18.452  1.00  0.00     0.040 C 
HETATM    3  C14 UNL     1      29.552  30.188  19.035  1.00  0.00     0.022 C 
HETATM    4  C15 UNL     1      28.219  30.567  19.569  1.00  0.00     0.042 C 
HETATM    5  C16 UNL     1      27.087  29.670  19.149  1.00  0.00     0.156 C 
HETATM    6  C22 UNL     1      27.071  29.417  17.659  1.00  0.00     0.178 C 
HETATM    7  C23 UNL     1      28.381  28.985  17.128  1.00  0.00     0.178 C 
HETATM    8  C24 UNL     1      29.570  29.135  17.993  1.00  0.00     0.157 C 
HETATM    9  O9  UNL     1      30.663  29.413  17.148  1.00  0.00    -0.377 OA
ENDROOT
BRANCH   5  10
HETATM   10  O3  UNL     1      25.902  30.222  19.589  1.00  0.00    -0.351 OA
BRANCH  10  11
HETATM   11  C17 UNL     1      25.102  29.394  20.319  1.00  0.00     0.288 C 
HETATM   12  O4  UNL     1      25.736  28.716  21.353  1.00  0.00    -0.349 OA
HETATM   13  C18 UNL     1      24.782  28.309  22.238  1.00  0.00     0.179 C 
HETATM   14  C20 UNL     1      23.501  29.060  22.004  1.00  0.00     0.179 C 
HETATM   15  C21 UNL     1      23.868  30.000  20.887  1.00  0.00     0.200 C 
BRANCH  13  16
HETATM   16  C19 UNL     1      24.535  26.814  22.207  1.00  0.00     0.198 C 
BRANCH  16  17
HETATM   17  O5  UNL     1      25.649  26.210  22.805  1.00  0.00    -0.398 OA
ATOM     18  H5  UNL     1      26.165  25.832  22.102  1.00  0.00     0.209 HD
ENDBRANCH  16  17
ENDBRANCH  13  16
BRANCH  14  19
HETATM   19  O6  UNL     1      22.537  28.165  21.541  1.00  0.00    -0.391 OA
ATOM     20  H6  UNL     1      22.079  27.798  22.287  1.00  0.00     0.210 HD
ENDBRANCH  14  19
BRANCH  15  21
HETATM   21  N1  UNL     1      24.062  31.308  21.464  1.00  0.00    -0.240 N 
ATOM     22  H1  UNL     1      24.541  31.414  22.358  1.00  0.00     0.197 HD
BRANCH  21  23
HETATM   23  N2  UNL     1      23.649  32.277  20.870  1.00  0.00    -0.248 NA
BRANCH  23  24
HETATM   24  N3  UNL     1      23.410  33.263  20.156  1.00  0.00    -0.261 N 
ATOM     25  H32 UNL     1      22.464  32.904  20.028  1.00  0.00     0.193 HD
ATOM     26  H31 UNL     1      23.379  34.118  19.602  1.00  0.00     0.193 HD
ENDBRANCH  23  24
ENDBRANCH  21  23
ENDBRANCH  15  21
ENDBRANCH  10  11
ENDBRANCH   5  10
BRANCH   6  27
HETATM   27  O7  UNL     1      26.527  30.510  16.963  1.00  0.00    -0.390 OA
ATOM     28  H7  UNL     1      26.093  31.115  17.554  1.00  0.00     0.210 HD
ENDBRANCH   6  27
BRANCH   7  29
HETATM   29  O8  UNL     1      28.263  27.646  16.680  1.00  0.00    -0.390 OA
ATOM     30  H8  UNL     1      28.475  27.618  15.755  1.00  0.00     0.210 HD
ENDBRANCH   7  29
BRANCH   1  31
HETATM   31  C10 UNL     1      32.305  31.074  16.900  1.00  0.00     0.116 C 
BRANCH  31  32
HETATM   32  C9  UNL     1      32.977  31.318  18.180  1.00  0.00     0.018 C 
BRANCH  32  33
HETATM   33  C8  UNL     1      34.249  30.635  18.431  1.00  0.00     0.001 C 
BRANCH  33  34
HETATM   34  C7  UNL     1      34.493  29.980  19.746  1.00  0.00     0.000 C 
BRANCH  34  35
HETATM   35  C6  UNL     1      33.198  29.921  20.548  1.00  0.00     0.000 C 
BRANCH  35  36
HETATM   36  C5  UNL     1      32.735  28.509  20.737  1.00  0.00     0.000 C 
BRANCH  36  37
HETATM   37  C4  UNL     1      33.446  27.789  21.846  1.00  0.00     0.000 C 
BRANCH  37  38
HETATM   38  C3  UNL     1      34.132  26.520  21.381  1.00  0.00    -0.000 C 
BRANCH  38  39
HETATM   39  C2  UNL     1      35.561  26.592  21.873  1.00  0.00    -0.005 C 
HETATM   40  C1  UNL     1      35.864  27.847  22.632  1.00  0.00     0.005 C 
ENDBRANCH  38  39
ENDBRANCH  37  38
ENDBRANCH  36  37
ENDBRANCH  35  36
ENDBRANCH  34  35
ENDBRANCH  33  34
ENDBRANCH  32  33
ENDBRANCH  31  32
BRANCH  31  41
HETATM   41  C11 UNL     1      32.465  32.041  15.828  1.00  0.00     0.179 C 
HETATM   42  O1  UNL     1      33.550  32.172  15.159  1.00  0.00    -0.648 OA
HETATM   43  O2  UNL     1      31.454  32.916  15.420  1.00  0.00    -0.648 OA
ENDBRANCH  31  41
ENDBRANCH   1  31
TORSDOF 20
ENDMDL
MODEL 2
REMARK VINA RESULT: -6.613681776      3.780      4.646
REMARK  20 active torsions:
REMARK  status: ('A' for Active; 'I' for Inactive)
REMARK    1  A    between atoms: C2_2  and  C3_3 
REMARK    2  A    between atoms: C3_3  and  C4_4 
REMARK    3  A    between atoms: C4_4  and  C5_5 
REMARK    4  A    between atoms: C5_5  and  C6_6 
REMARK    5  A    between atoms: C6_6  and  C7_7 
REMARK    6  A    between atoms: C7_7  and  C8_8 
REMARK    7  A    between atoms: C8_8  and  C9_9 
REMARK    8  A    between atoms: C9_9  and  C10_10 
REMARK    9  A    between atoms: C10_10  and  C11_11 
REMARK   10  A    between atoms: C10_10  and  C12_14 
REMARK   11  A    between atoms: C16_18  and  O3_19 
REMARK   12  A    between atoms: O3_19  and  C17_20 
REMARK   13  A    between atoms: C18_22  and  C19_23 
REMARK   14  A    between atoms: C19_23  and  O5_24 
REMARK   15  A    between atoms: C20_26  and  O6_27 
REMARK   16  A    between atoms: C21_29  and  N1_30 
REMARK   17  A    between atoms: N1_30  and  N2_32 
REMARK   18  A    between atoms: N2_32  and  N3_33 
REMARK   19  A    between atoms: C22_36  and  O7_37 
REMARK   20  A    between atoms: C23_39  and  O8_40 
ROOT
HETATM    1  C12 UNL     1      29.653  30.079  16.149  1.00  0.00     0.136 C 
HETATM    2  C13 UNL     1      30.354  28.798  16.418  1.00  0.00     0.040 C 
HETATM    3  C14 UNL     1      29.404  27.768  15.849  1.00  0.00     0.022 C 
HETATM    4  C15 UNL     1      29.105  26.629  16.753  1.00  0.00     0.042 C 
HETATM    5  C16 UNL     1      27.649  26.272  16.865  1.00  0.00     0.156 C 
HETATM    6  C22 UNL     1      26.777  27.476  17.134  1.00  0.00     0.178 C 
HETATM    7  C23 UNL     1      27.029  28.596  16.202  1.00  0.00     0.178 C 
HETATM    8  C24 UNL     1      28.242  28.545  15.359  1.00  0.00     0.157 C 
HETATM    9  O9  UNL     1      28.680  29.873  15.184  1.00  0.00    -0.377 OA
ENDROOT
BRANCH   5  10
HETATM   10  O3  UNL     1      27.507  25.308  17.842  1.00  0.00    -0.351 OA
BRANCH  10  11
HETATM   11  C17 UNL     1      26.553  24.363  17.602  1.00  0.00     0.288 C 
HETATM   12  O4  UNL     1      27.016  23.054  17.547  1.00  0.00    -0.349 OA
HETATM   13  C18 UNL     1      25.956  22.223  17.755  1.00  0.00     0.179 C 
HETATM   14  C20 UNL     1      24.806  22.985  18.352  1.00  0.00     0.179 C 
HETATM   15  C21 UNL     1      25.373  24.371  18.507  1.00  0.00     0.200 C 
BRANCH  13  16
HETATM   16  C19 UNL     1      25.515  21.489  16.504  1.00  0.00     0.198 C 
BRANCH  16  17
HETATM   17  O5  UNL     1      24.836  20.341  16.929  1.00  0.00    -0.398 OA
ATOM     18  H5  UNL     1      25.442  19.615  16.838  1.00  0.00     0.209 HD
ENDBRANCH  16  17
ENDBRANCH  13  16
BRANCH  14  19
HETATM   19  O6  UNL     1      23.767  23.026  17.422  1.00  0.00    -0.391 OA
ATOM     20  H6  UNL     1      22.993  23.378  17.845  1.00  0.00     0.210 HD
ENDBRANCH  14  19
BRANCH  15  21
HETATM   21  N1  UNL     1      25.698  24.555  19.901  1.00  0.00    -0.240 N 
ATOM     22  H1  UNL     1      26.118  23.798  20.440  1.00  0.00     0.197 HD
BRANCH  21  23
HETATM   23  N2  UNL     1      25.464  25.622  20.421  1.00  0.00    -0.248 NA
BRANCH  23  24
HETATM   24  N3  UNL     1      25.264  26.798  20.761  1.00  0.00    -0.261 N 
ATOM     25  H32 UNL     1      26.275  26.924  20.813  1.00  0.00     0.193 HD
ATOM     26  H31 UNL     1      24.930  27.724  21.026  1.00  0.00     0.193 HD
ENDBRANCH  23  24
ENDBRANCH  21  23
ENDBRANCH  15  21
ENDBRANCH  10  11
ENDBRANCH   5  10
BRANCH   6  27
HETATM   27  O7  UNL     1      26.838  27.859  18.485  1.00  0.00    -0.390 OA
ATOM     28  H7  UNL     1      26.130  28.453  18.707  1.00  0.00     0.210 HD
ENDBRANCH   6  27
BRANCH   7  29
HETATM   29  O8  UNL     1      25.877  28.778  15.398  1.00  0.00    -0.390 OA
ATOM     30  H8  UNL     1      25.784  28.022  14.831  1.00  0.00     0.210 HD
ENDBRANCH   7  29
BRANCH   1  31
HETATM   31  C10 UNL     1      30.626  31.136  15.550  1.00  0.00     0.116 C 
BRANCH  31  32
HETATM   32  C9  UNL     1      31.170  31.976  16.622  1.00  0.00     0.018 C 
BRANCH  32  33
HETATM   33  C8  UNL     1      32.558  31.749  17.037  1.00  0.00     0.001 C 
BRANCH  33  34
HETATM   34  C7  UNL     1      32.857  31.366  18.444  1.00  0.00     0.000 C 
BRANCH  34  35
HETATM   35  C6  UNL     1      31.564  31.044  19.185  1.00  0.00     0.000 C 
BRANCH  35  36
HETATM   36  C5  UNL     1      31.692  29.787  19.989  1.00  0.00     0.000 C 
BRANCH  36  37
HETATM   37  C4  UNL     1      33.108  29.447  20.349  1.00  0.00     0.000 C 
BRANCH  37  38
HETATM   38  C3  UNL     1      33.205  28.424  21.462  1.00  0.00    -0.000 C 
BRANCH  38  39
HETATM   39  C2  UNL     1      34.353  27.503  21.109  1.00  0.00    -0.005 C 
HETATM   40  C1  UNL     1      34.190  26.118  21.653  1.00  0.00     0.005 C 
ENDBRANCH  38  39
ENDBRANCH  37  38
ENDBRANCH  36  37
ENDBRANCH  35  36
ENDBRANCH  34  35
ENDBRANCH  33  34
ENDBRANCH  32  33
ENDBRANCH  31  32
BRANCH  31  41
HETATM   41  C11 UNL     1      30.017  31.776  14.398  1.00  0.00     0.179 C 
HETATM   42  O1  UNL     1      30.242  31.408  13.191  1.00  0.00    -0.648 OA
HETATM   43  O2  UNL     1      29.123  32.848  14.493  1.00  0.00    -0.648 OA
ENDBRANCH  31  41
ENDBRANCH   1  31
TORSDOF 20
ENDMDL
MODEL 3
REMARK VINA RESULT: -6.435475530      3.050      5.169
REMARK  20 active torsions:
REMARK  status: ('A' for Active; 'I' for Inactive)
REMARK    1  A    between atoms: C2_2  and  C3_3 
REMARK    2  A    between atoms: C3_3  and  C4_4 
REMARK    3  A    between atoms: C4_4  and  C5_5 
REMARK    4  A    between atoms: C5_5  and  C6_6 
REMARK    5  A    between atoms: C6_6  and  C7_7 
REMARK    6  A    between atoms: C7_7  and  C8_8 
REMARK    7  A    between atoms: C8_8  and  C9_9 
REMARK    8  A    between atoms: C9_9  and  C10_10 
REMARK    9  A    between atoms: C10_10  and  C11_11 
REMARK   10  A    between atoms: C10_10  and  C12_14 
REMARK   11  A    between atoms: C16_18  and  O3_19 
REMARK   12  A    between atoms: O3_19  and  C17_20 
REMARK   13  A    between atoms: C18_22  and  C19_23 
REMARK   14  A    between atoms: C19_23  and  O5_24 
REMARK   15  A    between atoms: C20_26  and  O6_27 
REMARK   16  A    between atoms: C21_29  and  N1_30 
REMARK   17  A    between atoms: N1_30  and  N2_32 
REMARK   18  A    between atoms: N2_32  and  N3_33 
REMARK   19  A    between atoms: C22_36  and  O7_37 
REMARK   20  A    between atoms: C23_39  and  O8_40 
ROOT
HETATM    1  C12 UNL     1      26.435  30.091  19.443  1.00  0.00     0.136 C 
HETATM    2  C13 UNL     1      26.336  30.063  20.924  1.00  0.00     0.040 C 
HETATM    3  C14 UNL     1      24.984  29.428  21.159  1.00  0.00     0.022 C 
HETATM    4  C15 UNL     1      24.114  30.149  22.123  1.00  0.00     0.042 C 
HETATM    5  C16 UNL     1      22.694  30.349  21.671  1.00  0.00     0.156 C 
HETATM    6  C22 UNL     1      22.606  30.910  20.271  1.00  0.00     0.178 C 
HETATM    7  C23 UNL     1      23.426  30.163  19.292  1.00  0.00     0.178 C 
HETATM    8  C24 UNL     1      24.424  29.202  19.806  1.00  0.00     0.157 C 
HETATM    9  O9  UNL     1      25.508  29.212  18.906  1.00  0.00    -0.377 OA
ENDROOT
BRANCH   5  10
HETATM   10  O3  UNL     1      22.052  31.156  22.588  1.00  0.00    -0.351 OA
BRANCH  10  11
HETATM   11  C17 UNL     1      20.800  30.753  22.950  1.00  0.00     0.288 C 
HETATM   12  O4  UNL     1      20.337  29.610  22.310  1.00  0.00    -0.349 OA
HETATM   13  C18 UNL     1      19.327  29.087  23.062  1.00  0.00     0.179 C 
HETATM   14  C20 UNL     1      19.355  29.666  24.448  1.00  0.00     0.179 C 
HETATM   15  C21 UNL     1      20.563  30.565  24.406  1.00  0.00     0.200 C 
BRANCH  13  16
HETATM   16  C19 UNL     1      17.958  29.269  22.437  1.00  0.00     0.198 C 
BRANCH  16  17
HETATM   17  O5  UNL     1      17.130  28.284  22.988  1.00  0.00    -0.398 OA
ATOM     18  H5  UNL     1      16.973  27.644  22.302  1.00  0.00     0.209 HD
ENDBRANCH  16  17
ENDBRANCH  13  16
BRANCH  14  19
HETATM   19  O6  UNL     1      18.216  30.451  24.627  1.00  0.00    -0.391 OA
ATOM     20  H6  UNL     1      18.459  31.365  24.538  1.00  0.00     0.210 HD
ENDBRANCH  14  19
BRANCH  15  21
HETATM   21  N1  UNL     1      21.634  29.890  25.098  1.00  0.00    -0.240 N 
ATOM     22  H1  UNL     1      22.399  29.462  24.577  1.00  0.00     0.197 HD
BRANCH  21  23
HETATM   23  N2  UNL     1      21.610  29.839  26.306  1.00  0.00    -0.248 NA
BRANCH  23  24
HETATM   24  N3  UNL     1      21.545  29.996  27.534  1.00  0.00    -0.261 N 
ATOM     25  H32 UNL     1      21.715  30.991  27.387  1.00  0.00     0.193 HD
ATOM     26  H31 UNL     1      21.464  29.952  28.550  1.00  0.00     0.193 HD
ENDBRANCH  23  24
ENDBRANCH  21  23
ENDBRANCH  15  21
ENDBRANCH  10  11
ENDBRANCH   5  10
BRANCH   6  27
HETATM   27  O7  UNL     1      22.858  32.293  20.258  1.00  0.00    -0.390 OA
ATOM     28  H7  UNL     1      22.486  32.704  19.486  1.00  0.00     0.210 HD
ENDBRANCH   6  27
BRANCH   7  29
HETATM   29  O8  UNL     1      22.556  29.526  18.373  1.00  0.00    -0.390 OA
ATOM     30  H8  UNL     1      22.510  28.603  18.592  1.00  0.00     0.210 HD
ENDBRANCH   7  29
BRANCH   1  31
HETATM   31  C10 UNL     1      27.827  29.584  18.964  1.00  0.00     0.116 C 
BRANCH  31  32
HETATM   32  C9  UNL     1      28.868  30.538  19.360  1.00  0.00     0.018 C 
BRANCH  32  33
HETATM   33  C8  UNL     1      30.218  30.347  18.825  1.00  0.00     0.001 C 
BRANCH  33  34
HETATM   34  C7  UNL     1      31.331  31.220  19.289  1.00  0.00     0.000 C 
BRANCH  34  35
HETATM   35  C6  UNL     1      32.539  30.371  19.669  1.00  0.00     0.000 C 
BRANCH  35  36
HETATM   36  C5  UNL     1      32.130  29.146  20.427  1.00  0.00     0.000 C 
BRANCH  36  37
HETATM   37  C4  UNL     1      33.188  28.641  21.365  1.00  0.00     0.000 C 
BRANCH  37  38
HETATM   38  C3  UNL     1      34.566  28.604  20.736  1.00  0.00    -0.000 C 
BRANCH  38  39
HETATM   39  C2  UNL     1      35.184  27.277  21.119  1.00  0.00    -0.005 C 
HETATM   40  C1  UNL     1      34.176  26.256  21.546  1.00  0.00     0.005 C 
ENDBRANCH  38  39
ENDBRANCH  37  38
ENDBRANCH  36  37
ENDBRANCH  35  36
ENDBRANCH  34  35
ENDBRANCH  33  34
ENDBRANCH  32  33
ENDBRANCH  31  32
BRANCH  31  41
HETATM   41  C11 UNL     1      27.752  29.164  17.577  1.00  0.00     0.179 C 
HETATM   42  O1  UNL     1      27.962  27.957  17.198  1.00  0.00    -0.648 OA
HETATM   43  O2  UNL     1      27.439  30.029  16.523  1.00  0.00    -0.648 OA
ENDBRANCH  31  41
ENDBRANCH   1  31
TORSDOF 20
ENDMDL
MODEL 4
REMARK VINA RESULT: -6.353900299      3.160      3.864
REMARK  20 active torsions:
REMARK  status: ('A' for Active; 'I' for Inactive)
REMARK    1  A    between atoms: C2_2  and  C3_3 
REMARK    2  A    between atoms: C3_3  and  C4_4 
REMARK    3  A    between atoms: C4_4  and  C5_5 
REMARK    4  A    between atoms: C5_5  and  C6_6 
REMARK    5  A    between atoms: C6_6  and  C7_7 
REMARK    6  A    between atoms: C7_7  and  C8_8 
REMARK    7  A    between atoms: C8_8  and  C9_9 
REMARK    8  A    between atoms: C9_9  and  C10_10 
REMARK    9  A    between atoms: C10_10  and  C11_11 
REMARK   10  A    between atoms: C10_10  and  C12_14 
REMARK   11  A    between atoms: C16_18  and  O3_19 
REMARK   12  A    between atoms: O3_19  and  C17_20 
REMARK   13  A    between atoms: C18_22  and  C19_23 
REMARK   14  A    between atoms: C19_23  and  O5_24 
REMARK   15  A    between atoms: C20_26  and  O6_27 
REMARK   16  A    between atoms: C21_29  and  N1_30 
REMARK   17  A    between atoms: N1_30  and  N2_32 
REMARK   18  A    between atoms: N2_32  and  N3_33 
REMARK   19  A    between atoms: C22_36  and  O7_37 
REMARK   20  A    between atoms: C23_39  and  O8_40 
ROOT
HETATM    1  C12 UNL     1      30.562  30.763  16.472  1.00  0.00     0.136 C 
HETATM    2  C13 UNL     1      30.602  29.594  17.386  1.00  0.00     0.040 C 
HETATM    3  C14 UNL     1      29.740  28.578  16.671  1.00  0.00     0.022 C 
HETATM    4  C15 UNL     1      28.708  27.928  17.518  1.00  0.00     0.042 C 
HETATM    5  C16 UNL     1      27.335  27.861  16.909  1.00  0.00     0.156 C 
HETATM    6  C22 UNL     1      26.883  29.192  16.354  1.00  0.00     0.178 C 
HETATM    7  C23 UNL     1      27.883  29.821  15.464  1.00  0.00     0.178 C 
HETATM    8  C24 UNL     1      29.255  29.272  15.455  1.00  0.00     0.157 C 
HETATM    9  O9  UNL     1      30.130  30.351  15.222  1.00  0.00    -0.377 OA
ENDROOT
BRANCH   5  10
HETATM   10  O3  UNL     1      26.458  27.376  17.856  1.00  0.00    -0.351 OA
BRANCH  10  11
HETATM   11  C17 UNL     1      26.037  26.093  17.666  1.00  0.00     0.288 C 
HETATM   12  O4  UNL     1      26.982  25.234  17.120  1.00  0.00    -0.349 OA
HETATM   13  C18 UNL     1      26.603  23.955  17.402  1.00  0.00     0.179 C 
HETATM   14  C20 UNL     1      25.577  23.947  18.500  1.00  0.00     0.179 C 
HETATM   15  C21 UNL     1      25.455  25.406  18.850  1.00  0.00     0.200 C 
BRANCH  13  16
HETATM   16  C19 UNL     1      26.091  23.201  16.191  1.00  0.00     0.198 C 
BRANCH  16  17
HETATM   17  O5  UNL     1      26.205  21.837  16.488  1.00  0.00    -0.398 OA
ATOM     18  H5  UNL     1      26.311  21.385  15.658  1.00  0.00     0.209 HD
ENDBRANCH  16  17
ENDBRANCH  13  16
BRANCH  14  19
HETATM   19  O6  UNL     1      24.362  23.508  17.974  1.00  0.00    -0.391 OA
ATOM     20  H6  UNL     1      23.728  23.449  18.678  1.00  0.00     0.210 HD
ENDBRANCH  14  19
BRANCH  15  21
HETATM   21  N1  UNL     1      26.183  25.623  20.077  1.00  0.00    -0.240 N 
ATOM     22  H1  UNL     1      27.200  25.544  20.096  1.00  0.00     0.197 HD
BRANCH  21  23
HETATM   23  N2  UNL     1      25.569  25.899  21.081  1.00  0.00    -0.248 NA
BRANCH  23  24
HETATM   24  N3  UNL     1      25.127  26.253  22.184  1.00  0.00    -0.261 N 
ATOM     25  H32 UNL     1      25.999  26.758  22.339  1.00  0.00     0.193 HD
ATOM     26  H31 UNL     1      24.621  26.451  23.047  1.00  0.00     0.193 HD
ENDBRANCH  23  24
ENDBRANCH  21  23
ENDBRANCH  15  21
ENDBRANCH  10  11
ENDBRANCH   5  10
BRANCH   6  27
HETATM   27  O7  UNL     1      26.442  30.048  17.377  1.00  0.00    -0.390 OA
ATOM     28  H7  UNL     1      25.530  30.287  17.258  1.00  0.00     0.210 HD
ENDBRANCH   6  27
BRANCH   7  29
HETATM   29  O8  UNL     1      27.356  29.850  14.149  1.00  0.00    -0.390 OA
ATOM     30  H8  UNL     1      27.761  30.568  13.678  1.00  0.00     0.210 HD
ENDBRANCH   7  29
BRANCH   1  31
HETATM   31  C10 UNL     1      31.986  31.354  16.255  1.00  0.00     0.116 C 
BRANCH  31  32
HETATM   32  C9  UNL     1      32.634  31.581  17.551  1.00  0.00     0.018 C 
BRANCH  32  33
HETATM   33  C8  UNL     1      33.895  30.885  17.823  1.00  0.00     0.001 C 
BRANCH  33  34
HETATM   34  C7  UNL     1      34.135  30.283  19.163  1.00  0.00     0.000 C 
BRANCH  34  35
HETATM   35  C6  UNL     1      32.871  30.371  20.010  1.00  0.00     0.000 C 
BRANCH  35  36
HETATM   36  C5  UNL     1      32.506  29.039  20.589  1.00  0.00     0.000 C 
BRANCH  36  37
HETATM   37  C4  UNL     1      33.548  28.480  21.513  1.00  0.00     0.000 C 
BRANCH  37  38
HETATM   38  C3  UNL     1      33.740  26.986  21.351  1.00  0.00    -0.000 C 
BRANCH  38  39
HETATM   39  C2  UNL     1      35.232  26.737  21.332  1.00  0.00    -0.005 C 
HETATM   40  C1  UNL     1      36.042  27.996  21.315  1.00  0.00     0.005 C 
ENDBRANCH  38  39
ENDBRANCH  37  38
ENDBRANCH  36  37
ENDBRANCH  35  36
ENDBRANCH  34  35
ENDBRANCH  33  34
ENDBRANCH  32  33
ENDBRANCH  31  32
BRANCH  31  41
HETATM   41  C11 UNL     1      31.931  32.444  15.298  1.00  0.00     0.179 C 
HETATM   42  O1  UNL     1      32.713  32.528  14.286  1.00  0.00    -0.648 OA
HETATM   43  O2  UNL     1      31.019  33.501  15.383  1.00  0.00    -0.648 OA
ENDBRANCH  31  41
ENDBRANCH   1  31
TORSDOF 20
ENDMDL
MODEL 5
REMARK VINA RESULT: -6.268786529      5.081      7.443
REMARK  20 active torsions:
REMARK  status: ('A' for Active; 'I' for Inactive)
REMARK    1  A    between atoms: C2_2  and  C3_3 
REMARK    2  A    between atoms: C3_3  and  C4_4 
REMARK    3  A    between atoms: C4_4  and  C5_5 
REMARK    4  A    between atoms: C5_5  and  C6_6 
REMARK    5  A    between atoms: C6_6  and  C7_7 
REMARK    6  A    between atoms: C7_7  and  C8_8 
REMARK    7  A    between atoms: C8_8  and  C9_9 
REMARK    8  A    between atoms: C9_9  and  C10_10 
REMARK    9  A    between atoms: C10_10  and  C11_11 
REMARK   10  A    between atoms: C10_10  and  C12_14 
REMARK   11  A    between atoms: C16_18  and  O3_19 
REMARK   12  A    between atoms: O3_19  and  C17_20 
REMARK   13  A    between atoms: C18_22  and  C19_23 
REMARK   14  A    between atoms: C19_23  and  O5_24 
REMARK   15  A    between atoms: C20_26  and  O6_27 
REMARK   16  A    between atoms: C21_29  and  N1_30 
REMARK   17  A    between atoms: N1_30  and  N2_32 
REMARK   18  A    between atoms: N2_32  and  N3_33 
REMARK   19  A    between atoms: C22_36  and  O7_37 
REMARK   20  A    between atoms: C23_39  and  O8_40 
ROOT
HETATM    1  C12 UNL     1      30.955  31.974  16.008  1.00  0.00     0.136 C 
HETATM    2  C13 UNL     1      32.234  32.217  16.721  1.00  0.00     0.040 C 
HETATM    3  C14 UNL     1      32.575  30.851  17.276  1.00  0.00     0.022 C 
HETATM    4  C15 UNL     1      32.944  30.836  18.714  1.00  0.00     0.042 C 
HETATM    5  C16 UNL     1      32.275  29.765  19.530  1.00  0.00     0.156 C 
HETATM    6  C22 UNL     1      30.781  29.716  19.308  1.00  0.00     0.178 C 
HETATM    7  C23 UNL     1      30.407  29.674  17.879  1.00  0.00     0.178 C 
HETATM    8  C24 UNL     1      31.447  29.979  16.874  1.00  0.00     0.157 C 
HETATM    9  O9  UNL     1      30.804  30.613  15.792  1.00  0.00    -0.377 OA
ENDROOT
BRANCH   5  10
HETATM   10  O3  UNL     1      32.590  29.964  20.858  1.00  0.00    -0.351 OA
BRANCH  10  11
HETATM   11  C17 UNL     1      33.309  28.967  21.449  1.00  0.00     0.288 C 
HETATM   12  O4  UNL     1      33.434  27.803  20.699  1.00  0.00    -0.349 OA
HETATM   13  C18 UNL     1      34.503  27.106  21.179  1.00  0.00     0.179 C 
HETATM   14  C20 UNL     1      35.368  27.997  22.026  1.00  0.00     0.179 C 
HETATM   15  C21 UNL     1      34.671  29.327  21.925  1.00  0.00     0.200 C 
BRANCH  13  16
HETATM   16  C19 UNL     1      34.110  25.860  21.947  1.00  0.00     0.198 C 
BRANCH  16  17
HETATM   17  O5  UNL     1      35.286  25.129  22.156  1.00  0.00    -0.398 OA
ATOM     18  H5  UNL     1      35.025  24.289  22.517  1.00  0.00     0.209 HD
ENDBRANCH  16  17
ENDBRANCH  13  16
BRANCH  14  19
HETATM   19  O6  UNL     1      35.305  27.555  23.347  1.00  0.00    -0.391 OA
ATOM     20  H6  UNL     1      34.453  27.779  23.703  1.00  0.00     0.210 HD
ENDBRANCH  14  19
BRANCH  15  21
HETATM   21  N1  UNL     1      35.423  30.145  21.004  1.00  0.00    -0.240 N 
ATOM     22  H1  UNL     1      35.474  31.156  21.131  1.00  0.00     0.197 HD
BRANCH  21  23
HETATM   23  N2  UNL     1      35.992  29.613  20.079  1.00  0.00    -0.248 NA
BRANCH  23  24
HETATM   24  N3  UNL     1      36.604  29.265  19.058  1.00  0.00    -0.261 N 
ATOM     25  H32 UNL     1      35.945  29.818  18.510  1.00  0.00     0.193 HD
ATOM     26  H31 UNL     1      37.210  28.891  18.328  1.00  0.00     0.193 HD
ENDBRANCH  23  24
ENDBRANCH  21  23
ENDBRANCH  15  21
ENDBRANCH  10  11
ENDBRANCH   5  10
BRANCH   6  27
HETATM   27  O7  UNL     1      30.126  30.736  20.019  1.00  0.00    -0.390 OA
ATOM     28  H7  UNL     1      29.240  30.865  19.700  1.00  0.00     0.210 HD
ENDBRANCH   6  27
BRANCH   7  29
HETATM   29  O8  UNL     1      29.814  28.416  17.607  1.00  0.00    -0.390 OA
ATOM     30  H8  UNL     1      29.299  28.157  18.361  1.00  0.00     0.210 HD
ENDBRANCH   7  29
BRANCH   1  31
HETATM   31  C10 UNL     1      30.967  32.628  14.596  1.00  0.00     0.116 C 
BRANCH  31  32
HETATM   32  C9  UNL     1      32.165  33.459  14.443  1.00  0.00     0.018 C 
BRANCH  32  33
HETATM   33  C8  UNL     1      33.175  33.038  13.468  1.00  0.00     0.001 C 
BRANCH  33  34
HETATM   34  C7  UNL     1      34.622  33.184  13.790  1.00  0.00     0.000 C 
BRANCH  34  35
HETATM   35  C6  UNL     1      35.180  31.861  14.300  1.00  0.00     0.000 C 
BRANCH  35  36
HETATM   36  C5  UNL     1      34.444  30.694  13.715  1.00  0.00     0.000 C 
BRANCH  36  37
HETATM   37  C4  UNL     1      34.522  29.453  14.556  1.00  0.00     0.000 C 
BRANCH  37  38
HETATM   38  C3  UNL     1      35.814  29.353  15.342  1.00  0.00    -0.000 C 
BRANCH  38  39
HETATM   39  C2  UNL     1      36.522  28.106  14.858  1.00  0.00    -0.005 C 
HETATM   40  C1  UNL     1      37.296  28.317  13.594  1.00  0.00     0.005 C 
ENDBRANCH  38  39
ENDBRANCH  37  38
ENDBRANCH  36  37
ENDBRANCH  35  36
ENDBRANCH  34  35
ENDBRANCH  33  34
ENDBRANCH  32  33
ENDBRANCH  31  32
BRANCH  31  41
HETATM   41  C11 UNL     1      29.668  33.209  14.307  1.00  0.00     0.179 C 
HETATM   42  O1  UNL     1      28.583  32.526  14.290  1.00  0.00    -0.648 OA
HETATM   43  O2  UNL     1      29.473  34.565  14.026  1.00  0.00    -0.648 OA
ENDBRANCH  31  41
ENDBRANCH   1  31
TORSDOF 20
ENDMDL
