MODEL 1
REMARK VINA RESULT: -7.425772606      0.000      0.000
REMARK  21 active torsions:
REMARK  status: ('A' for Active; 'I' for Inactive)
REMARK    1  A    between atoms: C2_2  and  C3_3 
REMARK    2  A    between atoms: C3_3  and  C4_4 
REMARK    3  A    between atoms: C4_4  and  C5_5 
REMARK    4  A    between atoms: C5_5  and  C6_6 
REMARK    5  A    between atoms: C6_6  and  C7_8 
REMARK    6  A    between atoms: C7_8  and  C8_9 
REMARK    7  A    between atoms: C8_9  and  C9_10 
REMARK    8  A    between atoms: C10_11  and  C11_12 
REMARK    9  A    between atoms: C12_13  and  C13_14 
REMARK   10  A    between atoms: C13_14  and  C14_15 
REMARK   11  A    between atoms: C14_15  and  C15_16 
REMARK   12  A    between atoms: C16_17  and  C17_18 
REMARK   13  A    between atoms: C16_17  and  O3_27 
REMARK   14  A    between atoms: C17_18  and  C18_19 
REMARK   15  A    between atoms: C22_24  and  O2_25 
REMARK   16  A    between atoms: O3_27  and  C23_28 
REMARK   17  A    between atoms: C24_30  and  C25_31 
REMARK   18  A    between atoms: C25_31  and  O5_32 
REMARK   19  A    between atoms: C26_34  and  O6_35 
REMARK   20  A    between atoms: C27_37  and  O7_38 
REMARK   21  A    between atoms: C28_40  and  O8_41 
ROOT
HETATM    1  C15 UNL     1      25.035  30.911  22.190  1.00  0.00     0.040 C 
HETATM    2  C16 UNL     1      23.914  31.224  21.640  1.00  0.00     0.051 C 
ENDROOT
BRANCH   2   3
HETATM    3  C17 UNL     1      23.748  32.132  20.508  1.00  0.00     0.073 C 
BRANCH   3   4
HETATM    4  C18 UNL     1      23.034  31.346  19.420  1.00  0.00     0.050 C 
HETATM    5  C19 UNL     1      22.046  32.123  18.652  1.00  0.00     0.279 C 
HETATM    6  N1  UNL     1      22.216  31.832  17.253  1.00  0.00     0.087 N 
HETATM    7  C20 UNL     1      22.773  32.971  16.532  1.00  0.00     0.310 C 
HETATM    8  C21 UNL     1      23.118  30.696  17.175  1.00  0.00     0.303 C 
HETATM    9  C22 UNL     1      23.998  30.808  18.398  1.00  0.00     0.152 C 
BRANCH   9  10
HETATM   10  O2  UNL     1      25.025  31.710  18.113  1.00  0.00    -0.393 OA
ATOM     11  H2  UNL     1      25.677  31.341  17.529  1.00  0.00     0.210 HD
ENDBRANCH   9  10
ENDBRANCH   3   4
ENDBRANCH   2   3
BRANCH   2  12
HETATM   12  O3  UNL     1      22.753  30.657  22.154  1.00  0.00    -0.322 OA
BRANCH  12  13
HETATM   13  C23 UNL     1      22.722  29.462  22.893  1.00  0.00     0.297 C 
HETATM   14  O4  UNL     1      22.564  29.761  24.249  1.00  0.00    -0.348 OA
HETATM   15  C24 UNL     1      21.390  30.485  24.471  1.00  0.00     0.179 C 
HETATM   16  C26 UNL     1      20.215  29.937  23.748  1.00  0.00     0.180 C 
HETATM   17  C27 UNL     1      20.414  28.550  23.173  1.00  0.00     0.183 C 
HETATM   18  C28 UNL     1      21.687  28.469  22.401  1.00  0.00     0.205 C 
BRANCH  15  19
HETATM   19  C25 UNL     1      21.215  30.563  25.982  1.00  0.00     0.198 C 
BRANCH  19  20
HETATM   20  O5  UNL     1      21.255  29.327  26.578  1.00  0.00    -0.398 OA
ATOM     21  H5  UNL     1      20.851  29.326  27.437  1.00  0.00     0.209 HD
ENDBRANCH  19  20
ENDBRANCH  15  19
BRANCH  16  22
HETATM   22  O6  UNL     1      19.046  29.900  24.505  1.00  0.00    -0.390 OA
ATOM     23  H6  UNL     1      18.855  30.707  24.967  1.00  0.00     0.210 HD
ENDBRANCH  16  22
BRANCH  17  24
HETATM   24  O7  UNL     1      20.295  27.605  24.191  1.00  0.00    -0.390 OA
ATOM     25  H7  UNL     1      20.975  27.751  24.838  1.00  0.00     0.210 HD
ENDBRANCH  17  24
BRANCH  18  26
HETATM   26  O8  UNL     1      22.142  27.159  22.469  1.00  0.00    -0.388 OA
ATOM     27  H8  UNL     1      21.434  26.529  22.408  1.00  0.00     0.210 HD
ENDBRANCH  18  26
ENDBRANCH  12  13
ENDBRANCH   2  12
BRANCH   1  28
HETATM   28  C14 UNL     1      26.387  31.432  21.750  1.00  0.00     0.058 C 
BRANCH  28  29
HETATM   29  C13 UNL     1      27.003  30.881  20.828  1.00  0.00    -0.128 C 
BRANCH  29  30
HETATM   30  C12 UNL     1      27.701  30.251  19.788  1.00  0.00     0.055 C 
HETATM   31  C11 UNL     1      29.016  30.560  19.581  1.00  0.00     0.008 C 
BRANCH  31  32
HETATM   32  C10 UNL     1      29.722  29.911  18.511  1.00  0.00    -0.003 C 
HETATM   33  C9  UNL     1      31.009  29.753  18.488  1.00  0.00    -0.026 C 
BRANCH  33  34
HETATM   34  C8  UNL     1      31.937  30.198  19.520  1.00  0.00     0.034 C 
BRANCH  34  35
HETATM   35  C7  UNL     1      33.072  30.999  18.989  1.00  0.00     0.082 C 
BRANCH  35  36
HETATM   36  C6  UNL     1      34.379  30.473  19.429  1.00  0.00     0.127 C 
HETATM   37  O1  UNL     1      35.406  30.906  18.993  1.00  0.00    -0.298 OA
BRANCH  36  38
HETATM   38  C5  UNL     1      34.343  29.382  20.437  1.00  0.00     0.078 C 
BRANCH  38  39
HETATM   39  C4  UNL     1      35.638  28.663  20.644  1.00  0.00     0.007 C 
BRANCH  39  40
HETATM   40  C3  UNL     1      35.641  27.872  21.911  1.00  0.00     0.000 C 
BRANCH  40  41
HETATM   41  C2  UNL     1      35.420  26.405  21.726  1.00  0.00    -0.005 C 
HETATM   42  C1  UNL     1      33.995  25.972  21.700  1.00  0.00     0.005 C 
ENDBRANCH  40  41
ENDBRANCH  39  40
ENDBRANCH  38  39
ENDBRANCH  36  38
ENDBRANCH  35  36
ENDBRANCH  34  35
ENDBRANCH  33  34
ENDBRANCH  31  32
ENDBRANCH  29  30
ENDBRANCH  28  29
ENDBRANCH   1  28
TORSDOF 21
ENDMDL
MODEL 2
REMARK VINA RESULT: -7.323998947      1.379      1.744
REMARK  21 active torsions:
REMARK  status: ('A' for Active; 'I' for Inactive)
REMARK    1  A    between atoms: C2_2  and  C3_3 
REMARK    2  A    between atoms: C3_3  and  C4_4 
REMARK    3  A    between atoms: C4_4  and  C5_5 
REMARK    4  A    between atoms: C5_5  and  C6_6 
REMARK    5  A    between atoms: C6_6  and  C7_8 
REMARK    6  A    between atoms: C7_8  and  C8_9 
REMARK    7  A    between atoms: C8_9  and  C9_10 
REMARK    8  A    between atoms: C10_11  and  C11_12 
REMARK    9  A    between atoms: C12_13  and  C13_14 
REMARK   10  A    between atoms: C13_14  and  C14_15 
REMARK   11  A    between atoms: C14_15  and  C15_16 
REMARK   12  A    between atoms: C16_17  and  C17_18 
REMARK   13  A    between atoms: C16_17  and  O3_27 
REMARK   14  A    between atoms: C17_18  and  C18_19 
REMARK   15  A    between atoms: C22_24  and  O2_25 
REMARK   16  A    between atoms: O3_27  and  C23_28 
REMARK   17  A    between atoms: C24_30  and  C25_31 
REMARK   18  A    between atoms: C25_31  and  O5_32 
REMARK   19  A    between atoms: C26_34  and  O6_35 
REMARK   20  A    between atoms: C27_37  and  O7_38 
REMARK   21  A    between atoms: C28_40  and  O8_41 
ROOT
HETATM    1  C15 UNL     1      25.030  30.853  22.026  1.00  0.00     0.040 C 
HETATM    2  C16 UNL     1      23.886  31.222  21.564  1.00  0.00     0.051 C 
ENDROOT
BRANCH   2   3
HETATM    3  C17 UNL     1      23.676  32.205  20.505  1.00  0.00     0.073 C 
BRANCH   3   4
HETATM    4  C18 UNL     1      22.210  32.606  20.567  1.00  0.00     0.050 C 
HETATM    5  C19 UNL     1      21.971  33.980  21.041  1.00  0.00     0.279 C 
HETATM    6  N1  UNL     1      20.993  34.599  20.188  1.00  0.00     0.087 N 
HETATM    7  C20 UNL     1      21.589  35.638  19.354  1.00  0.00     0.310 C 
HETATM    8  C21 UNL     1      20.441  33.542  19.359  1.00  0.00     0.303 C 
HETATM    9  C22 UNL     1      21.555  32.532  19.214  1.00  0.00     0.152 C 
BRANCH   9  10
HETATM   10  O2  UNL     1      22.402  32.964  18.193  1.00  0.00    -0.393 OA
ATOM     11  H2  UNL     1      23.287  33.120  18.500  1.00  0.00     0.210 HD
ENDBRANCH   9  10
ENDBRANCH   3   4
ENDBRANCH   2   3
BRANCH   2  12
HETATM   12  O3  UNL     1      22.745  30.643  22.108  1.00  0.00    -0.322 OA
BRANCH  12  13
HETATM   13  C23 UNL     1      22.747  29.462  22.870  1.00  0.00     0.297 C 
HETATM   14  O4  UNL     1      22.582  29.783  24.220  1.00  0.00    -0.348 OA
HETATM   15  C24 UNL     1      21.389  30.479  24.429  1.00  0.00     0.179 C 
HETATM   16  C26 UNL     1      20.229  29.884  23.719  1.00  0.00     0.180 C 
HETATM   17  C27 UNL     1      20.466  28.491  23.171  1.00  0.00     0.183 C 
HETATM   18  C28 UNL     1      21.740  28.431  22.399  1.00  0.00     0.205 C 
BRANCH  15  19
HETATM   19  C25 UNL     1      21.212  30.582  25.938  1.00  0.00     0.198 C 
BRANCH  19  20
HETATM   20  O5  UNL     1      21.303  29.361  26.560  1.00  0.00    -0.398 OA
ATOM     21  H5  UNL     1      21.934  28.788  26.142  1.00  0.00     0.209 HD
ENDBRANCH  19  20
ENDBRANCH  15  19
BRANCH  16  22
HETATM   22  O6  UNL     1      19.062  29.829  24.477  1.00  0.00    -0.390 OA
ATOM     23  H6  UNL     1      18.966  29.033  24.987  1.00  0.00     0.210 HD
ENDBRANCH  16  22
BRANCH  17  24
HETATM   24  O7  UNL     1      20.374  27.564  24.208  1.00  0.00    -0.390 OA
ATOM     25  H7  UNL     1      20.927  26.816  24.012  1.00  0.00     0.210 HD
ENDBRANCH  17  24
BRANCH  18  26
HETATM   26  O8  UNL     1      22.232  27.136  22.492  1.00  0.00    -0.388 OA
ATOM     27  H8  UNL     1      22.019  26.729  23.324  1.00  0.00     0.210 HD
ENDBRANCH  18  26
ENDBRANCH  12  13
ENDBRANCH   2  12
BRANCH   1  28
HETATM   28  C14 UNL     1      26.366  31.376  21.543  1.00  0.00     0.058 C 
BRANCH  28  29
HETATM   29  C13 UNL     1      26.979  30.794  20.638  1.00  0.00    -0.128 C 
BRANCH  29  30
HETATM   30  C12 UNL     1      27.672  30.141  19.610  1.00  0.00     0.055 C 
HETATM   31  C11 UNL     1      29.004  30.394  19.435  1.00  0.00     0.008 C 
BRANCH  31  32
HETATM   32  C10 UNL     1      29.706  29.720  18.377  1.00  0.00    -0.003 C 
HETATM   33  C9  UNL     1      30.733  30.219  17.762  1.00  0.00    -0.026 C 
BRANCH  33  34
HETATM   34  C8  UNL     1      31.337  31.517  18.034  1.00  0.00     0.034 C 
BRANCH  34  35
HETATM   35  C7  UNL     1      32.274  31.503  19.190  1.00  0.00     0.082 C 
BRANCH  35  36
HETATM   36  C6  UNL     1      33.555  30.848  18.860  1.00  0.00     0.127 C 
HETATM   37  O1  UNL     1      34.160  31.125  17.865  1.00  0.00    -0.298 OA
BRANCH  36  38
HETATM   38  C5  UNL     1      34.044  29.833  19.828  1.00  0.00     0.078 C 
BRANCH  38  39
HETATM   39  C4  UNL     1      32.989  29.214  20.690  1.00  0.00     0.007 C 
BRANCH  39  40
HETATM   40  C3  UNL     1      33.576  28.350  21.757  1.00  0.00     0.000 C 
BRANCH  40  41
HETATM   41  C2  UNL     1      33.906  26.960  21.316  1.00  0.00    -0.005 C 
HETATM   42  C1  UNL     1      35.237  26.450  21.751  1.00  0.00     0.005 C 
ENDBRANCH  40  41
ENDBRANCH  39  40
ENDBRANCH  38  39
ENDBRANCH  36  38
ENDBRANCH  35  36
ENDBRANCH  34  35
ENDBRANCH  33  34
ENDBRANCH  31  32
ENDBRANCH  29  30
ENDBRANCH  28  29
ENDBRANCH   1  28
TORSDOF 21
ENDMDL
MODEL 3
REMARK VINA RESULT: -7.282733426      4.862     10.984
REMARK  21 active torsions:
REMARK  status: ('A' for Active; 'I' for Inactive)
REMARK    1  A    between atoms: C2_2  and  C3_3 
REMARK    2  A    between atoms: C3_3  and  C4_4 
REMARK    3  A    between atoms: C4_4  and  C5_5 
REMARK    4  A    between atoms: C5_5  and  C6_6 
REMARK    5  A    between atoms: C6_6  and  C7_8 
REMARK    6  A    between atoms: C7_8  and  C8_9 
REMARK    7  A    between atoms: C8_9  and  C9_10 
REMARK    8  A    between atoms: C10_11  and  C11_12 
REMARK    9  A    between atoms: C12_13  and  C13_14 
REMARK   10  A    between atoms: C13_14  and  C14_15 
REMARK   11  A    between atoms: C14_15  and  C15_16 
REMARK   12  A    between atoms: C16_17  and  C17_18 
REMARK   13  A    between atoms: C16_17  and  O3_27 
REMARK   14  A    between atoms: C17_18  and  C18_19 
REMARK   15  A    between atoms: C22_24  and  O2_25 
REMARK   16  A    between atoms: O3_27  and  C23_28 
REMARK   17  A    between atoms: C24_30  and  C25_31 
REMARK   18  A    between atoms: C25_31  and  O5_32 
REMARK   19  A    between atoms: C26_34  and  O6_35 
REMARK   20  A    between atoms: C27_37  and  O7_38 
REMARK   21  A    between atoms: C28_40  and  O8_41 
ROOT
HETATM    1  C15 UNL     1      31.568  29.805  19.873  1.00  0.00     0.040 C 
HETATM    2  C16 UNL     1      32.744  30.155  19.484  1.00  0.00     0.051 C 
ENDROOT
BRANCH   2   3
HETATM    3  C17 UNL     1      33.039  31.186  18.492  1.00  0.00     0.073 C 
BRANCH   3   4
HETATM    4  C18 UNL     1      32.944  30.518  17.129  1.00  0.00     0.050 C 
HETATM    5  C19 UNL     1      32.236  31.311  16.108  1.00  0.00     0.279 C 
HETATM    6  N1  UNL     1      32.989  31.264  14.883  1.00  0.00     0.087 N 
HETATM    7  C20 UNL     1      33.607  32.551  14.583  1.00  0.00     0.310 C 
HETATM    8  C21 UNL     1      34.009  30.245  15.065  1.00  0.00     0.303 C 
HETATM    9  C22 UNL     1      34.304  30.244  16.547  1.00  0.00     0.152 C 
BRANCH   9  10
HETATM   10  O2  UNL     1      35.209  31.273  16.810  1.00  0.00    -0.393 OA
ATOM     11  H2  UNL     1      36.108  31.015  16.640  1.00  0.00     0.210 HD
ENDBRANCH   9  10
ENDBRANCH   3   4
ENDBRANCH   2   3
BRANCH   2  12
HETATM   12  O3  UNL     1      33.838  29.507  20.047  1.00  0.00    -0.322 OA
BRANCH  12  13
HETATM   13  C23 UNL     1      34.010  29.310  21.428  1.00  0.00     0.297 C 
HETATM   14  O4  UNL     1      33.654  27.999  21.756  1.00  0.00    -0.348 OA
HETATM   15  C24 UNL     1      34.427  27.076  21.046  1.00  0.00     0.179 C 
HETATM   16  C26 UNL     1      35.873  27.410  21.028  1.00  0.00     0.180 C 
HETATM   17  C27 UNL     1      36.290  28.479  22.017  1.00  0.00     0.183 C 
HETATM   18  C28 UNL     1      35.397  29.669  21.926  1.00  0.00     0.205 C 
BRANCH  15  19
HETATM   19  C25 UNL     1      34.108  25.708  21.636  1.00  0.00     0.198 C 
BRANCH  19  20
HETATM   20  O5  UNL     1      34.708  25.511  22.855  1.00  0.00    -0.398 OA
ATOM     21  H5  UNL     1      35.190  24.694  22.892  1.00  0.00     0.209 HD
ENDBRANCH  19  20
ENDBRANCH  15  19
BRANCH  16  22
HETATM   22  O6  UNL     1      36.713  26.318  21.231  1.00  0.00    -0.390 OA
ATOM     23  H6  UNL     1      36.616  25.626  20.587  1.00  0.00     0.210 HD
ENDBRANCH  16  22
BRANCH  17  24
HETATM   24  O7  UNL     1      36.381  27.920  23.291  1.00  0.00    -0.390 OA
ATOM     25  H7  UNL     1      37.150  28.264  23.732  1.00  0.00     0.210 HD
ENDBRANCH  17  24
BRANCH  18  26
HETATM   26  O8  UNL     1      35.366  30.272  23.177  1.00  0.00    -0.388 OA
ATOM     27  H8  UNL     1      34.997  29.703  23.842  1.00  0.00     0.210 HD
ENDBRANCH  18  26
ENDBRANCH  12  13
ENDBRANCH   2  12
BRANCH   1  28
HETATM   28  C14 UNL     1      30.276  30.411  19.367  1.00  0.00     0.058 C 
BRANCH  28  29
HETATM   29  C13 UNL     1      29.639  29.865  18.456  1.00  0.00    -0.128 C 
BRANCH  29  30
HETATM   30  C12 UNL     1      28.914  29.250  17.426  1.00  0.00     0.055 C 
HETATM   31  C11 UNL     1      29.157  27.938  17.128  1.00  0.00     0.008 C 
BRANCH  31  32
HETATM   32  C10 UNL     1      28.409  27.317  16.069  1.00  0.00    -0.003 C 
HETATM   33  C9  UNL     1      27.677  26.258  16.229  1.00  0.00    -0.026 C 
BRANCH  33  34
HETATM   34  C8  UNL     1      27.494  25.534  17.481  1.00  0.00     0.034 C 
BRANCH  34  35
HETATM   35  C7  UNL     1      26.073  25.208  17.772  1.00  0.00     0.082 C 
BRANCH  35  36
HETATM   36  C6  UNL     1      25.692  25.562  19.153  1.00  0.00     0.127 C 
HETATM   37  O1  UNL     1      25.364  24.726  19.945  1.00  0.00    -0.298 OA
BRANCH  36  38
HETATM   38  C5  UNL     1      25.740  27.006  19.499  1.00  0.00     0.078 C 
BRANCH  38  39
HETATM   39  C4  UNL     1      25.177  27.928  18.465  1.00  0.00     0.007 C 
BRANCH  39  40
HETATM   40  C3  UNL     1      25.521  29.355  18.742  1.00  0.00     0.000 C 
BRANCH  40  41
HETATM   41  C2  UNL     1      26.128  29.595  20.087  1.00  0.00    -0.005 C 
HETATM   42  C1  UNL     1      26.660  30.968  20.313  1.00  0.00     0.005 C 
ENDBRANCH  40  41
ENDBRANCH  39  40
ENDBRANCH  38  39
ENDBRANCH  36  38
ENDBRANCH  35  36
ENDBRANCH  34  35
ENDBRANCH  33  34
ENDBRANCH  31  32
ENDBRANCH  29  30
ENDBRANCH  28  29
ENDBRANCH   1  28
TORSDOF 21
ENDMDL
MODEL 4
REMARK VINA RESULT: -7.267670668      8.388     11.628
REMARK  21 active torsions:
REMARK  status: ('A' for Active; 'I' for Inactive)
REMARK    1  A    between atoms: C2_2  and  C3_3 
REMARK    2  A    between atoms: C3_3  and  C4_4 
REMARK    3  A    between atoms: C4_4  and  C5_5 
REMARK    4  A    between atoms: C5_5  and  C6_6 
REMARK    5  A    between atoms: C6_6  and  C7_8 
REMARK    6  A    between atoms: C7_8  and  C8_9 
REMARK    7  A    between atoms: C8_9  and  C9_10 
REMARK    8  A    between atoms: C10_11  and  C11_12 
REMARK    9  A    between atoms: C12_13  and  C13_14 
REMARK   10  A    between atoms: C13_14  and  C14_15 
REMARK   11  A    between atoms: C14_15  and  C15_16 
REMARK   12  A    between atoms: C16_17  and  C17_18 
REMARK   13  A    between atoms: C16_17  and  O3_27 
REMARK   14  A    between atoms: C17_18  and  C18_19 
REMARK   15  A    between atoms: C22_24  and  O2_25 
REMARK   16  A    between atoms: O3_27  and  C23_28 
REMARK   17  A    between atoms: C24_30  and  C25_31 
REMARK   18  A    between atoms: C25_31  and  O5_32 
REMARK   19  A    between atoms: C26_34  and  O6_35 
REMARK   20  A    between atoms: C27_37  and  O7_38 
REMARK   21  A    between atoms: C28_40  and  O8_41 
ROOT
HETATM    1  C15 UNL     1      31.845  30.704  19.573  1.00  0.00     0.040 C 
HETATM    2  C16 UNL     1      33.029  30.207  19.668  1.00  0.00     0.051 C 
ENDROOT
BRANCH   2   3
HETATM    3  C17 UNL     1      34.250  30.821  19.151  1.00  0.00     0.073 C 
BRANCH   3   4
HETATM    4  C18 UNL     1      34.691  29.981  17.963  1.00  0.00     0.050 C 
HETATM    5  C19 UNL     1      34.315  30.534  16.650  1.00  0.00     0.279 C 
HETATM    6  N1  UNL     1      35.446  30.438  15.767  1.00  0.00     0.087 N 
HETATM    7  C20 UNL     1      36.016  31.750  15.479  1.00  0.00     0.310 C 
HETATM    8  C21 UNL     1      36.424  29.600  16.440  1.00  0.00     0.303 C 
HETATM    9  C22 UNL     1      36.187  29.826  17.915  1.00  0.00     0.152 C 
BRANCH   9  10
HETATM   10  O2  UNL     1      36.852  30.995  18.288  1.00  0.00    -0.393 OA
ATOM     11  H2  UNL     1      37.562  30.827  18.896  1.00  0.00     0.210 HD
ENDBRANCH   9  10
ENDBRANCH   3   4
ENDBRANCH   2   3
BRANCH   2  12
HETATM   12  O3  UNL     1      33.176  28.986  20.314  1.00  0.00    -0.322 OA
BRANCH  12  13
HETATM   13  C23 UNL     1      33.527  28.849  21.668  1.00  0.00     0.297 C 
HETATM   14  O4  UNL     1      33.464  27.500  22.028  1.00  0.00    -0.348 OA
HETATM   15  C24 UNL     1      34.319  26.729  21.237  1.00  0.00     0.179 C 
HETATM   16  C26 UNL     1      35.665  27.330  21.066  1.00  0.00     0.180 C 
HETATM   17  C27 UNL     1      35.973  28.476  22.009  1.00  0.00     0.183 C 
HETATM   18  C28 UNL     1      34.864  29.473  22.017  1.00  0.00     0.205 C 
BRANCH  15  19
HETATM   19  C25 UNL     1      34.331  25.336  21.853  1.00  0.00     0.198 C 
BRANCH  19  20
HETATM   20  O5  UNL     1      35.069  25.280  23.009  1.00  0.00    -0.398 OA
ATOM     21  H5  UNL     1      34.638  24.779  23.690  1.00  0.00     0.209 HD
ENDBRANCH  19  20
ENDBRANCH  15  19
BRANCH  16  22
HETATM   22  O6  UNL     1      36.715  26.422  21.175  1.00  0.00    -0.390 OA
ATOM     23  H6  UNL     1      36.929  25.974  20.365  1.00  0.00     0.210 HD
ENDBRANCH  16  22
BRANCH  17  24
HETATM   24  O7  UNL     1      36.302  27.967  23.264  1.00  0.00    -0.390 OA
ATOM     25  H7  UNL     1      36.127  28.624  23.927  1.00  0.00     0.210 HD
ENDBRANCH  17  24
BRANCH  18  26
HETATM   26  O8  UNL     1      34.851  30.081  23.266  1.00  0.00    -0.388 OA
ATOM     27  H8  UNL     1      34.924  31.026  23.206  1.00  0.00     0.210 HD
ENDBRANCH  18  26
ENDBRANCH  12  13
ENDBRANCH   2  12
BRANCH   1  28
HETATM   28  C14 UNL     1      31.511  32.023  18.909  1.00  0.00     0.058 C 
BRANCH  28  29
HETATM   29  C13 UNL     1      31.303  32.076  17.689  1.00  0.00    -0.128 C 
BRANCH  29  30
HETATM   30  C12 UNL     1      31.063  32.132  16.309  1.00  0.00     0.055 C 
HETATM   31  C11 UNL     1      31.793  32.991  15.537  1.00  0.00     0.008 C 
BRANCH  31  32
HETATM   32  C10 UNL     1      31.538  33.042  14.124  1.00  0.00    -0.003 C 
HETATM   33  C9  UNL     1      32.364  33.547  13.260  1.00  0.00    -0.026 C 
BRANCH  33  34
HETATM   34  C8  UNL     1      33.661  34.135  13.569  1.00  0.00     0.034 C 
BRANCH  34  35
HETATM   35  C7  UNL     1      33.935  35.391  12.820  1.00  0.00     0.082 C 
BRANCH  35  36
HETATM   36  C6  UNL     1      33.793  36.589  13.670  1.00  0.00     0.127 C 
HETATM   37  O1  UNL     1      34.656  36.921  14.429  1.00  0.00    -0.298 OA
BRANCH  36  38
HETATM   38  C5  UNL     1      32.525  37.350  13.529  1.00  0.00     0.078 C 
BRANCH  38  39
HETATM   39  C4  UNL     1      31.749  37.536  14.794  1.00  0.00     0.007 C 
BRANCH  39  40
HETATM   40  C3  UNL     1      30.673  36.511  14.946  1.00  0.00     0.000 C 
BRANCH  40  41
HETATM   41  C2  UNL     1      29.854  36.289  13.716  1.00  0.00    -0.005 C 
HETATM   42  C1  UNL     1      28.654  35.424  13.894  1.00  0.00     0.005 C 
ENDBRANCH  40  41
ENDBRANCH  39  40
ENDBRANCH  38  39
ENDBRANCH  36  38
ENDBRANCH  35  36
ENDBRANCH  34  35
ENDBRANCH  33  34
ENDBRANCH  31  32
ENDBRANCH  29  30
ENDBRANCH  28  29
ENDBRANCH   1  28
TORSDOF 21
ENDMDL
MODEL 5
REMARK VINA RESULT: -7.047410580      5.992     11.046
REMARK  21 active torsions:
REMARK  status: ('A' for Active; 'I' for Inactive)
REMARK    1  A    between atoms: C2_2  and  C3_3 
REMARK    2  A    between atoms: C3_3  and  C4_4 
REMARK    3  A    between atoms: C4_4  and  C5_5 
REMARK    4  A    between atoms: C5_5  and  C6_6 
REMARK    5  A    between atoms: C6_6  and  C7_8 
REMARK    6  A    between atoms: C7_8  and  C8_9 
REMARK    7  A    between atoms: C8_9  and  C9_10 
REMARK    8  A    between atoms: C10_11  and  C11_12 
REMARK    9  A    between atoms: C12_13  and  C13_14 
REMARK   10  A    between atoms: C13_14  and  C14_15 
REMARK   11  A    between atoms: C14_15  and  C15_16 
REMARK   12  A    between atoms: C16_17  and  C17_18 
REMARK   13  A    between atoms: C16_17  and  O3_27 
REMARK   14  A    between atoms: C17_18  and  C18_19 
REMARK   15  A    between atoms: C22_24  and  O2_25 
REMARK   16  A    between atoms: O3_27  and  C23_28 
REMARK   17  A    between atoms: C24_30  and  C25_31 
REMARK   18  A    between atoms: C25_31  and  O5_32 
REMARK   19  A    between atoms: C26_34  and  O6_35 
REMARK   20  A    between atoms: C27_37  and  O7_38 
REMARK   21  A    between atoms: C28_40  and  O8_41 
ROOT
HETATM    1  C15 UNL     1      31.538  29.840  19.871  1.00  0.00     0.040 C 
HETATM    2  C16 UNL     1      32.725  30.147  19.477  1.00  0.00     0.051 C 
ENDROOT
BRANCH   2   3
HETATM    3  C17 UNL     1      33.052  31.168  18.486  1.00  0.00     0.073 C 
BRANCH   3   4
HETATM    4  C18 UNL     1      32.948  30.502  17.123  1.00  0.00     0.050 C 
HETATM    5  C19 UNL     1      32.197  31.277  16.119  1.00  0.00     0.279 C 
HETATM    6  N1  UNL     1      32.925  31.255  14.879  1.00  0.00     0.087 N 
HETATM    7  C20 UNL     1      33.499  32.560  14.570  1.00  0.00     0.310 C 
HETATM    8  C21 UNL     1      33.977  30.265  15.037  1.00  0.00     0.303 C 
HETATM    9  C22 UNL     1      34.303  30.269  16.512  1.00  0.00     0.152 C 
BRANCH   9  10
HETATM   10  O2  UNL     1      35.184  31.323  16.759  1.00  0.00    -0.393 OA
ATOM     11  H2  UNL     1      35.800  31.452  16.048  1.00  0.00     0.210 HD
ENDBRANCH   9  10
ENDBRANCH   3   4
ENDBRANCH   2   3
BRANCH   2  12
HETATM   12  O3  UNL     1      33.796  29.458  20.034  1.00  0.00    -0.322 OA
BRANCH  12  13
HETATM   13  C23 UNL     1      33.987  29.284  21.416  1.00  0.00     0.297 C 
HETATM   14  O4  UNL     1      33.646  27.975  21.768  1.00  0.00    -0.348 OA
HETATM   15  C24 UNL     1      34.417  27.048  21.063  1.00  0.00     0.179 C 
HETATM   16  C26 UNL     1      35.860  27.393  21.022  1.00  0.00     0.180 C 
HETATM   17  C27 UNL     1      36.281  28.480  21.989  1.00  0.00     0.183 C 
HETATM   18  C28 UNL     1      35.376  29.661  21.891  1.00  0.00     0.205 C 
BRANCH  15  19
HETATM   19  C25 UNL     1      34.117  25.687  21.676  1.00  0.00     0.198 C 
BRANCH  19  20
HETATM   20  O5  UNL     1      34.738  25.510  22.888  1.00  0.00    -0.398 OA
ATOM     21  H5  UNL     1      34.515  24.681  23.292  1.00  0.00     0.209 HD
ENDBRANCH  19  20
ENDBRANCH  15  19
BRANCH  16  22
HETATM   22  O6  UNL     1      36.713  26.311  21.231  1.00  0.00    -0.390 OA
ATOM     23  H6  UNL     1      37.634  26.515  21.122  1.00  0.00     0.210 HD
ENDBRANCH  16  22
BRANCH  17  24
HETATM   24  O7  UNL     1      36.392  27.942  23.271  1.00  0.00    -0.390 OA
ATOM     25  H7  UNL     1      35.604  28.137  23.764  1.00  0.00     0.210 HD
ENDBRANCH  17  24
BRANCH  18  26
HETATM   26  O8  UNL     1      35.355  30.284  23.133  1.00  0.00    -0.388 OA
ATOM     27  H8  UNL     1      36.204  30.636  23.372  1.00  0.00     0.210 HD
ENDBRANCH  18  26
ENDBRANCH  12  13
ENDBRANCH   2  12
BRANCH   1  28
HETATM   28  C14 UNL     1      30.266  30.495  19.372  1.00  0.00     0.058 C 
BRANCH  28  29
HETATM   29  C13 UNL     1      29.574  29.943  18.506  1.00  0.00    -0.128 C 
BRANCH  29  30
HETATM   30  C12 UNL     1      28.787  29.316  17.530  1.00  0.00     0.055 C 
HETATM   31  C11 UNL     1      29.038  28.013  17.204  1.00  0.00     0.008 C 
BRANCH  31  32
HETATM   32  C10 UNL     1      28.226  27.379  16.202  1.00  0.00    -0.003 C 
HETATM   33  C9  UNL     1      27.252  26.567  16.471  1.00  0.00    -0.026 C 
BRANCH  33  34
HETATM   34  C8  UNL     1      26.824  26.168  17.806  1.00  0.00     0.034 C 
BRANCH  34  35
HETATM   35  C7  UNL     1      25.434  25.638  17.847  1.00  0.00     0.082 C 
BRANCH  35  36
HETATM   36  C6  UNL     1      25.311  24.470  18.740  1.00  0.00     0.127 C 
HETATM   37  O1  UNL     1      25.376  24.583  19.930  1.00  0.00    -0.298 OA
BRANCH  36  38
HETATM   38  C5  UNL     1      25.103  23.155  18.079  1.00  0.00     0.078 C 
BRANCH  38  39
HETATM   39  C4  UNL     1      26.315  22.281  18.004  1.00  0.00     0.007 C 
BRANCH  39  40
HETATM   40  C3  UNL     1      27.135  22.567  16.788  1.00  0.00     0.000 C 
BRANCH  40  41
HETATM   41  C2  UNL     1      28.605  22.367  16.973  1.00  0.00    -0.005 C 
HETATM   42  C1  UNL     1      29.430  23.606  16.920  1.00  0.00     0.005 C 
ENDBRANCH  40  41
ENDBRANCH  39  40
ENDBRANCH  38  39
ENDBRANCH  36  38
ENDBRANCH  35  36
ENDBRANCH  34  35
ENDBRANCH  33  34
ENDBRANCH  31  32
ENDBRANCH  29  30
ENDBRANCH  28  29
ENDBRANCH   1  28
TORSDOF 21
ENDMDL
