MODEL 1
REMARK VINA RESULT: -6.231988310      0.000      0.000
REMARK  18 active torsions:
REMARK  status: ('A' for Active; 'I' for Inactive)
REMARK    1  A    between atoms: C2_2  and  C3_3 
REMARK    2  A    between atoms: C3_3  and  C4_4 
REMARK    3  A    between atoms: C4_4  and  C5_5 
REMARK    4  A    between atoms: C5_5  and  C6_6 
REMARK    5  A    between atoms: C6_6  and  N1_7 
REMARK    6  A    between atoms: N1_7  and  C7_8 
REMARK    7  A    between atoms: N1_7  and  C24_36 
REMARK    8  A    between atoms: C7_8  and  C8_9 
REMARK    9  A    between atoms: C10_11  and  O1_12 
REMARK   10  A    between atoms: O1_12  and  C11_13 
REMARK   11  A    between atoms: C14_17  and  O3_18 
REMARK   12  A    between atoms: C15_20  and  O4_21 
REMARK   13  A    between atoms: C16_23  and  O5_24 
REMARK   14  A    between atoms: C17_26  and  O6_27 
REMARK   15  A    between atoms: O6_27  and  C18_28 
REMARK   16  A    between atoms: C18_28  and  C19_29 
REMARK   17  A    between atoms: C22_32  and  C23_33 
REMARK   18  A    between atoms: C23_33  and  O7_34 
ROOT
HETATM    1  C8  UNL     1      31.708  30.178  18.862  1.00  0.00     0.022 C 
HETATM    2  C9  UNL     1      30.510  31.133  19.117  1.00  0.00     0.041 C 
HETATM    3  C10 UNL     1      29.270  30.531  18.455  1.00  0.00     0.154 C 
HETATM    4  C17 UNL     1      29.678  29.811  17.186  1.00  0.00     0.151 C 
HETATM    5  C21 UNL     1      30.828  30.557  16.559  1.00  0.00     0.041 C 
HETATM    6  C22 UNL     1      32.067  30.363  17.447  1.00  0.00     0.017 C 
ENDROOT
BRANCH   1   7
HETATM    7  C7  UNL     1      32.687  30.451  19.911  1.00  0.00     0.280 C 
BRANCH   7   8
HETATM    8  N1  UNL     1      33.783  29.471  20.069  1.00  0.00     0.112 N 
BRANCH   8   9
HETATM    9  C6  UNL     1      34.991  30.221  19.880  1.00  0.00     0.275 C 
BRANCH   9  10
HETATM   10  C5  UNL     1      36.099  29.659  19.101  1.00  0.00     0.030 C 
BRANCH  10  11
HETATM   11  C4  UNL     1      36.343  30.363  17.779  1.00  0.00     0.002 C 
BRANCH  11  12
HETATM   12  C3  UNL     1      36.172  29.396  16.645  1.00  0.00    -0.000 C 
BRANCH  12  13
HETATM   13  C2  UNL     1      35.701  30.052  15.381  1.00  0.00    -0.005 C 
HETATM   14  C1  UNL     1      34.650  29.195  14.683  1.00  0.00     0.005 C 
ENDBRANCH  12  13
ENDBRANCH  11  12
ENDBRANCH  10  11
ENDBRANCH   9  10
ENDBRANCH   8   9
BRANCH   8  15
HETATM   15  C24 UNL     1      33.661  28.769  21.281  1.00  0.00     0.333 C 
HETATM   16  C25 UNL     1      34.130  27.369  21.466  1.00  0.00     0.160 C 
HETATM   17  C26 UNL     1      35.010  27.777  22.603  1.00  0.00     0.223 C 
HETATM   18  O8  UNL     1      35.620  27.126  23.463  1.00  0.00    -0.273 OA
HETATM   19  N2  UNL     1      34.777  29.119  22.189  1.00  0.00    -0.331 N 
ATOM     20  H2  UNL     1      35.220  30.005  22.431  1.00  0.00     0.164 HD
ENDBRANCH   8  15
ENDBRANCH   7   8
ENDBRANCH   1   7
BRANCH   6  21
HETATM   21  C23 UNL     1      32.960  31.520  17.105  1.00  0.00     0.169 C 
BRANCH  21  22
HETATM   22  O7  UNL     1      32.794  32.094  15.884  1.00  0.00    -0.400 OA
ATOM     23  H7  UNL     1      32.095  32.732  15.795  1.00  0.00     0.209 HD
ENDBRANCH  21  22
ENDBRANCH   6  21
BRANCH   3  24
HETATM   24  O1  UNL     1      28.583  29.761  19.353  1.00  0.00    -0.351 OA
BRANCH  24  25
HETATM   25  C11 UNL     1      27.309  30.211  19.683  1.00  0.00     0.292 C 
HETATM   26  O2  UNL     1      26.922  29.813  20.949  1.00  0.00    -0.351 OA
HETATM   27  C12 UNL     1      25.646  30.047  21.323  1.00  0.00     0.152 C 
HETATM   28  C13 UNL     1      25.643  31.378  22.102  1.00  0.00     0.042 C 
HETATM   29  C14 UNL     1      24.598  30.162  20.287  1.00  0.00     0.178 C 
HETATM   30  C15 UNL     1      25.035  30.564  18.930  1.00  0.00     0.183 C 
HETATM   31  C16 UNL     1      26.328  29.833  18.616  1.00  0.00     0.204 C 
BRANCH  29  32
HETATM   32  O3  UNL     1      23.992  28.888  20.160  1.00  0.00    -0.390 OA
ATOM     33  H3  UNL     1      23.860  28.730  19.232  1.00  0.00     0.210 HD
ENDBRANCH  29  32
BRANCH  30  34
HETATM   34  O4  UNL     1      25.291  31.928  18.912  1.00  0.00    -0.390 OA
ATOM     35  H4  UNL     1      25.563  32.188  18.040  1.00  0.00     0.210 HD
ENDBRANCH  30  34
BRANCH  31  36
HETATM   36  O5  UNL     1      26.037  28.475  18.602  1.00  0.00    -0.388 OA
ATOM     37  H5  UNL     1      25.110  28.295  18.510  1.00  0.00     0.210 HD
ENDBRANCH  31  36
ENDBRANCH  24  25
ENDBRANCH   3  24
BRANCH   4  38
HETATM   38  O6  UNL     1      28.619  29.766  16.261  1.00  0.00    -0.383 OA
BRANCH  38  39
HETATM   39  C18 UNL     1      28.709  28.558  15.593  1.00  0.00     0.168 C 
BRANCH  39  40
HETATM   40  C19 UNL     1      28.887  27.412  16.573  1.00  0.00     0.022 C 
HETATM   41  C20 UNL     1      29.498  26.240  15.847  1.00  0.00     0.007 C 
ENDBRANCH  39  40
ENDBRANCH  38  39
ENDBRANCH   4  38
TORSDOF 18
ENDMDL
MODEL 2
REMARK VINA RESULT: -6.101232544      2.663      4.462
REMARK  18 active torsions:
REMARK  status: ('A' for Active; 'I' for Inactive)
REMARK    1  A    between atoms: C2_2  and  C3_3 
REMARK    2  A    between atoms: C3_3  and  C4_4 
REMARK    3  A    between atoms: C4_4  and  C5_5 
REMARK    4  A    between atoms: C5_5  and  C6_6 
REMARK    5  A    between atoms: C6_6  and  N1_7 
REMARK    6  A    between atoms: N1_7  and  C7_8 
REMARK    7  A    between atoms: N1_7  and  C24_36 
REMARK    8  A    between atoms: C7_8  and  C8_9 
REMARK    9  A    between atoms: C10_11  and  O1_12 
REMARK   10  A    between atoms: O1_12  and  C11_13 
REMARK   11  A    between atoms: C14_17  and  O3_18 
REMARK   12  A    between atoms: C15_20  and  O4_21 
REMARK   13  A    between atoms: C16_23  and  O5_24 
REMARK   14  A    between atoms: C17_26  and  O6_27 
REMARK   15  A    between atoms: O6_27  and  C18_28 
REMARK   16  A    between atoms: C18_28  and  C19_29 
REMARK   17  A    between atoms: C22_32  and  C23_33 
REMARK   18  A    between atoms: C23_33  and  O7_34 
ROOT
HETATM    1  C8  UNL     1      29.541  28.836  17.514  1.00  0.00     0.022 C 
HETATM    2  C9  UNL     1      28.381  29.841  17.753  1.00  0.00     0.041 C 
HETATM    3  C10 UNL     1      27.103  29.043  18.007  1.00  0.00     0.154 C 
HETATM    4  C17 UNL     1      27.128  27.776  17.176  1.00  0.00     0.151 C 
HETATM    5  C21 UNL     1      27.826  28.070  15.873  1.00  0.00     0.041 C 
HETATM    6  C22 UNL     1      29.319  28.288  16.166  1.00  0.00     0.017 C 
ENDROOT
BRANCH   1   7
HETATM    7  C7  UNL     1      30.779  29.549  17.823  1.00  0.00     0.280 C 
BRANCH   7   8
HETATM    8  N1  UNL     1      30.648  30.808  18.587  1.00  0.00     0.112 N 
BRANCH   8   9
HETATM    9  C6  UNL     1      31.041  30.479  19.927  1.00  0.00     0.275 C 
BRANCH   9  10
HETATM   10  C5  UNL     1      31.997  29.395  20.174  1.00  0.00     0.030 C 
BRANCH  10  11
HETATM   11  C4  UNL     1      33.442  29.852  20.248  1.00  0.00     0.002 C 
BRANCH  11  12
HETATM   12  C3  UNL     1      34.311  28.725  20.727  1.00  0.00    -0.000 C 
BRANCH  12  13
HETATM   13  C2  UNL     1      33.554  27.695  21.512  1.00  0.00    -0.005 C 
HETATM   14  C1  UNL     1      34.284  26.356  21.496  1.00  0.00     0.005 C 
ENDBRANCH  12  13
ENDBRANCH  11  12
ENDBRANCH  10  11
ENDBRANCH   9  10
ENDBRANCH   8   9
BRANCH   8  15
HETATM   15  C24 UNL     1      31.351  31.853  17.964  1.00  0.00     0.333 C 
HETATM   16  C25 UNL     1      32.554  31.638  17.117  1.00  0.00     0.160 C 
HETATM   17  C26 UNL     1      31.905  32.326  15.959  1.00  0.00     0.223 C 
HETATM   18  O8  UNL     1      32.349  32.748  14.881  1.00  0.00    -0.273 OA
HETATM   19  N2  UNL     1      30.689  32.227  16.693  1.00  0.00    -0.331 N 
ATOM     20  H2  UNL     1      29.712  32.366  16.436  1.00  0.00     0.164 HD
ENDBRANCH   8  15
ENDBRANCH   7   8
ENDBRANCH   1   7
BRANCH   6  21
HETATM   21  C23 UNL     1      29.819  29.090  15.001  1.00  0.00     0.169 C 
BRANCH  21  22
HETATM   22  O7  UNL     1      29.184  30.261  14.734  1.00  0.00    -0.400 OA
ATOM     23  H7  UNL     1      28.644  30.295  13.953  1.00  0.00     0.209 HD
ENDBRANCH  21  22
ENDBRANCH   6  21
BRANCH   3  24
HETATM   24  O1  UNL     1      26.931  28.842  19.349  1.00  0.00    -0.351 OA
BRANCH  24  25
HETATM   25  C11 UNL     1      26.264  29.854  20.031  1.00  0.00     0.292 C 
HETATM   26  O2  UNL     1      26.479  29.800  21.395  1.00  0.00    -0.351 OA
HETATM   27  C12 UNL     1      25.759  30.628  22.183  1.00  0.00     0.152 C 
HETATM   28  C13 UNL     1      26.625  31.878  22.430  1.00  0.00     0.042 C 
HETATM   29  C14 UNL     1      24.443  31.110  21.711  1.00  0.00     0.178 C 
HETATM   30  C15 UNL     1      24.222  31.136  20.247  1.00  0.00     0.183 C 
HETATM   31  C16 UNL     1      24.813  29.868  19.658  1.00  0.00     0.204 C 
BRANCH  29  32
HETATM   32  O3  UNL     1      23.460  30.250  22.258  1.00  0.00    -0.390 OA
ATOM     33  H3  UNL     1      22.794  30.123  21.591  1.00  0.00     0.210 HD
ENDBRANCH  29  32
BRANCH  30  34
HETATM   34  O4  UNL     1      24.888  32.224  19.698  1.00  0.00    -0.390 OA
ATOM     35  H4  UNL     1      25.719  32.344  20.143  1.00  0.00     0.210 HD
ENDBRANCH  30  34
BRANCH  31  36
HETATM   36  O5  UNL     1      24.105  28.800  20.193  1.00  0.00    -0.388 OA
ATOM     37  H5  UNL     1      23.288  29.062  20.598  1.00  0.00     0.210 HD
ENDBRANCH  31  36
ENDBRANCH  24  25
ENDBRANCH   3  24
BRANCH   4  38
HETATM   38  O6  UNL     1      25.825  27.326  16.891  1.00  0.00    -0.383 OA
BRANCH  38  39
HETATM   39  C18 UNL     1      25.806  25.960  17.113  1.00  0.00     0.168 C 
BRANCH  39  40
HETATM   40  C19 UNL     1      25.737  25.657  18.600  1.00  0.00     0.022 C 
HETATM   41  C20 UNL     1      25.393  24.200  18.783  1.00  0.00     0.007 C 
ENDBRANCH  39  40
ENDBRANCH  38  39
ENDBRANCH   4  38
TORSDOF 18
ENDMDL
MODEL 3
REMARK VINA RESULT: -6.098336017      3.160      6.321
REMARK  18 active torsions:
REMARK  status: ('A' for Active; 'I' for Inactive)
REMARK    1  A    between atoms: C2_2  and  C3_3 
REMARK    2  A    between atoms: C3_3  and  C4_4 
REMARK    3  A    between atoms: C4_4  and  C5_5 
REMARK    4  A    between atoms: C5_5  and  C6_6 
REMARK    5  A    between atoms: C6_6  and  N1_7 
REMARK    6  A    between atoms: N1_7  and  C7_8 
REMARK    7  A    between atoms: N1_7  and  C24_36 
REMARK    8  A    between atoms: C7_8  and  C8_9 
REMARK    9  A    between atoms: C10_11  and  O1_12 
REMARK   10  A    between atoms: O1_12  and  C11_13 
REMARK   11  A    between atoms: C14_17  and  O3_18 
REMARK   12  A    between atoms: C15_20  and  O4_21 
REMARK   13  A    between atoms: C16_23  and  O5_24 
REMARK   14  A    between atoms: C17_26  and  O6_27 
REMARK   15  A    between atoms: O6_27  and  C18_28 
REMARK   16  A    between atoms: C18_28  and  C19_29 
REMARK   17  A    between atoms: C22_32  and  C23_33 
REMARK   18  A    between atoms: C23_33  and  O7_34 
ROOT
HETATM    1  C8  UNL     1      34.020  30.374  17.027  1.00  0.00     0.022 C 
HETATM    2  C9  UNL     1      33.684  31.474  15.984  1.00  0.00     0.041 C 
HETATM    3  C10 UNL     1      33.314  30.788  14.669  1.00  0.00     0.154 C 
HETATM    4  C17 UNL     1      34.138  29.527  14.511  1.00  0.00     0.151 C 
HETATM    5  C21 UNL     1      35.499  29.763  15.114  1.00  0.00     0.041 C 
HETATM    6  C22 UNL     1      35.340  29.850  16.639  1.00  0.00     0.017 C 
ENDROOT
BRANCH   1   7
HETATM    7  C7  UNL     1      33.826  30.976  18.344  1.00  0.00     0.280 C 
BRANCH   7   8
HETATM    8  N1  UNL     1      33.573  30.050  19.468  1.00  0.00     0.112 N 
BRANCH   8   9
HETATM    9  C6  UNL     1      34.711  30.183  20.331  1.00  0.00     0.275 C 
BRANCH   9  10
HETATM   10  C5  UNL     1      35.528  29.013  20.669  1.00  0.00     0.030 C 
BRANCH  10  11
HETATM   11  C4  UNL     1      35.936  28.947  22.129  1.00  0.00     0.002 C 
BRANCH  11  12
HETATM   12  C3  UNL     1      35.493  27.643  22.724  1.00  0.00    -0.000 C 
BRANCH  12  13
HETATM   13  C2  UNL     1      35.405  26.537  21.714  1.00  0.00    -0.005 C 
HETATM   14  C1  UNL     1      33.993  25.965  21.657  1.00  0.00     0.005 C 
ENDBRANCH  12  13
ENDBRANCH  11  12
ENDBRANCH  10  11
ENDBRANCH   9  10
ENDBRANCH   8   9
BRANCH   8  15
HETATM   15  C24 UNL     1      32.314  30.289  20.045  1.00  0.00     0.333 C 
HETATM   16  C25 UNL     1      31.332  31.261  19.494  1.00  0.00     0.160 C 
HETATM   17  C26 UNL     1      30.292  30.194  19.373  1.00  0.00     0.223 C 
HETATM   18  O8  UNL     1      29.071  30.237  19.162  1.00  0.00    -0.273 OA
HETATM   19  N2  UNL     1      31.344  29.262  19.601  1.00  0.00    -0.331 N 
ATOM     20  H2  UNL     1      31.407  28.250  19.496  1.00  0.00     0.164 HD
ENDBRANCH   8  15
ENDBRANCH   7   8
ENDBRANCH   1   7
BRANCH   6  21
HETATM   21  C23 UNL     1      36.549  30.609  17.102  1.00  0.00     0.169 C 
BRANCH  21  22
HETATM   22  O7  UNL     1      37.415  29.958  17.923  1.00  0.00    -0.400 OA
ATOM     23  H7  UNL     1      38.314  29.874  17.628  1.00  0.00     0.209 HD
ENDBRANCH  21  22
ENDBRANCH   6  21
BRANCH   3  24
HETATM   24  O1  UNL     1      31.961  30.599  14.600  1.00  0.00    -0.351 OA
BRANCH  24  25
HETATM   25  C11 UNL     1      31.235  31.635  14.023  1.00  0.00     0.292 C 
HETATM   26  O2  UNL     1      32.042  32.679  13.612  1.00  0.00    -0.351 OA
HETATM   27  C12 UNL     1      31.444  33.811  13.184  1.00  0.00     0.152 C 
HETATM   28  C13 UNL     1      31.350  33.717  11.649  1.00  0.00     0.042 C 
HETATM   29  C14 UNL     1      30.088  34.141  13.672  1.00  0.00     0.178 C 
HETATM   30  C15 UNL     1      29.246  33.012  14.132  1.00  0.00     0.183 C 
HETATM   31  C16 UNL     1      30.124  32.066  14.932  1.00  0.00     0.204 C 
BRANCH  29  32
HETATM   32  O3  UNL     1      30.239  35.015  14.776  1.00  0.00    -0.390 OA
ATOM     33  H3  UNL     1      29.966  34.539  15.552  1.00  0.00     0.210 HD
ENDBRANCH  29  32
BRANCH  30  34
HETATM   34  O4  UNL     1      28.752  32.325  13.032  1.00  0.00    -0.390 OA
ATOM     35  H4  UNL     1      28.318  32.934  12.447  1.00  0.00     0.210 HD
ENDBRANCH  30  34
BRANCH  31  36
HETATM   36  O5  UNL     1      30.573  32.765  16.044  1.00  0.00    -0.388 OA
ATOM     37  H5  UNL     1      31.030  32.214  16.669  1.00  0.00     0.210 HD
ENDBRANCH  31  36
ENDBRANCH  24  25
ENDBRANCH   3  24
BRANCH   4  38
HETATM   38  O6  UNL     1      34.304  29.191  13.154  1.00  0.00    -0.383 OA
BRANCH  38  39
HETATM   39  C18 UNL     1      34.386  27.812  13.081  1.00  0.00     0.168 C 
BRANCH  39  40
HETATM   40  C19 UNL     1      33.293  27.161  13.909  1.00  0.00     0.022 C 
HETATM   41  C20 UNL     1      33.642  25.710  14.122  1.00  0.00     0.007 C 
ENDBRANCH  39  40
ENDBRANCH  38  39
ENDBRANCH   4  38
TORSDOF 18
ENDMDL
MODEL 4
REMARK VINA RESULT: -6.063024434      3.066      5.358
REMARK  18 active torsions:
REMARK  status: ('A' for Active; 'I' for Inactive)
REMARK    1  A    between atoms: C2_2  and  C3_3 
REMARK    2  A    between atoms: C3_3  and  C4_4 
REMARK    3  A    between atoms: C4_4  and  C5_5 
REMARK    4  A    between atoms: C5_5  and  C6_6 
REMARK    5  A    between atoms: C6_6  and  N1_7 
REMARK    6  A    between atoms: N1_7  and  C7_8 
REMARK    7  A    between atoms: N1_7  and  C24_36 
REMARK    8  A    between atoms: C7_8  and  C8_9 
REMARK    9  A    between atoms: C10_11  and  O1_12 
REMARK   10  A    between atoms: O1_12  and  C11_13 
REMARK   11  A    between atoms: C14_17  and  O3_18 
REMARK   12  A    between atoms: C15_20  and  O4_21 
REMARK   13  A    between atoms: C16_23  and  O5_24 
REMARK   14  A    between atoms: C17_26  and  O6_27 
REMARK   15  A    between atoms: O6_27  and  C18_28 
REMARK   16  A    between atoms: C18_28  and  C19_29 
REMARK   17  A    between atoms: C22_32  and  C23_33 
REMARK   18  A    between atoms: C23_33  and  O7_34 
ROOT
HETATM    1  C8  UNL     1      33.572  30.273  16.383  1.00  0.00     0.022 C 
HETATM    2  C9  UNL     1      32.306  30.716  15.600  1.00  0.00     0.041 C 
HETATM    3  C10 UNL     1      31.907  29.581  14.657  1.00  0.00     0.154 C 
HETATM    4  C17 UNL     1      33.154  28.880  14.159  1.00  0.00     0.151 C 
HETATM    5  C21 UNL     1      34.253  29.900  14.013  1.00  0.00     0.041 C 
HETATM    6  C22 UNL     1      34.682  30.350  15.418  1.00  0.00     0.017 C 
ENDROOT
BRANCH   1   7
HETATM    7  C7  UNL     1      33.605  31.071  17.606  1.00  0.00     0.280 C 
BRANCH   7   8
HETATM    8  N1  UNL     1      33.503  30.334  18.884  1.00  0.00     0.112 N 
BRANCH   8   9
HETATM    9  C6  UNL     1      34.785  30.483  19.509  1.00  0.00     0.275 C 
BRANCH   9  10
HETATM   10  C5  UNL     1      35.068  29.822  20.788  1.00  0.00     0.030 C 
BRANCH  10  11
HETATM   11  C4  UNL     1      35.146  28.310  20.696  1.00  0.00     0.002 C 
BRANCH  11  12
HETATM   12  C3  UNL     1      33.879  27.700  21.221  1.00  0.00    -0.000 C 
BRANCH  12  13
HETATM   13  C2  UNL     1      34.051  26.274  21.656  1.00  0.00    -0.005 C 
HETATM   14  C1  UNL     1      35.428  26.059  22.276  1.00  0.00     0.005 C 
ENDBRANCH  12  13
ENDBRANCH  11  12
ENDBRANCH  10  11
ENDBRANCH   9  10
ENDBRANCH   8   9
BRANCH   8  15
HETATM   15  C24 UNL     1      32.387  30.761  19.625  1.00  0.00     0.333 C 
HETATM   16  C25 UNL     1      31.259  31.530  19.034  1.00  0.00     0.160 C 
HETATM   17  C26 UNL     1      30.276  30.495  19.481  1.00  0.00     0.223 C 
HETATM   18  O8  UNL     1      29.038  30.491  19.543  1.00  0.00    -0.273 OA
HETATM   19  N2  UNL     1      31.401  29.663  19.743  1.00  0.00    -0.331 N 
ATOM     20  H2  UNL     1      31.494  28.667  19.942  1.00  0.00     0.164 HD
ENDBRANCH   8  15
ENDBRANCH   7   8
ENDBRANCH   1   7
BRANCH   6  21
HETATM   21  C23 UNL     1      35.323  31.690  15.206  1.00  0.00     0.169 C 
BRANCH  21  22
HETATM   22  O7  UNL     1      36.462  31.951  15.901  1.00  0.00    -0.400 OA
ATOM     23  H7  UNL     1      37.090  31.243  15.989  1.00  0.00     0.209 HD
ENDBRANCH  21  22
ENDBRANCH   6  21
BRANCH   3  24
HETATM   24  O1  UNL     1      30.994  28.762  15.263  1.00  0.00    -0.351 OA
BRANCH  24  25
HETATM   25  C11 UNL     1      29.678  28.904  14.836  1.00  0.00     0.292 C 
HETATM   26  O2  UNL     1      29.556  29.808  13.799  1.00  0.00    -0.351 OA
HETATM   27  C12 UNL     1      28.312  30.153  13.404  1.00  0.00     0.152 C 
HETATM   28  C13 UNL     1      27.949  29.243  12.214  1.00  0.00     0.042 C 
HETATM   29  C14 UNL     1      27.195  30.056  14.368  1.00  0.00     0.178 C 
HETATM   30  C15 UNL     1      27.355  29.101  15.488  1.00  0.00     0.183 C 
HETATM   31  C16 UNL     1      28.782  29.207  15.997  1.00  0.00     0.204 C 
BRANCH  29  32
HETATM   32  O3  UNL     1      27.025  31.338  14.945  1.00  0.00    -0.390 OA
ATOM     33  H3  UNL     1      26.152  31.366  15.318  1.00  0.00     0.210 HD
ENDBRANCH  29  32
BRANCH  30  34
HETATM   34  O4  UNL     1      27.152  27.808  15.026  1.00  0.00    -0.390 OA
ATOM     35  H4  UNL     1      27.274  27.785  14.084  1.00  0.00     0.210 HD
ENDBRANCH  30  34
BRANCH  31  36
HETATM   36  O5  UNL     1      28.946  30.496  16.488  1.00  0.00    -0.388 OA
ATOM     37  H5  UNL     1      28.822  31.164  15.826  1.00  0.00     0.210 HD
ENDBRANCH  31  36
ENDBRANCH  24  25
ENDBRANCH   3  24
BRANCH   4  38
HETATM   38  O6  UNL     1      32.936  28.278  12.905  1.00  0.00    -0.383 OA
BRANCH  38  39
HETATM   39  C18 UNL     1      32.667  26.940  13.135  1.00  0.00     0.168 C 
BRANCH  39  40
HETATM   40  C19 UNL     1      33.709  26.330  14.055  1.00  0.00     0.022 C 
HETATM   41  C20 UNL     1      33.233  24.969  14.494  1.00  0.00     0.007 C 
ENDBRANCH  39  40
ENDBRANCH  38  39
ENDBRANCH   4  38
TORSDOF 18
ENDMDL
MODEL 5
REMARK VINA RESULT: -6.027376077      2.742      7.061
REMARK  18 active torsions:
REMARK  status: ('A' for Active; 'I' for Inactive)
REMARK    1  A    between atoms: C2_2  and  C3_3 
REMARK    2  A    between atoms: C3_3  and  C4_4 
REMARK    3  A    between atoms: C4_4  and  C5_5 
REMARK    4  A    between atoms: C5_5  and  C6_6 
REMARK    5  A    between atoms: C6_6  and  N1_7 
REMARK    6  A    between atoms: N1_7  and  C7_8 
REMARK    7  A    between atoms: N1_7  and  C24_36 
REMARK    8  A    between atoms: C7_8  and  C8_9 
REMARK    9  A    between atoms: C10_11  and  O1_12 
REMARK   10  A    between atoms: O1_12  and  C11_13 
REMARK   11  A    between atoms: C14_17  and  O3_18 
REMARK   12  A    between atoms: C15_20  and  O4_21 
REMARK   13  A    between atoms: C16_23  and  O5_24 
REMARK   14  A    between atoms: C17_26  and  O6_27 
REMARK   15  A    between atoms: O6_27  and  C18_28 
REMARK   16  A    between atoms: C18_28  and  C19_29 
REMARK   17  A    between atoms: C22_32  and  C23_33 
REMARK   18  A    between atoms: C23_33  and  O7_34 
ROOT
HETATM    1  C8  UNL     1      32.775  30.592  17.237  1.00  0.00     0.022 C 
HETATM    2  C9  UNL     1      33.164  31.030  18.675  1.00  0.00     0.041 C 
HETATM    3  C10 UNL     1      32.156  30.420  19.649  1.00  0.00     0.154 C 
HETATM    4  C17 UNL     1      30.792  30.365  18.992  1.00  0.00     0.151 C 
HETATM    5  C21 UNL     1      30.644  31.566  18.093  1.00  0.00     0.041 C 
HETATM    6  C22 UNL     1      31.584  31.385  16.891  1.00  0.00     0.017 C 
ENDROOT
BRANCH   1   7
HETATM    7  C7  UNL     1      33.988  30.696  16.429  1.00  0.00     0.280 C 
BRANCH   7   8
HETATM    8  N1  UNL     1      34.341  29.520  15.605  1.00  0.00     0.112 N 
BRANCH   8   9
HETATM    9  C6  UNL     1      33.401  29.521  14.522  1.00  0.00     0.275 C 
BRANCH   9  10
HETATM   10  C5  UNL     1      32.481  28.394  14.336  1.00  0.00     0.030 C 
BRANCH  10  11
HETATM   11  C4  UNL     1      33.166  27.097  13.949  1.00  0.00     0.002 C 
BRANCH  11  12
HETATM   12  C3  UNL     1      32.291  25.931  14.307  1.00  0.00    -0.000 C 
BRANCH  12  13
HETATM   13  C2  UNL     1      33.072  24.690  14.627  1.00  0.00    -0.005 C 
HETATM   14  C1  UNL     1      34.534  24.848  14.221  1.00  0.00     0.005 C 
ENDBRANCH  12  13
ENDBRANCH  11  12
ENDBRANCH  10  11
ENDBRANCH   9  10
ENDBRANCH   8   9
BRANCH   8  15
HETATM   15  C24 UNL     1      35.702  29.538  15.257  1.00  0.00     0.333 C 
HETATM   16  C25 UNL     1      36.530  28.309  15.127  1.00  0.00     0.160 C 
HETATM   17  C26 UNL     1      36.888  28.658  13.718  1.00  0.00     0.223 C 
HETATM   18  O8  UNL     1      37.741  28.211  12.937  1.00  0.00    -0.273 OA
HETATM   19  N2  UNL     1      35.853  29.633  13.787  1.00  0.00    -0.331 N 
ATOM     20  H2  UNL     1      35.383  30.195  13.078  1.00  0.00     0.164 HD
ENDBRANCH   8  15
ENDBRANCH   7   8
ENDBRANCH   1   7
BRANCH   6  21
HETATM   21  C23 UNL     1      31.804  32.775  16.371  1.00  0.00     0.169 C 
BRANCH  21  22
HETATM   22  O7  UNL     1      30.793  33.341  15.660  1.00  0.00    -0.400 OA
ATOM     23  H7  UNL     1      31.026  34.016  15.034  1.00  0.00     0.209 HD
ENDBRANCH  21  22
ENDBRANCH   6  21
BRANCH   3  24
HETATM   24  O1  UNL     1      32.616  29.217  20.112  1.00  0.00    -0.351 OA
BRANCH  24  25
HETATM   25  C11 UNL     1      33.926  29.210  20.577  1.00  0.00     0.292 C 
HETATM   26  O2  UNL     1      34.833  28.871  19.591  1.00  0.00    -0.351 OA
HETATM   27  C12 UNL     1      36.118  28.671  19.955  1.00  0.00     0.152 C 
HETATM   28  C13 UNL     1      36.863  30.000  19.720  1.00  0.00     0.042 C 
HETATM   29  C14 UNL     1      36.421  28.256  21.341  1.00  0.00     0.178 C 
HETATM   30  C15 UNL     1      35.425  28.605  22.380  1.00  0.00     0.183 C 
HETATM   31  C16 UNL     1      34.040  28.361  21.806  1.00  0.00     0.204 C 
BRANCH  29  32
HETATM   32  O3  UNL     1      36.534  26.844  21.341  1.00  0.00    -0.390 OA
ATOM     33  H3  UNL     1      36.136  26.529  22.145  1.00  0.00     0.210 HD
ENDBRANCH  29  32
BRANCH  30  34
HETATM   34  O4  UNL     1      35.536  29.953  22.693  1.00  0.00    -0.390 OA
ATOM     35  H4  UNL     1      34.670  30.316  22.841  1.00  0.00     0.210 HD
ENDBRANCH  30  34
BRANCH  31  36
HETATM   36  O5  UNL     1      33.941  27.002  21.539  1.00  0.00    -0.388 OA
ATOM     37  H5  UNL     1      33.058  26.668  21.636  1.00  0.00     0.210 HD
ENDBRANCH  31  36
ENDBRANCH  24  25
ENDBRANCH   3  24
BRANCH   4  38
HETATM   38  O6  UNL     1      29.762  30.397  19.949  1.00  0.00    -0.383 OA
BRANCH  38  39
HETATM   39  C18 UNL     1      28.567  30.227  19.271  1.00  0.00     0.168 C 
BRANCH  39  40
HETATM   40  C19 UNL     1      27.387  30.567  20.165  1.00  0.00     0.022 C 
HETATM   41  C20 UNL     1      26.250  29.629  19.847  1.00  0.00     0.007 C 
ENDBRANCH  39  40
ENDBRANCH  38  39
ENDBRANCH   4  38
TORSDOF 18
ENDMDL
