MODEL 1
REMARK VINA RESULT: -6.289533840      0.000      0.000
REMARK  7 active torsions:
REMARK  status: ('A' for Active; 'I' for Inactive)
REMARK    1  A    between atoms: C2_2  and  C3_3 
REMARK    2  A    between atoms: C3_3  and  N1_4 
REMARK    3  A    between atoms: N1_4  and  C4_6 
REMARK    4  A    between atoms: C4_6  and  C5_7 
REMARK    5  A    between atoms: C5_7  and  C6_8 
REMARK    6  A    between atoms: C7_11  and  N3_12 
REMARK    7  A    between atoms: C8_17  and  N5_18 
ROOT
HETATM    1  C6  UNL     1       2.310   4.432  -2.446  1.00  0.00     0.082 A 
HETATM    2  N2  UNL     1       1.388   3.623  -1.916  1.00  0.00    -0.192 N 
ATOM      3  H2  UNL     1       0.415   3.850  -1.707  1.00  0.00     0.184 HD
HETATM    4  C7  UNL     1       2.006   2.451  -1.717  1.00  0.00     0.678 A 
HETATM    5  N4  UNL     1       3.275   2.517  -2.109  1.00  0.00    -0.169 N 
ATOM      6  H4  UNL     1       3.961   1.763  -2.065  1.00  0.00     0.186 HD
HETATM    7  C8  UNL     1       3.492   3.787  -2.583  1.00  0.00     0.211 A 
ENDROOT
BRANCH   1   8
HETATM    8  C5  UNL     1       2.058   5.857  -2.853  1.00  0.00     0.106 C 
BRANCH   8   9
HETATM    9  C4  UNL     1       1.871   5.921  -4.360  1.00  0.00     0.062 C 
BRANCH   9  10
HETATM   10  N1  UNL     1       0.510   5.877  -4.672  1.00  0.00    -0.398 N 
ATOM     11  H1  UNL     1      -0.161   6.363  -4.076  1.00  0.00     0.158 HD
BRANCH  10  12
HETATM   12  C3  UNL     1       0.056   5.166  -5.803  1.00  0.00     0.145 C 
BRANCH  12  13
HETATM   13  C2  UNL     1      -0.445   3.794  -5.407  1.00  0.00    -0.018 C 
HETATM   14  C1  UNL     1      -1.337   3.689  -4.436  1.00  0.00     0.008 C 
ENDBRANCH  12  13
ENDBRANCH  10  12
ENDBRANCH   9  10
ENDBRANCH   8   9
ENDBRANCH   1   8
BRANCH   7  15
HETATM   15  N5  UNL     1       4.771   4.203  -3.071  1.00  0.00    -0.095 N 
HETATM   16  O1  UNL     1       5.471   4.996  -2.395  1.00  0.00    -0.530 OA
HETATM   17  O2  UNL     1       5.276   3.773  -4.242  1.00  0.00    -0.530 OA
ENDBRANCH   7  15
BRANCH   4  18
HETATM   18  N3  UNL     1       1.408   1.421  -1.224  1.00  0.00    -0.234 N 
ATOM     19  H32 UNL     1       1.080   0.605  -1.740  1.00  0.00     0.174 HD
ATOM     20  H31 UNL     1       1.190   1.332  -0.231  1.00  0.00     0.174 HD
ENDBRANCH   4  18
TORSDOF 7
ENDMDL
MODEL 2
REMARK VINA RESULT: -6.043329693      2.872      4.540
REMARK  7 active torsions:
REMARK  status: ('A' for Active; 'I' for Inactive)
REMARK    1  A    between atoms: C2_2  and  C3_3 
REMARK    2  A    between atoms: C3_3  and  N1_4 
REMARK    3  A    between atoms: N1_4  and  C4_6 
REMARK    4  A    between atoms: C4_6  and  C5_7 
REMARK    5  A    between atoms: C5_7  and  C6_8 
REMARK    6  A    between atoms: C7_11  and  N3_12 
REMARK    7  A    between atoms: C8_17  and  N5_18 
ROOT
HETATM    1  C6  UNL     1       3.034   3.739  -2.190  1.00  0.00     0.082 A 
HETATM    2  N2  UNL     1       2.996   2.642  -1.428  1.00  0.00    -0.192 N 
ATOM      3  H2  UNL     1       3.761   2.241  -0.886  1.00  0.00     0.184 HD
HETATM    4  C7  UNL     1       1.742   2.178  -1.524  1.00  0.00     0.678 A 
HETATM    5  N4  UNL     1       1.013   2.957  -2.319  1.00  0.00    -0.169 N 
ATOM      6  H4  UNL     1       0.030   2.825  -2.557  1.00  0.00     0.186 HD
HETATM    7  C8  UNL     1       1.828   3.970  -2.758  1.00  0.00     0.211 A 
ENDROOT
BRANCH   1   8
HETATM    8  C5  UNL     1       4.248   4.608  -2.369  1.00  0.00     0.106 C 
BRANCH   8   9
HETATM    9  C4  UNL     1       5.225   3.915  -3.305  1.00  0.00     0.062 C 
BRANCH   9  10
HETATM   10  N1  UNL     1       6.210   4.816  -3.715  1.00  0.00    -0.398 N 
ATOM     11  H1  UNL     1       6.814   5.255  -3.020  1.00  0.00     0.158 HD
BRANCH  10  12
HETATM   12  C3  UNL     1       6.376   5.124  -5.082  1.00  0.00     0.145 C 
BRANCH  12  13
HETATM   13  C2  UNL     1       7.358   4.171  -5.729  1.00  0.00    -0.018 C 
HETATM   14  C1  UNL     1       6.982   3.479  -6.792  1.00  0.00     0.008 C 
ENDBRANCH  12  13
ENDBRANCH  10  12
ENDBRANCH   9  10
ENDBRANCH   8   9
ENDBRANCH   1   8
BRANCH   7  15
HETATM   15  N5  UNL     1       1.357   4.982  -3.653  1.00  0.00    -0.095 N 
HETATM   16  O1  UNL     1       0.994   4.672  -4.814  1.00  0.00    -0.530 OA
HETATM   17  O2  UNL     1       1.277   6.280  -3.305  1.00  0.00    -0.530 OA
ENDBRANCH   7  15
BRANCH   4  18
HETATM   18  N3  UNL     1       1.338   1.125  -0.902  1.00  0.00    -0.234 N 
ATOM     19  H32 UNL     1       0.746   0.385  -1.280  1.00  0.00     0.174 HD
ATOM     20  H31 UNL     1       1.574   0.934   0.073  1.00  0.00     0.174 HD
ENDBRANCH   4  18
TORSDOF 7
ENDMDL
MODEL 3
REMARK VINA RESULT: -5.961935810      2.067      3.143
REMARK  7 active torsions:
REMARK  status: ('A' for Active; 'I' for Inactive)
REMARK    1  A    between atoms: C2_2  and  C3_3 
REMARK    2  A    between atoms: C3_3  and  N1_4 
REMARK    3  A    between atoms: N1_4  and  C4_6 
REMARK    4  A    between atoms: C4_6  and  C5_7 
REMARK    5  A    between atoms: C5_7  and  C6_8 
REMARK    6  A    between atoms: C7_11  and  N3_12 
REMARK    7  A    between atoms: C8_17  and  N5_18 
ROOT
HETATM    1  C6  UNL     1       3.652   3.839  -2.400  1.00  0.00     0.082 A 
HETATM    2  N2  UNL     1       4.417   2.895  -2.954  1.00  0.00    -0.192 N 
ATOM      3  H2  UNL     1       4.340   1.885  -2.827  1.00  0.00     0.184 HD
HETATM    4  C7  UNL     1       5.309   3.549  -3.710  1.00  0.00     0.678 A 
HETATM    5  N4  UNL     1       5.112   4.862  -3.639  1.00  0.00    -0.169 N 
ATOM      6  H4  UNL     1       5.653   5.582  -4.119  1.00  0.00     0.186 HD
HETATM    7  C8  UNL     1       4.047   5.071  -2.798  1.00  0.00     0.211 A 
ENDROOT
BRANCH   1   8
HETATM    8  C5  UNL     1       2.495   3.565  -1.479  1.00  0.00     0.106 C 
BRANCH   8   9
HETATM    9  C4  UNL     1       1.329   3.022  -2.288  1.00  0.00     0.062 C 
BRANCH   9  10
HETATM   10  N1  UNL     1       0.877   3.997  -3.181  1.00  0.00    -0.398 N 
ATOM     11  H1  UNL     1       1.538   4.447  -3.814  1.00  0.00     0.158 HD
BRANCH  10  12
HETATM   12  C3  UNL     1      -0.485   4.362  -3.214  1.00  0.00     0.145 C 
BRANCH  12  13
HETATM   13  C2  UNL     1      -1.174   3.749  -4.415  1.00  0.00    -0.018 C 
HETATM   14  C1  UNL     1      -0.509   3.634  -5.552  1.00  0.00     0.008 C 
ENDBRANCH  12  13
ENDBRANCH  10  12
ENDBRANCH   9  10
ENDBRANCH   8   9
ENDBRANCH   1   8
BRANCH   7  15
HETATM   15  N5  UNL     1       3.578   6.386  -2.485  1.00  0.00    -0.095 N 
HETATM   16  O1  UNL     1       4.366   7.231  -1.993  1.00  0.00    -0.530 OA
HETATM   17  O2  UNL     1       2.308   6.776  -2.702  1.00  0.00    -0.530 OA
ENDBRANCH   7  15
BRANCH   4  18
HETATM   18  N3  UNL     1       6.208   2.946  -4.409  1.00  0.00    -0.234 N 
ATOM     19  H32 UNL     1       7.130   3.307  -4.654  1.00  0.00     0.174 HD
ATOM     20  H31 UNL     1       6.068   2.017  -4.807  1.00  0.00     0.174 HD
ENDBRANCH   4  18
TORSDOF 7
ENDMDL
MODEL 4
REMARK VINA RESULT: -5.938814524      2.585      4.064
REMARK  7 active torsions:
REMARK  status: ('A' for Active; 'I' for Inactive)
REMARK    1  A    between atoms: C2_2  and  C3_3 
REMARK    2  A    between atoms: C3_3  and  N1_4 
REMARK    3  A    between atoms: N1_4  and  C4_6 
REMARK    4  A    between atoms: C4_6  and  C5_7 
REMARK    5  A    between atoms: C5_7  and  C6_8 
REMARK    6  A    between atoms: C7_11  and  N3_12 
REMARK    7  A    between atoms: C8_17  and  N5_18 
ROOT
HETATM    1  C6  UNL     1       4.827   6.501  -3.410  1.00  0.00     0.082 A 
HETATM    2  N2  UNL     1       5.443   7.584  -3.895  1.00  0.00    -0.192 N 
ATOM      3  H2  UNL     1       5.077   8.535  -3.935  1.00  0.00     0.184 HD
HETATM    4  C7  UNL     1       6.641   7.159  -4.319  1.00  0.00     0.678 A 
HETATM    5  N4  UNL     1       6.778   5.853  -4.107  1.00  0.00    -0.169 N 
ATOM      6  H4  UNL     1       7.594   5.286  -4.338  1.00  0.00     0.186 HD
HETATM    7  C8  UNL     1       5.619   5.410  -3.521  1.00  0.00     0.211 A 
ENDROOT
BRANCH   1   8
HETATM    8  C5  UNL     1       3.451   6.506  -2.804  1.00  0.00     0.106 C 
BRANCH   8   9
HETATM    9  C4  UNL     1       2.485   5.814  -3.752  1.00  0.00     0.062 C 
BRANCH   9  10
HETATM   10  N1  UNL     1       1.713   4.886  -3.048  1.00  0.00    -0.398 N 
ATOM     11  H1  UNL     1       1.700   4.909  -2.028  1.00  0.00     0.158 HD
BRANCH  10  12
HETATM   12  C3  UNL     1       0.952   3.918  -3.737  1.00  0.00     0.145 C 
BRANCH  12  13
HETATM   13  C2  UNL     1      -0.529   4.176  -3.558  1.00  0.00    -0.018 C 
HETATM   14  C1  UNL     1      -1.360   3.877  -4.542  1.00  0.00     0.008 C 
ENDBRANCH  12  13
ENDBRANCH  10  12
ENDBRANCH   9  10
ENDBRANCH   8   9
ENDBRANCH   1   8
BRANCH   7  15
HETATM   15  N5  UNL     1       5.426   4.035  -3.175  1.00  0.00    -0.095 N 
HETATM   16  O1  UNL     1       5.410   3.688  -1.968  1.00  0.00    -0.530 OA
HETATM   17  O2  UNL     1       5.250   3.071  -4.099  1.00  0.00    -0.530 OA
ENDBRANCH   7  15
BRANCH   4  18
HETATM   18  N3  UNL     1       7.517   7.947  -4.840  1.00  0.00    -0.234 N 
ATOM     19  H32 UNL     1       7.328   8.778  -5.402  1.00  0.00     0.174 HD
ATOM     20  H31 UNL     1       8.522   7.798  -4.744  1.00  0.00     0.174 HD
ENDBRANCH   4  18
TORSDOF 7
ENDMDL
MODEL 5
REMARK VINA RESULT: -5.917488102      1.873      3.297
REMARK  7 active torsions:
REMARK  status: ('A' for Active; 'I' for Inactive)
REMARK    1  A    between atoms: C2_2  and  C3_3 
REMARK    2  A    between atoms: C3_3  and  N1_4 
REMARK    3  A    between atoms: N1_4  and  C4_6 
REMARK    4  A    between atoms: C4_6  and  C5_7 
REMARK    5  A    between atoms: C5_7  and  C6_8 
REMARK    6  A    between atoms: C7_11  and  N3_12 
REMARK    7  A    between atoms: C8_17  and  N5_18 
ROOT
HETATM    1  C6  UNL     1       3.801   5.603  -3.047  1.00  0.00     0.082 A 
HETATM    2  N2  UNL     1       4.872   6.209  -3.567  1.00  0.00    -0.192 N 
ATOM      3  H2  UNL     1       4.941   7.177  -3.881  1.00  0.00     0.184 HD
HETATM    4  C7  UNL     1       5.837   5.280  -3.588  1.00  0.00     0.678 A 
HETATM    5  N4  UNL     1       5.392   4.127  -3.098  1.00  0.00    -0.169 N 
ATOM      6  H4  UNL     1       5.926   3.263  -3.004  1.00  0.00     0.186 HD
HETATM    7  C8  UNL     1       4.079   4.315  -2.743  1.00  0.00     0.211 A 
ENDROOT
BRANCH   1   8
HETATM    8  C5  UNL     1       2.475   6.273  -2.814  1.00  0.00     0.106 C 
BRANCH   8   9
HETATM    9  C4  UNL     1       1.610   6.115  -4.054  1.00  0.00     0.062 C 
BRANCH   9  10
HETATM   10  N1  UNL     1       1.070   4.828  -4.095  1.00  0.00    -0.398 N 
ATOM     11  H1  UNL     1       1.562   4.089  -4.598  1.00  0.00     0.158 HD
BRANCH  10  12
HETATM   12  C3  UNL     1      -0.150   4.541  -3.446  1.00  0.00     0.145 C 
BRANCH  12  13
HETATM   13  C2  UNL     1      -1.118   3.872  -4.398  1.00  0.00    -0.018 C 
HETATM   14  C1  UNL     1      -0.694   3.499  -5.594  1.00  0.00     0.008 C 
ENDBRANCH  12  13
ENDBRANCH  10  12
ENDBRANCH   9  10
ENDBRANCH   8   9
ENDBRANCH   1   8
BRANCH   7  15
HETATM   15  N5  UNL     1       3.288   3.257  -2.193  1.00  0.00    -0.095 N 
HETATM   16  O1  UNL     1       2.893   2.321  -2.931  1.00  0.00    -0.530 OA
HETATM   17  O2  UNL     1       2.942   3.208  -0.893  1.00  0.00    -0.530 OA
ENDBRANCH   7  15
BRANCH   4  18
HETATM   18  N3  UNL     1       7.028   5.520  -4.021  1.00  0.00    -0.234 N 
ATOM     19  H32 UNL     1       7.808   5.891  -3.477  1.00  0.00     0.174 HD
ATOM     20  H31 UNL     1       7.305   5.366  -4.990  1.00  0.00     0.174 HD
ENDBRANCH   4  18
TORSDOF 7
ENDMDL
