MODEL 1
REMARK VINA RESULT: -6.937136503      0.000      0.000
REMARK  8 active torsions:
REMARK  status: ('A' for Active; 'I' for Inactive)
REMARK    1  A    between atoms: C1_2  and  N1_3 
REMARK    2  A    between atoms: N1_3  and  C2_5 
REMARK    3  A    between atoms: C2_5  and  O2_6 
REMARK    4  A    between atoms: C2_5  and  C3_8 
REMARK    5  A    between atoms: C3_8  and  O3_9 
REMARK    6  A    between atoms: C3_8  and  C4_11 
REMARK    7  A    between atoms: C4_11  and  N2_12 
REMARK    8  A    between atoms: N2_12  and  C5_14 
ROOT
HETATM    1  C3  UNL     1       4.144   4.952  -2.585  1.00  0.00     0.184 C 
ENDROOT
BRANCH   1   2
HETATM    2  C2  UNL     1       5.251   4.004  -2.997  1.00  0.00     0.250 C 
BRANCH   2   3
HETATM    3  N1  UNL     1       6.242   4.769  -3.727  1.00  0.00    -0.340 N 
ATOM      4  H1  UNL     1       6.737   5.514  -3.236  1.00  0.00     0.164 HD
BRANCH   3   5
HETATM    5  C1  UNL     1       6.554   4.535  -5.084  1.00  0.00     0.350 C 
HETATM    6  O1  UNL     1       6.187   3.487  -5.694  1.00  0.00    -0.284 OA
ENDBRANCH   3   5
ENDBRANCH   2   3
BRANCH   2   7
HETATM    7  O2  UNL     1       5.895   3.458  -1.882  1.00  0.00    -0.374 OA
ATOM      8  H2  UNL     1       5.756   4.059  -1.159  1.00  0.00     0.212 HD
ENDBRANCH   2   7
ENDBRANCH   1   2
BRANCH   1   9
HETATM    9  O3  UNL     1       4.604   5.665  -1.489  1.00  0.00    -0.390 OA
ATOM     10  H3  UNL     1       4.415   6.581  -1.652  1.00  0.00     0.210 HD
ENDBRANCH   1   9
BRANCH   1  11
HETATM   11  C4  UNL     1       2.867   4.246  -2.271  1.00  0.00     0.156 C 
BRANCH  11  12
HETATM   12  N2  UNL     1       1.728   5.096  -2.540  1.00  0.00    -0.387 N 
ATOM     13  H2  UNL     1       1.624   5.952  -1.997  1.00  0.00     0.159 HD
BRANCH  12  14
HETATM   14  C5  UNL     1       0.753   4.801  -3.517  1.00  0.00     0.028 A 
HETATM   15  C6  UNL     1      -0.291   3.916  -3.289  1.00  0.00     0.029 A 
HETATM   16  C7  UNL     1      -1.243   3.628  -4.237  1.00  0.00     0.002 A 
HETATM   17  C8  UNL     1      -1.172   4.237  -5.482  1.00  0.00     0.000 A 
HETATM   18  C9  UNL     1      -0.145   5.121  -5.741  1.00  0.00     0.002 A 
HETATM   19  C10 UNL     1       0.793   5.387  -4.763  1.00  0.00     0.029 A 
ENDBRANCH  12  14
ENDBRANCH  11  12
ENDBRANCH   1  11
TORSDOF 8
ENDMDL
MODEL 2
REMARK VINA RESULT: -6.911543765      1.045      1.858
REMARK  8 active torsions:
REMARK  status: ('A' for Active; 'I' for Inactive)
REMARK    1  A    between atoms: C1_2  and  N1_3 
REMARK    2  A    between atoms: N1_3  and  C2_5 
REMARK    3  A    between atoms: C2_5  and  O2_6 
REMARK    4  A    between atoms: C2_5  and  C3_8 
REMARK    5  A    between atoms: C3_8  and  O3_9 
REMARK    6  A    between atoms: C3_8  and  C4_11 
REMARK    7  A    between atoms: C4_11  and  N2_12 
REMARK    8  A    between atoms: N2_12  and  C5_14 
ROOT
HETATM    1  C3  UNL     1       4.925   4.346  -2.530  1.00  0.00     0.184 C 
ENDROOT
BRANCH   1   2
HETATM    2  C2  UNL     1       5.635   4.780  -3.795  1.00  0.00     0.250 C 
BRANCH   2   3
HETATM    3  N1  UNL     1       6.207   3.599  -4.410  1.00  0.00    -0.340 N 
ATOM      4  H1  UNL     1       6.110   2.706  -3.929  1.00  0.00     0.164 HD
BRANCH   3   5
HETATM    5  C1  UNL     1       6.894   3.626  -5.644  1.00  0.00     0.350 C 
HETATM    6  O1  UNL     1       6.293   3.569  -6.757  1.00  0.00    -0.284 OA
ENDBRANCH   3   5
ENDBRANCH   2   3
BRANCH   2   7
HETATM    7  O2  UNL     1       4.739   5.329  -4.719  1.00  0.00    -0.374 OA
ATOM      8  H2  UNL     1       4.097   5.824  -4.223  1.00  0.00     0.212 HD
ENDBRANCH   2   7
ENDBRANCH   1   2
BRANCH   1   9
HETATM    9  O3  UNL     1       5.786   3.501  -1.849  1.00  0.00    -0.390 OA
ATOM     10  H3  UNL     1       5.682   3.684  -0.922  1.00  0.00     0.210 HD
ENDBRANCH   1   9
BRANCH   1  11
HETATM   11  C4  UNL     1       3.617   3.678  -2.803  1.00  0.00     0.156 C 
BRANCH  11  12
HETATM   12  N2  UNL     1       2.523   4.617  -2.680  1.00  0.00    -0.387 N 
ATOM     13  H2  UNL     1       2.598   5.359  -1.985  1.00  0.00     0.159 HD
BRANCH  12  14
HETATM   14  C5  UNL     1       1.358   4.557  -3.473  1.00  0.00     0.028 A 
HETATM   15  C6  UNL     1       1.171   5.357  -4.591  1.00  0.00     0.029 A 
HETATM   16  C7  UNL     1       0.039   5.301  -5.366  1.00  0.00     0.002 A 
HETATM   17  C8  UNL     1      -0.973   4.412  -5.031  1.00  0.00     0.000 A 
HETATM   18  C9  UNL     1      -0.820   3.603  -3.924  1.00  0.00     0.002 A 
HETATM   19  C10 UNL     1       0.334   3.687  -3.169  1.00  0.00     0.029 A 
ENDBRANCH  12  14
ENDBRANCH  11  12
ENDBRANCH   1  11
TORSDOF 8
ENDMDL
MODEL 3
REMARK VINA RESULT: -6.896343632      1.047      1.404
REMARK  8 active torsions:
REMARK  status: ('A' for Active; 'I' for Inactive)
REMARK    1  A    between atoms: C1_2  and  N1_3 
REMARK    2  A    between atoms: N1_3  and  C2_5 
REMARK    3  A    between atoms: C2_5  and  O2_6 
REMARK    4  A    between atoms: C2_5  and  C3_8 
REMARK    5  A    between atoms: C3_8  and  O3_9 
REMARK    6  A    between atoms: C3_8  and  C4_11 
REMARK    7  A    between atoms: C4_11  and  N2_12 
REMARK    8  A    between atoms: N2_12  and  C5_14 
ROOT
HETATM    1  C3  UNL     1       4.934   4.351  -2.519  1.00  0.00     0.184 C 
ENDROOT
BRANCH   1   2
HETATM    2  C2  UNL     1       5.627   4.793  -3.791  1.00  0.00     0.250 C 
BRANCH   2   3
HETATM    3  N1  UNL     1       6.212   3.619  -4.408  1.00  0.00    -0.340 N 
ATOM      4  H1  UNL     1       6.136   2.727  -3.921  1.00  0.00     0.164 HD
BRANCH   3   5
HETATM    5  C1  UNL     1       6.880   3.652  -5.651  1.00  0.00     0.350 C 
HETATM    6  O1  UNL     1       6.267   3.558  -6.756  1.00  0.00    -0.284 OA
ENDBRANCH   3   5
ENDBRANCH   2   3
BRANCH   2   7
HETATM    7  O2  UNL     1       4.717   5.328  -4.708  1.00  0.00    -0.374 OA
ATOM      8  H2  UNL     1       3.993   5.683  -4.206  1.00  0.00     0.212 HD
ENDBRANCH   2   7
ENDBRANCH   1   2
BRANCH   1   9
HETATM    9  O3  UNL     1       5.803   3.501  -1.854  1.00  0.00    -0.390 OA
ATOM     10  H3  UNL     1       5.319   2.710  -1.650  1.00  0.00     0.210 HD
ENDBRANCH   1   9
BRANCH   1  11
HETATM   11  C4  UNL     1       3.622   3.686  -2.779  1.00  0.00     0.156 C 
BRANCH  11  12
HETATM   12  N2  UNL     1       2.535   4.635  -2.685  1.00  0.00    -0.387 N 
ATOM     13  H2  UNL     1       2.622   5.406  -2.023  1.00  0.00     0.159 HD
BRANCH  12  14
HETATM   14  C5  UNL     1       1.360   4.548  -3.460  1.00  0.00     0.028 A 
HETATM   15  C6  UNL     1       0.341   3.650  -3.177  1.00  0.00     0.029 A 
HETATM   16  C7  UNL     1      -0.806   3.563  -3.930  1.00  0.00     0.002 A 
HETATM   17  C8  UNL     1      -0.968   4.402  -5.024  1.00  0.00     0.000 A 
HETATM   18  C9  UNL     1       0.027   5.306  -5.332  1.00  0.00     0.002 A 
HETATM   19  C10 UNL     1       1.166   5.364  -4.553  1.00  0.00     0.029 A 
ENDBRANCH  12  14
ENDBRANCH  11  12
ENDBRANCH   1  11
TORSDOF 8
ENDMDL
MODEL 4
REMARK VINA RESULT: -6.887969506      0.139      1.230
REMARK  8 active torsions:
REMARK  status: ('A' for Active; 'I' for Inactive)
REMARK    1  A    between atoms: C1_2  and  N1_3 
REMARK    2  A    between atoms: N1_3  and  C2_5 
REMARK    3  A    between atoms: C2_5  and  O2_6 
REMARK    4  A    between atoms: C2_5  and  C3_8 
REMARK    5  A    between atoms: C3_8  and  O3_9 
REMARK    6  A    between atoms: C3_8  and  C4_11 
REMARK    7  A    between atoms: C4_11  and  N2_12 
REMARK    8  A    between atoms: N2_12  and  C5_14 
ROOT
HETATM    1  C3  UNL     1       4.171   4.967  -2.613  1.00  0.00     0.184 C 
ENDROOT
BRANCH   1   2
HETATM    2  C2  UNL     1       5.231   3.960  -3.005  1.00  0.00     0.250 C 
BRANCH   2   3
HETATM    3  N1  UNL     1       6.219   4.648  -3.812  1.00  0.00    -0.340 N 
ATOM      4  H1  UNL     1       6.707   5.446  -3.407  1.00  0.00     0.164 HD
BRANCH   3   5
HETATM    5  C1  UNL     1       6.538   4.267  -5.134  1.00  0.00     0.350 C 
HETATM    6  O1  UNL     1       6.165   3.163  -5.631  1.00  0.00    -0.284 OA
ENDBRANCH   3   5
ENDBRANCH   2   3
BRANCH   2   7
HETATM    7  O2  UNL     1       5.898   3.459  -1.882  1.00  0.00    -0.374 OA
ATOM      8  H2  UNL     1       5.340   2.791  -1.503  1.00  0.00     0.212 HD
ENDBRANCH   2   7
ENDBRANCH   1   2
BRANCH   1   9
HETATM    9  O3  UNL     1       4.695   5.734  -1.585  1.00  0.00    -0.390 OA
ATOM     10  H3  UNL     1       3.972   6.209  -1.193  1.00  0.00     0.210 HD
ENDBRANCH   1   9
BRANCH   1  11
HETATM   11  C4  UNL     1       2.887   4.323  -2.204  1.00  0.00     0.156 C 
BRANCH  11  12
HETATM   12  N2  UNL     1       1.760   5.175  -2.517  1.00  0.00    -0.387 N 
ATOM     13  H2  UNL     1       1.654   6.046  -1.999  1.00  0.00     0.159 HD
BRANCH  12  14
HETATM   14  C5  UNL     1       0.801   4.860  -3.502  1.00  0.00     0.028 A 
HETATM   15  C6  UNL     1       0.796   5.451  -4.757  1.00  0.00     0.029 A 
HETATM   16  C7  UNL     1      -0.135   5.146  -5.720  1.00  0.00     0.002 A 
HETATM   17  C8  UNL     1      -1.122   4.211  -5.442  1.00  0.00     0.000 A 
HETATM   18  C9  UNL     1      -1.146   3.605  -4.203  1.00  0.00     0.002 A 
HETATM   19  C10 UNL     1      -0.192   3.937  -3.261  1.00  0.00     0.029 A 
ENDBRANCH  12  14
ENDBRANCH  11  12
ENDBRANCH   1  11
TORSDOF 8
ENDMDL
MODEL 5
REMARK VINA RESULT: -6.761934786      2.281      5.620
REMARK  8 active torsions:
REMARK  status: ('A' for Active; 'I' for Inactive)
REMARK    1  A    between atoms: C1_2  and  N1_3 
REMARK    2  A    between atoms: N1_3  and  C2_5 
REMARK    3  A    between atoms: C2_5  and  O2_6 
REMARK    4  A    between atoms: C2_5  and  C3_8 
REMARK    5  A    between atoms: C3_8  and  O3_9 
REMARK    6  A    between atoms: C3_8  and  C4_11 
REMARK    7  A    between atoms: C4_11  and  N2_12 
REMARK    8  A    between atoms: N2_12  and  C5_14 
ROOT
HETATM    1  C3  UNL     1       4.823   3.980  -2.565  1.00  0.00     0.184 C 
ENDROOT
BRANCH   1   2
HETATM    2  C2  UNL     1       3.445   3.930  -1.940  1.00  0.00     0.250 C 
BRANCH   2   3
HETATM    3  N1  UNL     1       2.520   3.444  -2.945  1.00  0.00    -0.340 N 
ATOM      4  H1  UNL     1       2.895   3.140  -3.843  1.00  0.00     0.164 HD
BRANCH   3   5
HETATM    5  C1  UNL     1       1.124   3.374  -2.741  1.00  0.00     0.350 C 
HETATM    6  O1  UNL     1       0.611   3.262  -1.588  1.00  0.00    -0.284 OA
ENDBRANCH   3   5
ENDBRANCH   2   3
BRANCH   2   7
HETATM    7  O2  UNL     1       3.401   3.025  -0.874  1.00  0.00    -0.374 OA
ATOM      8  H2  UNL     1       2.659   3.270  -0.333  1.00  0.00     0.212 HD
ENDBRANCH   2   7
ENDBRANCH   1   2
BRANCH   1   9
HETATM    9  O3  UNL     1       5.705   3.418  -1.656  1.00  0.00    -0.390 OA
ATOM     10  H3  UNL     1       5.293   2.634  -1.315  1.00  0.00     0.210 HD
ENDBRANCH   1   9
BRANCH   1  11
HETATM   11  C4  UNL     1       5.239   5.366  -2.935  1.00  0.00     0.156 C 
BRANCH  11  12
HETATM   12  N2  UNL     1       6.467   5.350  -3.698  1.00  0.00    -0.387 N 
ATOM     13  H2  UNL     1       7.332   5.617  -3.228  1.00  0.00     0.159 HD
BRANCH  12  14
HETATM   14  C5  UNL     1       6.531   4.983  -5.058  1.00  0.00     0.028 A 
HETATM   15  C6  UNL     1       6.231   5.865  -6.086  1.00  0.00     0.029 A 
HETATM   16  C7  UNL     1       6.293   5.512  -7.412  1.00  0.00     0.002 A 
HETATM   17  C8  UNL     1       6.669   4.221  -7.757  1.00  0.00     0.000 A 
HETATM   18  C9  UNL     1       6.973   3.319  -6.759  1.00  0.00     0.002 A 
HETATM   19  C10 UNL     1       6.900   3.711  -5.436  1.00  0.00     0.029 A 
ENDBRANCH  12  14
ENDBRANCH  11  12
ENDBRANCH   1  11
TORSDOF 8
ENDMDL
