MODEL 1
REMARK VINA RESULT: -6.204428063      0.000      0.000
REMARK  7 active torsions:
REMARK  status: ('A' for Active; 'I' for Inactive)
REMARK    1  A    between atoms: C2_2  and  C3_3 
REMARK    2  A    between atoms: C3_3  and  N1_4 
REMARK    3  A    between atoms: N1_4  and  C4_6 
REMARK    4  A    between atoms: C4_6  and  C5_7 
REMARK    5  A    between atoms: C5_7  and  N2_8 
REMARK    6  A    between atoms: N2_8  and  C6_10 
REMARK    7  A    between atoms: C9_15  and  N4_16 
ROOT
HETATM    1  C6  UNL     1       3.221   3.820  -2.071  1.00  0.00     0.118 A 
HETATM    2  C7  UNL     1       2.260   4.607  -2.688  1.00  0.00     0.066 A 
HETATM    3  C8  UNL     1       0.974   4.114  -2.688  1.00  0.00     0.110 A 
HETATM    4  N3  UNL     1       0.704   2.925  -2.108  1.00  0.00    -0.202 N 
ATOM      5  H3  UNL     1      -0.255   2.580  -2.120  1.00  0.00     0.183 HD
HETATM    6  C9  UNL     1       1.657   2.178  -1.515  1.00  0.00     0.677 A 
HETATM    7  N5  UNL     1       2.919   2.639  -1.503  1.00  0.00    -0.177 N 
ATOM      8  H5  UNL     1       3.655   2.088  -1.060  1.00  0.00     0.185 HD
ENDROOT
BRANCH   1   9
HETATM    9  N2  UNL     1       4.554   4.274  -2.028  1.00  0.00    -0.374 N 
ATOM     10  H2  UNL     1       4.938   4.661  -1.166  1.00  0.00     0.161 HD
BRANCH   9  11
HETATM   11  C5  UNL     1       5.382   4.183  -3.227  1.00  0.00     0.140 C 
BRANCH  11  12
HETATM   12  C4  UNL     1       5.834   5.595  -3.620  1.00  0.00     0.133 C 
BRANCH  12  13
HETATM   13  N1  UNL     1       7.095   5.514  -4.248  1.00  0.00    -0.417 N 
ATOM     14  H1  UNL     1       7.960   5.519  -3.706  1.00  0.00     0.153 HD
BRANCH  13  15
HETATM   15  C3  UNL     1       7.111   5.427  -5.664  1.00  0.00     0.140 C 
BRANCH  15  16
HETATM   16  C2  UNL     1       7.703   4.197  -6.213  1.00  0.00    -0.018 C 
HETATM   17  C1  UNL     1       7.014   3.339  -6.917  1.00  0.00     0.008 C 
ENDBRANCH  15  16
ENDBRANCH  13  15
ENDBRANCH  12  13
ENDBRANCH  11  12
ENDBRANCH   9  11
ENDBRANCH   1   9
BRANCH   6  18
HETATM   18  N4  UNL     1       1.363   1.041  -0.966  1.00  0.00    -0.234 N 
ATOM     19  H42 UNL     1       0.823   0.341  -1.477  1.00  0.00     0.174 HD
ATOM     20  H41 UNL     1       1.667   0.824  -0.017  1.00  0.00     0.174 HD
ENDBRANCH   6  18
TORSDOF 7
ENDMDL
MODEL 2
REMARK VINA RESULT: -6.166780571      1.882      5.637
REMARK  7 active torsions:
REMARK  status: ('A' for Active; 'I' for Inactive)
REMARK    1  A    between atoms: C2_2  and  C3_3 
REMARK    2  A    between atoms: C3_3  and  N1_4 
REMARK    3  A    between atoms: N1_4  and  C4_6 
REMARK    4  A    between atoms: C4_6  and  C5_7 
REMARK    5  A    between atoms: C5_7  and  N2_8 
REMARK    6  A    between atoms: N2_8  and  C6_10 
REMARK    7  A    between atoms: C9_15  and  N4_16 
ROOT
HETATM    1  C6  UNL     1       5.039   4.257  -2.839  1.00  0.00     0.118 A 
HETATM    2  C7  UNL     1       5.535   5.369  -3.502  1.00  0.00     0.066 A 
HETATM    3  C8  UNL     1       6.333   5.122  -4.597  1.00  0.00     0.110 A 
HETATM    4  N3  UNL     1       6.595   3.853  -4.972  1.00  0.00    -0.202 N 
ATOM      5  H3  UNL     1       7.188   3.693  -5.786  1.00  0.00     0.183 HD
HETATM    6  C9  UNL     1       6.100   2.787  -4.310  1.00  0.00     0.677 A 
HETATM    7  N5  UNL     1       5.319   3.003  -3.238  1.00  0.00    -0.177 N 
ATOM      8  H5  UNL     1       4.936   2.211  -2.723  1.00  0.00     0.185 HD
ENDROOT
BRANCH   1   9
HETATM    9  N2  UNL     1       4.206   4.442  -1.717  1.00  0.00    -0.374 N 
ATOM     10  H2  UNL     1       4.493   5.065  -0.961  1.00  0.00     0.161 HD
BRANCH   9  11
HETATM   11  C5  UNL     1       2.932   3.735  -1.644  1.00  0.00     0.140 C 
BRANCH  11  12
HETATM   12  C4  UNL     1       2.000   4.289  -2.729  1.00  0.00     0.133 C 
BRANCH  12  13
HETATM   13  N1  UNL     1       0.745   3.652  -2.624  1.00  0.00    -0.417 N 
ATOM     14  H1  UNL     1       0.650   2.734  -2.189  1.00  0.00     0.153 HD
BRANCH  13  15
HETATM   15  C3  UNL     1      -0.378   4.341  -3.149  1.00  0.00     0.140 C 
BRANCH  15  16
HETATM   16  C2  UNL     1      -1.039   3.691  -4.293  1.00  0.00    -0.018 C 
HETATM   17  C1  UNL     1      -0.531   3.702  -5.496  1.00  0.00     0.008 C 
ENDBRANCH  15  16
ENDBRANCH  13  15
ENDBRANCH  12  13
ENDBRANCH  11  12
ENDBRANCH   9  11
ENDBRANCH   1   9
BRANCH   6  18
HETATM   18  N4  UNL     1       6.371   1.580  -4.698  1.00  0.00    -0.234 N 
ATOM     19  H42 UNL     1       5.654   1.002  -5.138  1.00  0.00     0.174 HD
ATOM     20  H41 UNL     1       7.303   1.187  -4.570  1.00  0.00     0.174 HD
ENDBRANCH   6  18
TORSDOF 7
ENDMDL
MODEL 3
REMARK VINA RESULT: -6.075397742      2.003      5.753
REMARK  7 active torsions:
REMARK  status: ('A' for Active; 'I' for Inactive)
REMARK    1  A    between atoms: C2_2  and  C3_3 
REMARK    2  A    between atoms: C3_3  and  N1_4 
REMARK    3  A    between atoms: N1_4  and  C4_6 
REMARK    4  A    between atoms: C4_6  and  C5_7 
REMARK    5  A    between atoms: C5_7  and  N2_8 
REMARK    6  A    between atoms: N2_8  and  C6_10 
REMARK    7  A    between atoms: C9_15  and  N4_16 
ROOT
HETATM    1  C6  UNL     1       4.614   4.895  -2.371  1.00  0.00     0.118 A 
HETATM    2  C7  UNL     1       3.989   6.133  -2.373  1.00  0.00     0.066 A 
HETATM    3  C8  UNL     1       4.558   7.104  -3.165  1.00  0.00     0.110 A 
HETATM    4  N3  UNL     1       5.666   6.828  -3.886  1.00  0.00    -0.202 N 
ATOM      5  H3  UNL     1       6.070   7.563  -4.466  1.00  0.00     0.183 HD
HETATM    6  C9  UNL     1       6.255   5.616  -3.867  1.00  0.00     0.677 A 
HETATM    7  N5  UNL     1       5.718   4.652  -3.100  1.00  0.00    -0.177 N 
ATOM      8  H5  UNL     1       6.150   3.729  -3.071  1.00  0.00     0.185 HD
ENDROOT
BRANCH   1   9
HETATM    9  N2  UNL     1       4.074   3.855  -1.589  1.00  0.00    -0.374 N 
ATOM     10  H2  UNL     1       4.690   3.171  -1.147  1.00  0.00     0.161 HD
BRANCH   9  11
HETATM   11  C5  UNL     1       2.628   3.763  -1.416  1.00  0.00     0.140 C 
BRANCH  11  12
HETATM   12  C4  UNL     1       2.056   2.868  -2.522  1.00  0.00     0.133 C 
BRANCH  12  13
HETATM   13  N1  UNL     1       1.335   3.669  -3.433  1.00  0.00    -0.417 N 
ATOM     14  H1  UNL     1       1.779   4.058  -4.265  1.00  0.00     0.153 HD
BRANCH  13  15
HETATM   15  C3  UNL     1      -0.032   3.910  -3.143  1.00  0.00     0.140 C 
BRANCH  15  16
HETATM   16  C2  UNL     1      -0.954   3.759  -4.281  1.00  0.00    -0.018 C 
HETATM   17  C1  UNL     1      -0.535   3.628  -5.512  1.00  0.00     0.008 C 
ENDBRANCH  15  16
ENDBRANCH  13  15
ENDBRANCH  12  13
ENDBRANCH  11  12
ENDBRANCH   9  11
ENDBRANCH   1   9
BRANCH   6  18
HETATM   18  N4  UNL     1       7.319   5.384  -4.572  1.00  0.00    -0.234 N 
ATOM     19  H42 UNL     1       8.078   6.064  -4.607  1.00  0.00     0.174 HD
ATOM     20  H41 UNL     1       7.414   4.518  -5.103  1.00  0.00     0.174 HD
ENDBRANCH   6  18
TORSDOF 7
ENDMDL
MODEL 4
REMARK VINA RESULT: -5.850067775      1.571      5.900
REMARK  7 active torsions:
REMARK  status: ('A' for Active; 'I' for Inactive)
REMARK    1  A    between atoms: C2_2  and  C3_3 
REMARK    2  A    between atoms: C3_3  and  N1_4 
REMARK    3  A    between atoms: N1_4  and  C4_6 
REMARK    4  A    between atoms: C4_6  and  C5_7 
REMARK    5  A    between atoms: C5_7  and  N2_8 
REMARK    6  A    between atoms: N2_8  and  C6_10 
REMARK    7  A    between atoms: C9_15  and  N4_16 
ROOT
HETATM    1  C6  UNL     1       4.762   4.998  -2.959  1.00  0.00     0.118 A 
HETATM    2  C7  UNL     1       3.892   5.814  -3.665  1.00  0.00     0.066 A 
HETATM    3  C8  UNL     1       4.397   6.411  -4.799  1.00  0.00     0.110 A 
HETATM    4  N3  UNL     1       5.675   6.188  -5.170  1.00  0.00    -0.202 N 
ATOM      5  H3  UNL     1       6.027   6.641  -6.013  1.00  0.00     0.183 HD
HETATM    6  C9  UNL     1       6.502   5.389  -4.467  1.00  0.00     0.677 A 
HETATM    7  N5  UNL     1       6.032   4.796  -3.356  1.00  0.00    -0.177 N 
ATOM      8  H5  UNL     1       6.643   4.190  -2.809  1.00  0.00     0.185 HD
ENDROOT
BRANCH   1   9
HETATM    9  N2  UNL     1       4.304   4.349  -1.795  1.00  0.00    -0.374 N 
ATOM     10  H2  UNL     1       4.968   3.917  -1.152  1.00  0.00     0.161 HD
BRANCH   9  11
HETATM   11  C5  UNL     1       2.872   4.301  -1.518  1.00  0.00     0.140 C 
BRANCH  11  12
HETATM   12  C4  UNL     1       2.390   2.852  -1.669  1.00  0.00     0.133 C 
BRANCH  12  13
HETATM   13  N1  UNL     1       1.078   2.858  -2.187  1.00  0.00    -0.417 N 
ATOM     14  H1  UNL     1       0.338   2.294  -1.767  1.00  0.00     0.153 HD
BRANCH  13  15
HETATM   15  C3  UNL     1       0.829   3.681  -3.316  1.00  0.00     0.140 C 
BRANCH  15  16
HETATM   16  C2  UNL     1      -0.567   4.116  -3.483  1.00  0.00    -0.018 C 
HETATM   17  C1  UNL     1      -1.274   3.817  -4.540  1.00  0.00     0.008 C 
ENDBRANCH  15  16
ENDBRANCH  13  15
ENDBRANCH  12  13
ENDBRANCH  11  12
ENDBRANCH   9  11
ENDBRANCH   1   9
BRANCH   6  18
HETATM   18  N4  UNL     1       7.725   5.196  -4.852  1.00  0.00    -0.234 N 
ATOM     19  H42 UNL     1       8.291   4.456  -4.435  1.00  0.00     0.174 HD
ATOM     20  H41 UNL     1       8.143   5.779  -5.576  1.00  0.00     0.174 HD
ENDBRANCH   6  18
TORSDOF 7
ENDMDL
MODEL 5
REMARK VINA RESULT: -5.813482823      2.198      5.794
REMARK  7 active torsions:
REMARK  status: ('A' for Active; 'I' for Inactive)
REMARK    1  A    between atoms: C2_2  and  C3_3 
REMARK    2  A    between atoms: C3_3  and  N1_4 
REMARK    3  A    between atoms: N1_4  and  C4_6 
REMARK    4  A    between atoms: C4_6  and  C5_7 
REMARK    5  A    between atoms: C5_7  and  N2_8 
REMARK    6  A    between atoms: N2_8  and  C6_10 
REMARK    7  A    between atoms: C9_15  and  N4_16 
ROOT
HETATM    1  C6  UNL     1       3.980   4.772  -1.956  1.00  0.00     0.118 A 
HETATM    2  C7  UNL     1       4.936   4.344  -2.864  1.00  0.00     0.066 A 
HETATM    3  C8  UNL     1       5.597   5.327  -3.566  1.00  0.00     0.110 A 
HETATM    4  N3  UNL     1       5.302   6.627  -3.353  1.00  0.00    -0.202 N 
ATOM      5  H3  UNL     1       5.804   7.338  -3.884  1.00  0.00     0.183 HD
HETATM    6  C9  UNL     1       4.367   7.018  -2.464  1.00  0.00     0.677 A 
HETATM    7  N5  UNL     1       3.708   6.076  -1.768  1.00  0.00    -0.177 N 
ATOM      8  H5  UNL     1       2.996   6.351  -1.091  1.00  0.00     0.185 HD
ENDROOT
BRANCH   1   9
HETATM    9  N2  UNL     1       3.276   3.815  -1.199  1.00  0.00    -0.374 N 
ATOM     10  H2  UNL     1       3.272   3.867  -0.180  1.00  0.00     0.161 HD
BRANCH   9  11
HETATM   11  C5  UNL     1       2.551   2.750  -1.884  1.00  0.00     0.140 C 
BRANCH  11  12
HETATM   12  C4  UNL     1       1.064   3.124  -1.940  1.00  0.00     0.133 C 
BRANCH  12  13
HETATM   13  N1  UNL     1       0.813   3.820  -3.141  1.00  0.00    -0.417 N 
ATOM     14  H1  UNL     1       1.542   3.953  -3.841  1.00  0.00     0.153 HD
BRANCH  13  15
HETATM   15  C3  UNL     1      -0.498   4.329  -3.334  1.00  0.00     0.140 C 
BRANCH  15  16
HETATM   16  C2  UNL     1      -1.194   3.838  -4.535  1.00  0.00    -0.018 C 
HETATM   17  C1  UNL     1      -0.566   3.557  -5.645  1.00  0.00     0.008 C 
ENDBRANCH  15  16
ENDBRANCH  13  15
ENDBRANCH  12  13
ENDBRANCH  11  12
ENDBRANCH   9  11
ENDBRANCH   1   9
BRANCH   6  18
HETATM   18  N4  UNL     1       4.107   8.276  -2.283  1.00  0.00    -0.234 N 
ATOM     19  H42 UNL     1       3.256   8.691  -2.663  1.00  0.00     0.174 HD
ATOM     20  H41 UNL     1       4.748   8.871  -1.759  1.00  0.00     0.174 HD
ENDBRANCH   6  18
TORSDOF 7
ENDMDL
