MODEL 1
REMARK VINA RESULT: -6.400962836      0.000      0.000
REMARK  3 active torsions:
REMARK  status: ('A' for Active; 'I' for Inactive)
REMARK    1  A    between atoms: C2_2  and  C3_3 
REMARK    2  A    between atoms: C3_3  and  C4_4 
REMARK    3  A    between atoms: C8_8  and  N1_9 
ROOT
HETATM    1  C4  UNL     1      47.611  25.051  40.871  1.00  0.00     0.128 C 
HETATM    2  C5  UNL     1      48.986  25.260  41.456  1.00  0.00     0.032 C 
HETATM    3  C6  UNL     1      48.716  26.033  42.756  1.00  0.00     0.007 C 
HETATM    4  C7  UNL     1      48.176  27.366  42.299  1.00  0.00     0.060 C 
HETATM    5  C8  UNL     1      47.135  27.295  41.265  1.00  0.00     0.291 C 
HETATM    6  O3  UNL     1      47.089  26.241  40.441  1.00  0.00    -0.355 OA
ENDROOT
BRANCH   1   7
HETATM    7  C3  UNL     1      47.595  24.011  39.793  1.00  0.00     0.058 C 
BRANCH   7   8
HETATM    8  C2  UNL     1      48.024  22.683  40.259  1.00  0.00    -0.034 C 
HETATM    9  C1  UNL     1      47.138  21.764  40.541  1.00  0.00     0.007 C 
ENDBRANCH   7   8
ENDBRANCH   1   7
BRANCH   5  10
HETATM   10  N1  UNL     1      45.830  27.385  41.948  1.00  0.00    -0.124 N 
HETATM   11  O1  UNL     1      44.776  27.569  41.342  1.00  0.00    -0.534 OA
HETATM   12  O2  UNL     1      45.777  27.257  43.328  1.00  0.00    -0.534 OA
ENDBRANCH   5  10
TORSDOF 3
ENDMDL
MODEL 2
REMARK VINA RESULT: -6.096386290      2.326      3.353
REMARK  3 active torsions:
REMARK  status: ('A' for Active; 'I' for Inactive)
REMARK    1  A    between atoms: C2_2  and  C3_3 
REMARK    2  A    between atoms: C3_3  and  C4_4 
REMARK    3  A    between atoms: C8_8  and  N1_9 
ROOT
HETATM    1  C4  UNL     1      49.640  24.351  41.037  1.00  0.00     0.128 C 
HETATM    2  C5  UNL     1      48.758  23.528  40.132  1.00  0.00     0.032 C 
HETATM    3  C6  UNL     1      47.872  24.573  39.437  1.00  0.00     0.007 C 
HETATM    4  C7  UNL     1      47.026  25.151  40.545  1.00  0.00     0.060 C 
HETATM    5  C8  UNL     1      47.760  25.514  41.764  1.00  0.00     0.291 C 
HETATM    6  O3  UNL     1      48.906  24.890  42.059  1.00  0.00    -0.355 OA
ENDROOT
BRANCH   1   7
HETATM    7  C3  UNL     1      50.824  23.584  41.542  1.00  0.00     0.058 C 
BRANCH   7   8
HETATM    8  C2  UNL     1      51.612  22.958  40.469  1.00  0.00    -0.034 C 
HETATM    9  C1  UNL     1      52.362  23.689  39.688  1.00  0.00     0.007 C 
ENDBRANCH   7   8
ENDBRANCH   1   7
BRANCH   5  10
HETATM   10  N1  UNL     1      48.045  26.960  41.691  1.00  0.00    -0.124 N 
HETATM   11  O1  UNL     1      48.876  27.509  42.412  1.00  0.00    -0.534 OA
HETATM   12  O2  UNL     1      47.354  27.741  40.777  1.00  0.00    -0.534 OA
ENDBRANCH   5  10
TORSDOF 3
ENDMDL
MODEL 3
REMARK VINA RESULT: -6.092218485      2.888      4.772
REMARK  3 active torsions:
REMARK  status: ('A' for Active; 'I' for Inactive)
REMARK    1  A    between atoms: C2_2  and  C3_3 
REMARK    2  A    between atoms: C3_3  and  C4_4 
REMARK    3  A    between atoms: C8_8  and  N1_9 
ROOT
HETATM    1  C4  UNL     1      47.725  25.640  41.577  1.00  0.00     0.128 C 
HETATM    2  C5  UNL     1      47.126  25.793  40.201  1.00  0.00     0.032 C 
HETATM    3  C6  UNL     1      47.584  24.527  39.460  1.00  0.00     0.007 C 
HETATM    4  C7  UNL     1      49.083  24.670  39.356  1.00  0.00     0.060 C 
HETATM    5  C8  UNL     1      49.758  25.071  40.597  1.00  0.00     0.291 C 
HETATM    6  O3  UNL     1      49.086  25.767  41.522  1.00  0.00    -0.355 OA
ENDROOT
BRANCH   1   7
HETATM    7  C3  UNL     1      47.114  26.573  42.578  1.00  0.00     0.058 C 
BRANCH   7   8
HETATM    8  C2  UNL     1      45.695  26.861  42.316  1.00  0.00    -0.034 C 
HETATM    9  C1  UNL     1      45.324  28.053  41.932  1.00  0.00     0.007 C 
ENDBRANCH   7   8
ENDBRANCH   1   7
BRANCH   5  10
HETATM   10  N1  UNL     1      50.261  23.843  41.241  1.00  0.00    -0.124 N 
HETATM   11  O1  UNL     1      50.196  23.656  42.455  1.00  0.00    -0.534 OA
HETATM   12  O2  UNL     1      50.833  22.853  40.456  1.00  0.00    -0.534 OA
ENDBRANCH   5  10
TORSDOF 3
ENDMDL
MODEL 4
REMARK VINA RESULT: -6.079816893      2.759      3.521
REMARK  3 active torsions:
REMARK  status: ('A' for Active; 'I' for Inactive)
REMARK    1  A    between atoms: C2_2  and  C3_3 
REMARK    2  A    between atoms: C3_3  and  C4_4 
REMARK    3  A    between atoms: C8_8  and  N1_9 
ROOT
HETATM    1  C4  UNL     1      50.433  24.313  40.950  1.00  0.00     0.128 C 
HETATM    2  C5  UNL     1      50.167  24.265  39.466  1.00  0.00     0.032 C 
HETATM    3  C6  UNL     1      49.488  25.612  39.174  1.00  0.00     0.007 C 
HETATM    4  C7  UNL     1      48.171  25.539  39.906  1.00  0.00     0.060 C 
HETATM    5  C8  UNL     1      48.252  25.051  41.289  1.00  0.00     0.291 C 
HETATM    6  O3  UNL     1      49.258  24.245  41.649  1.00  0.00    -0.355 OA
ENDROOT
BRANCH   1   7
HETATM    7  C3  UNL     1      51.410  23.267  41.395  1.00  0.00     0.058 C 
BRANCH   7   8
HETATM    8  C2  UNL     1      51.254  22.886  42.807  1.00  0.00    -0.034 C 
HETATM    9  C1  UNL     1      51.337  21.633  43.166  1.00  0.00     0.007 C 
ENDBRANCH   7   8
ENDBRANCH   1   7
BRANCH   5  10
HETATM   10  N1  UNL     1      48.288  26.232  42.171  1.00  0.00    -0.124 N 
HETATM   11  O1  UNL     1      48.761  26.197  43.306  1.00  0.00    -0.534 OA
HETATM   12  O2  UNL     1      47.771  27.435  41.714  1.00  0.00    -0.534 OA
ENDBRANCH   5  10
TORSDOF 3
ENDMDL
MODEL 5
REMARK VINA RESULT: -6.056432613      2.364      3.342
REMARK  3 active torsions:
REMARK  status: ('A' for Active; 'I' for Inactive)
REMARK    1  A    between atoms: C2_2  and  C3_3 
REMARK    2  A    between atoms: C3_3  and  C4_4 
REMARK    3  A    between atoms: C8_8  and  N1_9 
ROOT
HETATM    1  C4  UNL     1      49.807  24.326  40.894  1.00  0.00     0.128 C 
HETATM    2  C5  UNL     1      48.888  23.475  40.054  1.00  0.00     0.032 C 
HETATM    3  C6  UNL     1      47.908  24.488  39.442  1.00  0.00     0.007 C 
HETATM    4  C7  UNL     1      47.132  25.023  40.621  1.00  0.00     0.060 C 
HETATM    5  C8  UNL     1      47.946  25.407  41.781  1.00  0.00     0.291 C 
HETATM    6  O3  UNL     1      49.136  24.827  41.977  1.00  0.00    -0.355 OA
ENDROOT
BRANCH   1   7
HETATM    7  C3  UNL     1      51.057  23.604  41.294  1.00  0.00     0.058 C 
BRANCH   7   8
HETATM    8  C2  UNL     1      51.009  23.071  42.664  1.00  0.00    -0.034 C 
HETATM    9  C1  UNL     1      51.406  21.851  42.913  1.00  0.00     0.007 C 
ENDBRANCH   7   8
ENDBRANCH   1   7
BRANCH   5  10
HETATM   10  N1  UNL     1      48.167  26.863  41.701  1.00  0.00    -0.124 N 
HETATM   11  O1  UNL     1      48.979  27.451  42.413  1.00  0.00    -0.534 OA
HETATM   12  O2  UNL     1      47.435  27.610  40.790  1.00  0.00    -0.534 OA
ENDBRANCH   5  10
TORSDOF 3
ENDMDL
