MODEL 1
REMARK VINA RESULT: -5.448709684      0.000      0.000
REMARK  3 active torsions:
REMARK  status: ('A' for Active; 'I' for Inactive)
REMARK    1  A    between atoms: S1_3  and  C2_4 
REMARK    2  A    between atoms: C2_4  and  C3_5 
REMARK    3  A    between atoms: C3_5  and  N2_6 
ROOT
HETATM    1  N1  UNL     1      51.005  22.483  43.396  1.00  0.00    -0.184 NA
HETATM    2  C1  UNL     1      51.203  22.760  42.297  1.00  0.00     0.133 C 
HETATM    3  S1  UNL     1      51.494  23.156  40.569  1.00  0.00    -0.049 SA
ENDROOT
BRANCH   3   4
HETATM    4  C2  UNL     1      50.278  24.439  40.109  1.00  0.00     0.120 C 
BRANCH   4   5
HETATM    5  C3  UNL     1      48.863  23.919  40.360  1.00  0.00     0.283 C 
BRANCH   5   6
HETATM    6  N2  UNL     1      48.075  24.805  41.160  1.00  0.00     0.089 N 
HETATM    7  C4  UNL     1      47.277  25.621  40.248  1.00  0.00     0.272 C 
HETATM    8  C5  UNL     1      47.087  27.022  40.777  1.00  0.00     0.030 C 
HETATM    9  C6  UNL     1      46.765  26.887  42.259  1.00  0.00     0.003 C 
HETATM   10  C7  UNL     1      48.063  26.461  42.939  1.00  0.00     0.030 C 
HETATM   11  C8  UNL     1      48.917  25.649  41.979  1.00  0.00     0.272 C 
ENDBRANCH   5   6
ENDBRANCH   4   5
ENDBRANCH   3   4
TORSDOF 3
ENDMDL
MODEL 2
REMARK VINA RESULT: -5.399793997      2.562      3.377
REMARK  3 active torsions:
REMARK  status: ('A' for Active; 'I' for Inactive)
REMARK    1  A    between atoms: S1_3  and  C2_4 
REMARK    2  A    between atoms: C2_4  and  C3_5 
REMARK    3  A    between atoms: C3_5  and  N2_6 
ROOT
HETATM    1  N1  UNL     1      53.139  23.887  36.911  1.00  0.00    -0.184 NA
HETATM    2  C1  UNL     1      52.728  24.199  37.940  1.00  0.00     0.133 C 
HETATM    3  S1  UNL     1      52.050  24.697  39.528  1.00  0.00    -0.049 SA
ENDROOT
BRANCH   3   4
HETATM    4  C2  UNL     1      51.658  23.163  40.439  1.00  0.00     0.120 C 
BRANCH   4   5
HETATM    5  C3  UNL     1      50.457  23.401  41.353  1.00  0.00     0.283 C 
BRANCH   5   6
HETATM    6  N2  UNL     1      49.443  24.207  40.746  1.00  0.00     0.089 N 
HETATM    7  C4  UNL     1      49.034  25.206  41.729  1.00  0.00     0.272 C 
HETATM    8  C5  UNL     1      47.563  25.524  41.621  1.00  0.00     0.030 C 
HETATM    9  C6  UNL     1      47.254  25.654  40.136  1.00  0.00     0.003 C 
HETATM   10  C7  UNL     1      47.320  24.241  39.563  1.00  0.00     0.030 C 
HETATM   11  C8  UNL     1      48.309  23.399  40.353  1.00  0.00     0.272 C 
ENDBRANCH   5   6
ENDBRANCH   4   5
ENDBRANCH   3   4
TORSDOF 3
ENDMDL
MODEL 3
REMARK VINA RESULT: -5.358569595      2.187      2.485
REMARK  3 active torsions:
REMARK  status: ('A' for Active; 'I' for Inactive)
REMARK    1  A    between atoms: S1_3  and  C2_4 
REMARK    2  A    between atoms: C2_4  and  C3_5 
REMARK    3  A    between atoms: C3_5  and  N2_6 
ROOT
HETATM    1  N1  UNL     1      53.063  24.069  37.183  1.00  0.00    -0.184 NA
HETATM    2  C1  UNL     1      52.554  24.054  38.216  1.00  0.00     0.133 C 
HETATM    3  S1  UNL     1      51.789  24.058  39.841  1.00  0.00    -0.049 SA
ENDROOT
BRANCH   3   4
HETATM    4  C2  UNL     1      50.264  25.055  39.703  1.00  0.00     0.120 C 
BRANCH   4   5
HETATM    5  C3  UNL     1      49.063  24.219  40.142  1.00  0.00     0.283 C 
BRANCH   5   6
HETATM    6  N2  UNL     1      48.206  24.909  41.057  1.00  0.00     0.089 N 
HETATM    7  C4  UNL     1      47.197  25.609  40.267  1.00  0.00     0.272 C 
HETATM    8  C5  UNL     1      46.811  26.925  40.896  1.00  0.00     0.030 C 
HETATM    9  C6  UNL     1      46.654  26.664  42.388  1.00  0.00     0.003 C 
HETATM   10  C7  UNL     1      48.064  26.449  42.932  1.00  0.00     0.030 C 
HETATM   11  C8  UNL     1      48.957  25.852  41.857  1.00  0.00     0.272 C 
ENDBRANCH   5   6
ENDBRANCH   4   5
ENDBRANCH   3   4
TORSDOF 3
ENDMDL
MODEL 4
REMARK VINA RESULT: -5.343689950      2.474      3.088
REMARK  3 active torsions:
REMARK  status: ('A' for Active; 'I' for Inactive)
REMARK    1  A    between atoms: S1_3  and  C2_4 
REMARK    2  A    between atoms: C2_4  and  C3_5 
REMARK    3  A    between atoms: C3_5  and  N2_6 
ROOT
HETATM    1  N1  UNL     1      53.203  23.986  37.075  1.00  0.00    -0.184 NA
HETATM    2  C1  UNL     1      52.529  24.205  37.983  1.00  0.00     0.133 C 
HETATM    3  S1  UNL     1      51.506  24.577  39.412  1.00  0.00    -0.049 SA
ENDROOT
BRANCH   3   4
HETATM    4  C2  UNL     1      50.117  25.602  38.814  1.00  0.00     0.120 C 
BRANCH   4   5
HETATM    5  C3  UNL     1      48.820  25.150  39.483  1.00  0.00     0.283 C 
BRANCH   5   6
HETATM    6  N2  UNL     1      48.219  26.171  40.285  1.00  0.00     0.089 N 
HETATM    7  C4  UNL     1      48.923  26.193  41.564  1.00  0.00     0.272 C 
HETATM    8  C5  UNL     1      47.994  26.526  42.706  1.00  0.00     0.030 C 
HETATM    9  C6  UNL     1      47.114  27.674  42.230  1.00  0.00     0.003 C 
HETATM   10  C7  UNL     1      46.158  27.077  41.201  1.00  0.00     0.030 C 
HETATM   11  C8  UNL     1      46.812  25.902  40.494  1.00  0.00     0.272 C 
ENDBRANCH   5   6
ENDBRANCH   4   5
ENDBRANCH   3   4
TORSDOF 3
ENDMDL
MODEL 5
REMARK VINA RESULT: -5.329482658      2.516      2.943
REMARK  3 active torsions:
REMARK  status: ('A' for Active; 'I' for Inactive)
REMARK    1  A    between atoms: S1_3  and  C2_4 
REMARK    2  A    between atoms: C2_4  and  C3_5 
REMARK    3  A    between atoms: C3_5  and  N2_6 
ROOT
HETATM    1  N1  UNL     1      46.617  20.926  40.694  1.00  0.00    -0.184 NA
HETATM    2  C1  UNL     1      47.401  21.762  40.587  1.00  0.00     0.133 C 
HETATM    3  S1  UNL     1      48.646  23.043  40.391  1.00  0.00    -0.049 SA
ENDROOT
BRANCH   3   4
HETATM    4  C2  UNL     1      47.888  24.365  39.383  1.00  0.00     0.120 C 
BRANCH   4   5
HETATM    5  C3  UNL     1      48.617  25.684  39.634  1.00  0.00     0.283 C 
BRANCH   5   6
HETATM    6  N2  UNL     1      47.914  26.551  40.528  1.00  0.00     0.089 N 
HETATM    7  C4  UNL     1      48.620  26.525  41.806  1.00  0.00     0.272 C 
HETATM    8  C5  UNL     1      47.668  26.643  42.971  1.00  0.00     0.030 C 
HETATM    9  C6  UNL     1      46.666  27.730  42.605  1.00  0.00     0.003 C 
HETATM   10  C7  UNL     1      45.773  27.136  41.519  1.00  0.00     0.030 C 
HETATM   11  C8  UNL     1      46.546  26.113  40.704  1.00  0.00     0.272 C 
ENDBRANCH   5   6
ENDBRANCH   4   5
ENDBRANCH   3   4
TORSDOF 3
ENDMDL
