MODEL 1
REMARK VINA RESULT: -5.495505314      0.000      0.000
REMARK  3 active torsions:
REMARK  status: ('A' for Active; 'I' for Inactive)
REMARK    1  A    between atoms: N1_2  and  C1_4 
REMARK    2  A    between atoms: C1_4  and  C2_5 
REMARK    3  A    between atoms: C2_5  and  C3_6 
ROOT
HETATM    1  C1  UNL     1      48.904  24.178  40.485  1.00  0.00     0.099 A 
HETATM    2  C5  UNL     1      47.913  25.021  41.203  1.00  0.00     0.037 A 
HETATM    3  C6  UNL     1      47.887  25.972  40.034  1.00  0.00     0.005 A 
HETATM    4  C7  UNL     1      48.992  25.189  39.366  1.00  0.00     0.037 A 
ENDROOT
BRANCH   1   5
HETATM    5  N1  UNL     1      50.131  24.036  41.230  1.00  0.00    -0.145 N 
HETATM    6  O1  UNL     1      50.086  23.861  42.452  1.00  0.00    -0.536 OA
HETATM    7  O2  UNL     1      51.314  24.097  40.552  1.00  0.00    -0.536 OA
ENDBRANCH   1   5
BRANCH   1   8
HETATM    8  C2  UNL     1      48.430  22.820  40.030  1.00  0.00     0.071 C 
BRANCH   8   9
HETATM    9  C3  UNL     1      47.218  22.344  40.785  1.00  0.00     0.147 A 
HETATM   10  C4  UNL     1      46.670  21.022  40.345  1.00  0.00     0.200 A 
HETATM   11  O3  UNL     1      47.352  21.267  41.649  1.00  0.00    -0.381 OA
ENDBRANCH   8   9
ENDBRANCH   1   8
TORSDOF 3
ENDMDL
MODEL 2
REMARK VINA RESULT: -5.309926090      1.983      3.634
REMARK  3 active torsions:
REMARK  status: ('A' for Active; 'I' for Inactive)
REMARK    1  A    between atoms: N1_2  and  C1_4 
REMARK    2  A    between atoms: C1_4  and  C2_5 
REMARK    3  A    between atoms: C2_5  and  C3_6 
ROOT
HETATM    1  C1  UNL     1      49.461  24.001  40.530  1.00  0.00     0.099 A 
HETATM    2  C5  UNL     1      48.225  23.207  40.310  1.00  0.00     0.037 A 
HETATM    3  C6  UNL     1      47.694  24.297  39.414  1.00  0.00     0.005 A 
HETATM    4  C7  UNL     1      48.888  25.158  39.745  1.00  0.00     0.037 A 
ENDROOT
BRANCH   1   5
HETATM    5  N1  UNL     1      49.671  24.298  41.924  1.00  0.00    -0.145 N 
HETATM    6  O1  UNL     1      49.117  25.281  42.429  1.00  0.00    -0.536 OA
HETATM    7  O2  UNL     1      50.481  23.475  42.651  1.00  0.00    -0.536 OA
ENDBRANCH   1   5
BRANCH   1   8
HETATM    8  C2  UNL     1      50.733  23.446  39.935  1.00  0.00     0.071 C 
BRANCH   8   9
HETATM    9  C3  UNL     1      51.698  24.525  39.518  1.00  0.00     0.147 A 
HETATM   10  C4  UNL     1      52.990  24.037  38.942  1.00  0.00     0.200 A 
HETATM   11  O3  UNL     1      51.922  24.729  38.163  1.00  0.00    -0.381 OA
ENDBRANCH   8   9
ENDBRANCH   1   8
TORSDOF 3
ENDMDL
MODEL 3
REMARK VINA RESULT: -5.294594542      3.116      3.972
REMARK  3 active torsions:
REMARK  status: ('A' for Active; 'I' for Inactive)
REMARK    1  A    between atoms: N1_2  and  C1_4 
REMARK    2  A    between atoms: C1_4  and  C2_5 
REMARK    3  A    between atoms: C2_5  and  C3_6 
ROOT
HETATM    1  C1  UNL     1      46.702  27.260  41.385  1.00  0.00     0.099 A 
HETATM    2  C5  UNL     1      45.249  26.974  41.263  1.00  0.00     0.037 A 
HETATM    3  C6  UNL     1      45.015  28.395  40.817  1.00  0.00     0.005 A 
HETATM    4  C7  UNL     1      46.467  28.719  41.071  1.00  0.00     0.037 A 
ENDROOT
BRANCH   1   5
HETATM    5  N1  UNL     1      47.187  27.030  42.723  1.00  0.00    -0.145 N 
HETATM    6  O1  UNL     1      46.387  26.990  43.664  1.00  0.00    -0.536 OA
HETATM    7  O2  UNL     1      48.528  26.859  42.909  1.00  0.00    -0.536 OA
ENDBRANCH   1   5
BRANCH   1   8
HETATM    8  C2  UNL     1      47.610  26.573  40.395  1.00  0.00     0.071 C 
BRANCH   8   9
HETATM    9  C3  UNL     1      47.230  25.135  40.158  1.00  0.00     0.147 A 
HETATM   10  C4  UNL     1      48.374  24.209  39.885  1.00  0.00     0.200 A 
HETATM   11  O3  UNL     1      47.548  24.194  41.127  1.00  0.00    -0.381 OA
ENDBRANCH   8   9
ENDBRANCH   1   8
TORSDOF 3
ENDMDL
MODEL 4
REMARK VINA RESULT: -5.266693853      1.017      1.492
REMARK  3 active torsions:
REMARK  status: ('A' for Active; 'I' for Inactive)
REMARK    1  A    between atoms: N1_2  and  C1_4 
REMARK    2  A    between atoms: C1_4  and  C2_5 
REMARK    3  A    between atoms: C2_5  and  C3_6 
ROOT
HETATM    1  C1  UNL     1      49.298  24.179  40.489  1.00  0.00     0.099 A 
HETATM    2  C5  UNL     1      48.515  25.226  39.784  1.00  0.00     0.037 A 
HETATM    3  C6  UNL     1      49.700  25.504  38.895  1.00  0.00     0.005 A 
HETATM    4  C7  UNL     1      50.535  24.536  39.698  1.00  0.00     0.037 A 
ENDROOT
BRANCH   1   5
HETATM    5  N1  UNL     1      49.418  24.452  41.899  1.00  0.00    -0.145 N 
HETATM    6  O1  UNL     1      50.183  23.772  42.590  1.00  0.00    -0.536 OA
HETATM    7  O2  UNL     1      48.675  25.466  42.431  1.00  0.00    -0.536 OA
ENDBRANCH   1   5
BRANCH   1   8
HETATM    8  C2  UNL     1      48.850  22.752  40.288  1.00  0.00     0.071 C 
BRANCH   8   9
HETATM    9  C3  UNL     1      47.394  22.549  40.612  1.00  0.00     0.147 A 
HETATM   10  C4  UNL     1      46.810  21.252  40.143  1.00  0.00     0.200 A 
HETATM   11  O3  UNL     1      47.051  21.608  41.572  1.00  0.00    -0.381 OA
ENDBRANCH   8   9
ENDBRANCH   1   8
TORSDOF 3
ENDMDL
MODEL 5
REMARK VINA RESULT: -5.249872848      2.140      3.413
REMARK  3 active torsions:
REMARK  status: ('A' for Active; 'I' for Inactive)
REMARK    1  A    between atoms: N1_2  and  C1_4 
REMARK    2  A    between atoms: C1_4  and  C2_5 
REMARK    3  A    between atoms: C2_5  and  C3_6 
ROOT
HETATM    1  C1  UNL     1      48.248  24.840  40.836  1.00  0.00     0.099 A 
HETATM    2  C5  UNL     1      48.313  25.905  39.801  1.00  0.00     0.037 A 
HETATM    3  C6  UNL     1      47.522  26.818  40.703  1.00  0.00     0.005 A 
HETATM    4  C7  UNL     1      47.342  25.693  41.693  1.00  0.00     0.037 A 
ENDROOT
BRANCH   1   5
HETATM    5  N1  UNL     1      47.613  23.644  40.340  1.00  0.00    -0.145 N 
HETATM    6  O1  UNL     1      47.125  23.637  39.205  1.00  0.00    -0.536 OA
HETATM    7  O2  UNL     1      47.573  22.546  41.149  1.00  0.00    -0.536 OA
ENDBRANCH   1   5
BRANCH   1   8
HETATM    8  C2  UNL     1      49.547  24.478  41.513  1.00  0.00     0.071 C 
BRANCH   8   9
HETATM    9  C3  UNL     1      50.656  24.202  40.532  1.00  0.00     0.147 A 
HETATM   10  C4  UNL     1      51.794  23.389  41.067  1.00  0.00     0.200 A 
HETATM   11  O3  UNL     1      50.813  22.910  40.050  1.00  0.00    -0.381 OA
ENDBRANCH   8   9
ENDBRANCH   1   8
TORSDOF 3
ENDMDL
