MODEL 1
REMARK VINA RESULT: -5.438648724      0.000      0.000
REMARK  3 active torsions:
REMARK  status: ('A' for Active; 'I' for Inactive)
REMARK    1  A    between atoms: C1_2  and  C2_4 
REMARK    2  A    between atoms: C2_4  and  S1_5 
REMARK    3  A    between atoms: S1_5  and  C3_6 
ROOT
HETATM    1  C3  UNL     1      47.171  26.737  41.064  1.00  0.00     0.048 C 
HETATM    2  C4  UNL     1      45.691  26.730  40.896  1.00  0.00     0.015 C 
HETATM    3  C5  UNL     1      45.316  27.704  42.017  1.00  0.00     0.001 C 
HETATM    4  C6  UNL     1      46.144  27.151  43.161  1.00  0.00     0.001 C 
HETATM    5  C7  UNL     1      47.383  26.519  42.545  1.00  0.00     0.015 C 
ENDROOT
BRANCH   1   6
HETATM    6  S1  UNL     1      48.149  25.802  39.981  1.00  0.00    -0.154 SA
BRANCH   6   7
HETATM    7  C2  UNL     1      47.650  24.147  39.561  1.00  0.00     0.187 C 
BRANCH   7   8
HETATM    8  C1  UNL     1      48.113  23.160  40.571  1.00  0.00     0.182 C 
HETATM    9  O1  UNL     1      47.504  22.072  40.792  1.00  0.00    -0.647 OA
HETATM   10  O2  UNL     1      49.234  23.429  41.307  1.00  0.00    -0.647 OA
ENDBRANCH   7   8
ENDBRANCH   6   7
ENDBRANCH   1   6
TORSDOF 3
ENDMDL
MODEL 2
REMARK VINA RESULT: -5.371776282      1.309      1.991
REMARK  3 active torsions:
REMARK  status: ('A' for Active; 'I' for Inactive)
REMARK    1  A    between atoms: C1_2  and  C2_4 
REMARK    2  A    between atoms: C2_4  and  S1_5 
REMARK    3  A    between atoms: S1_5  and  C3_6 
ROOT
HETATM    1  C3  UNL     1      47.969  25.692  41.627  1.00  0.00     0.048 C 
HETATM    2  C4  UNL     1      48.028  26.536  42.855  1.00  0.00     0.015 C 
HETATM    3  C5  UNL     1      46.572  27.015  42.887  1.00  0.00     0.001 C 
HETATM    4  C6  UNL     1      46.385  27.447  41.446  1.00  0.00     0.001 C 
HETATM    5  C7  UNL     1      47.295  26.571  40.598  1.00  0.00     0.015 C 
ENDROOT
BRANCH   1   6
HETATM    6  S1  UNL     1      49.389  24.834  41.124  1.00  0.00    -0.154 SA
BRANCH   6   7
HETATM    7  C2  UNL     1      49.237  23.157  40.547  1.00  0.00     0.187 C 
BRANCH   7   8
HETATM    8  C1  UNL     1      47.819  22.780  40.318  1.00  0.00     0.182 C 
HETATM    9  O1  UNL     1      47.130  23.255  39.367  1.00  0.00    -0.647 OA
HETATM   10  O2  UNL     1      47.215  21.893  41.166  1.00  0.00    -0.647 OA
ENDBRANCH   7   8
ENDBRANCH   6   7
ENDBRANCH   1   6
TORSDOF 3
ENDMDL
MODEL 3
REMARK VINA RESULT: -5.360198882      2.233      3.010
REMARK  3 active torsions:
REMARK  status: ('A' for Active; 'I' for Inactive)
REMARK    1  A    between atoms: C1_2  and  C2_4 
REMARK    2  A    between atoms: C2_4  and  S1_5 
REMARK    3  A    between atoms: S1_5  and  C3_6 
ROOT
HETATM    1  C3  UNL     1      48.167  25.117  41.282  1.00  0.00     0.048 C 
HETATM    2  C4  UNL     1      48.729  25.934  42.395  1.00  0.00     0.015 C 
HETATM    3  C5  UNL     1      47.561  26.907  42.593  1.00  0.00     0.001 C 
HETATM    4  C6  UNL     1      47.287  27.316  41.159  1.00  0.00     0.001 C 
HETATM    5  C7  UNL     1      47.672  26.136  40.280  1.00  0.00     0.015 C 
ENDROOT
BRANCH   1   6
HETATM    6  S1  UNL     1      49.087  23.785  40.664  1.00  0.00    -0.154 SA
BRANCH   6   7
HETATM    7  C2  UNL     1      50.854  23.771  40.875  1.00  0.00     0.187 C 
BRANCH   7   8
HETATM    8  C1  UNL     1      51.267  22.893  41.999  1.00  0.00     0.182 C 
HETATM    9  O1  UNL     1      52.125  21.970  41.866  1.00  0.00    -0.647 OA
HETATM   10  O2  UNL     1      50.701  23.069  43.231  1.00  0.00    -0.647 OA
ENDBRANCH   7   8
ENDBRANCH   6   7
ENDBRANCH   1   6
TORSDOF 3
ENDMDL
MODEL 4
REMARK VINA RESULT: -5.311528015      2.274      2.753
REMARK  3 active torsions:
REMARK  status: ('A' for Active; 'I' for Inactive)
REMARK    1  A    between atoms: C1_2  and  C2_4 
REMARK    2  A    between atoms: C2_4  and  S1_5 
REMARK    3  A    between atoms: S1_5  and  C3_6 
ROOT
HETATM    1  C3  UNL     1      48.614  25.578  41.023  1.00  0.00     0.048 C 
HETATM    2  C4  UNL     1      47.256  25.944  40.529  1.00  0.00     0.015 C 
HETATM    3  C5  UNL     1      47.237  27.418  40.946  1.00  0.00     0.001 C 
HETATM    4  C6  UNL     1      47.731  27.314  42.375  1.00  0.00     0.001 C 
HETATM    5  C7  UNL     1      48.654  26.107  42.439  1.00  0.00     0.015 C 
ENDROOT
BRANCH   1   6
HETATM    6  S1  UNL     1      49.201  23.968  40.765  1.00  0.00    -0.154 SA
BRANCH   6   7
HETATM    7  C2  UNL     1      50.950  23.651  40.861  1.00  0.00     0.187 C 
BRANCH   7   8
HETATM    8  C1  UNL     1      51.298  22.856  42.067  1.00  0.00     0.182 C 
HETATM    9  O1  UNL     1      52.111  21.885  42.034  1.00  0.00    -0.647 OA
HETATM   10  O2  UNL     1      50.720  23.168  43.266  1.00  0.00    -0.647 OA
ENDBRANCH   7   8
ENDBRANCH   6   7
ENDBRANCH   1   6
TORSDOF 3
ENDMDL
MODEL 5
REMARK VINA RESULT: -5.251129261      1.712      1.968
REMARK  3 active torsions:
REMARK  status: ('A' for Active; 'I' for Inactive)
REMARK    1  A    between atoms: C1_2  and  C2_4 
REMARK    2  A    between atoms: C2_4  and  S1_5 
REMARK    3  A    between atoms: S1_5  and  C3_6 
ROOT
HETATM    1  C3  UNL     1      47.194  27.262  42.219  1.00  0.00     0.048 C 
HETATM    2  C4  UNL     1      47.155  27.908  40.876  1.00  0.00     0.015 C 
HETATM    3  C5  UNL     1      45.872  28.731  41.043  1.00  0.00     0.001 C 
HETATM    4  C6  UNL     1      44.939  27.685  41.621  1.00  0.00     0.001 C 
HETATM    5  C7  UNL     1      45.799  26.712  42.413  1.00  0.00     0.015 C 
ENDROOT
BRANCH   1   6
HETATM    6  S1  UNL     1      48.517  26.214  42.613  1.00  0.00    -0.154 SA
BRANCH   6   7
HETATM    7  C2  UNL     1      49.189  25.145  41.358  1.00  0.00     0.187 C 
BRANCH   7   8
HETATM    8  C1  UNL     1      48.127  24.357  40.681  1.00  0.00     0.182 C 
HETATM    9  O1  UNL     1      47.614  23.319  41.194  1.00  0.00    -0.647 OA
HETATM   10  O2  UNL     1      47.683  24.751  39.449  1.00  0.00    -0.647 OA
ENDBRANCH   7   8
ENDBRANCH   6   7
ENDBRANCH   1   6
TORSDOF 3
ENDMDL
