MODEL 1
REMARK VINA RESULT: -5.299742286      0.000      0.000
REMARK  2 active torsions:
REMARK  status: ('A' for Active; 'I' for Inactive)
REMARK    1  A    between atoms: N1_8  and  N2_9 
REMARK    2  A    between atoms: N2_9  and  O1_11 
ROOT
HETATM    1  C1  UNL     1      48.479  26.309  42.693  1.00  0.00     0.015 C 
HETATM    2  C2  UNL     1      48.616  25.426  41.884  1.00  0.00    -0.080 C 
HETATM    3  C3  UNL     1      48.775  24.365  40.880  1.00  0.00     0.243 C 
HETATM    4  S1  UNL     1      49.357  25.120  39.311  1.00  0.00    -0.130 SA
HETATM    5  C4  UNL     1      51.182  25.200  39.494  1.00  0.00     0.079 C 
HETATM    6  C5  UNL     1      51.661  23.787  39.665  1.00  0.00     0.032 C 
HETATM    7  C6  UNL     1      50.654  22.873  40.281  1.00  0.00     0.148 C 
HETATM    8  N1  UNL     1      49.860  23.505  41.319  1.00  0.00    -0.282 N 
ENDROOT
BRANCH   8   9
HETATM    9  N2  UNL     1      50.181  23.255  42.634  1.00  0.00    -0.210 N 
ATOM     10  H2  UNL     1      50.403  24.044  43.241  1.00  0.00     0.215 HD
BRANCH   9  11
HETATM   11  O1  UNL     1      50.211  22.095  43.120  1.00  0.00    -0.275 OA
ATOM     12  H1  UNL     1      50.615  21.898  43.956  1.00  0.00     0.246 HD
ENDBRANCH   9  11
ENDBRANCH   8   9
TORSDOF 2
ENDMDL
MODEL 2
REMARK VINA RESULT: -4.869789859      2.938      3.438
REMARK  2 active torsions:
REMARK  status: ('A' for Active; 'I' for Inactive)
REMARK    1  A    between atoms: N1_8  and  N2_9 
REMARK    2  A    between atoms: N2_9  and  O1_11 
ROOT
HETATM    1  C1  UNL     1      47.239  23.908  39.765  1.00  0.00     0.015 C 
HETATM    2  C2  UNL     1      48.333  24.144  40.213  1.00  0.00    -0.080 C 
HETATM    3  C3  UNL     1      49.662  24.416  40.777  1.00  0.00     0.243 C 
HETATM    4  S1  UNL     1      50.309  22.874  41.533  1.00  0.00    -0.130 SA
HETATM    5  C4  UNL     1      51.101  21.981  40.138  1.00  0.00     0.079 C 
HETATM    6  C5  UNL     1      52.194  22.870  39.621  1.00  0.00     0.032 C 
HETATM    7  C6  UNL     1      51.948  24.327  39.839  1.00  0.00     0.148 C 
HETATM    8  N1  UNL     1      50.557  24.708  39.672  1.00  0.00    -0.282 N 
ENDROOT
BRANCH   8   9
HETATM    9  N2  UNL     1      50.179  25.311  38.494  1.00  0.00    -0.210 N 
ATOM     10  H2  UNL     1      49.307  25.018  38.054  1.00  0.00     0.215 HD
BRANCH   9  11
HETATM   11  O1  UNL     1      50.863  26.207  37.936  1.00  0.00    -0.275 OA
ATOM     12  H1  UNL     1      50.520  26.763  37.247  1.00  0.00     0.246 HD
ENDBRANCH   9  11
ENDBRANCH   8   9
TORSDOF 2
ENDMDL
MODEL 3
REMARK VINA RESULT: -4.801561536      1.917      3.550
REMARK  2 active torsions:
REMARK  status: ('A' for Active; 'I' for Inactive)
REMARK    1  A    between atoms: N1_8  and  N2_9 
REMARK    2  A    between atoms: N2_9  and  O1_11 
ROOT
HETATM    1  C1  UNL     1      52.728  23.487  37.554  1.00  0.00     0.015 C 
HETATM    2  C2  UNL     1      52.313  23.887  38.613  1.00  0.00    -0.080 C 
HETATM    3  C3  UNL     1      51.801  24.395  39.892  1.00  0.00     0.243 C 
HETATM    4  S1  UNL     1      50.277  25.367  39.573  1.00  0.00    -0.130 SA
HETATM    5  C4  UNL     1      48.935  24.114  39.551  1.00  0.00     0.079 C 
HETATM    6  C5  UNL     1      48.929  23.463  40.904  1.00  0.00     0.032 C 
HETATM    7  C6  UNL     1      50.258  23.464  41.585  1.00  0.00     0.148 C 
HETATM    8  N1  UNL     1      51.371  23.252  40.678  1.00  0.00    -0.282 N 
ENDROOT
BRANCH   8   9
HETATM    9  N2  UNL     1      51.941  22.001  40.619  1.00  0.00    -0.210 N 
ATOM     10  H2  UNL     1      52.169  21.611  39.705  1.00  0.00     0.215 HD
BRANCH   9  11
HETATM   11  O1  UNL     1      52.192  21.317  41.645  1.00  0.00    -0.275 OA
ATOM     12  H1  UNL     1      51.527  20.822  42.109  1.00  0.00     0.246 HD
ENDBRANCH   9  11
ENDBRANCH   8   9
TORSDOF 2
ENDMDL
MODEL 4
REMARK VINA RESULT: -4.649046282      1.026      3.174
REMARK  2 active torsions:
REMARK  status: ('A' for Active; 'I' for Inactive)
REMARK    1  A    between atoms: N1_8  and  N2_9 
REMARK    2  A    between atoms: N2_9  and  O1_11 
ROOT
HETATM    1  C1  UNL     1      51.200  21.730  39.661  1.00  0.00     0.015 C 
HETATM    2  C2  UNL     1      50.966  22.848  40.047  1.00  0.00    -0.080 C 
HETATM    3  C3  UNL     1      50.682  24.218  40.494  1.00  0.00     0.243 C 
HETATM    4  S1  UNL     1      49.665  25.057  39.216  1.00  0.00    -0.130 SA
HETATM    5  C4  UNL     1      47.939  24.582  39.624  1.00  0.00     0.079 C 
HETATM    6  C5  UNL     1      47.664  25.098  41.006  1.00  0.00     0.032 C 
HETATM    7  C6  UNL     1      48.880  25.209  41.868  1.00  0.00     0.148 C 
HETATM    8  N1  UNL     1      49.829  24.130  41.666  1.00  0.00    -0.282 N 
ENDROOT
BRANCH   8   9
HETATM    9  N2  UNL     1      49.862  23.105  42.584  1.00  0.00    -0.210 N 
ATOM     10  H2  UNL     1      49.360  22.243  42.372  1.00  0.00     0.215 HD
BRANCH   9  11
HETATM   11  O1  UNL     1      50.484  23.186  43.675  1.00  0.00    -0.275 OA
ATOM     12  H1  UNL     1      50.531  22.467  44.295  1.00  0.00     0.246 HD
ENDBRANCH   9  11
ENDBRANCH   8   9
TORSDOF 2
ENDMDL
MODEL 5
REMARK VINA RESULT: -4.588430014      2.599      3.925
REMARK  2 active torsions:
REMARK  status: ('A' for Active; 'I' for Inactive)
REMARK    1  A    between atoms: N1_8  and  N2_9 
REMARK    2  A    between atoms: N2_9  and  O1_11 
ROOT
HETATM    1  C1  UNL     1      47.071  23.471  39.373  1.00  0.00     0.015 C 
HETATM    2  C2  UNL     1      47.490  24.509  39.818  1.00  0.00    -0.080 C 
HETATM    3  C3  UNL     1      47.982  25.787  40.350  1.00  0.00     0.243 C 
HETATM    4  S1  UNL     1      46.543  26.820  40.830  1.00  0.00    -0.130 SA
HETATM    5  C4  UNL     1      46.145  26.279  42.539  1.00  0.00     0.079 C 
HETATM    6  C5  UNL     1      47.359  26.561  43.375  1.00  0.00     0.032 C 
HETATM    7  C6  UNL     1      48.643  26.534  42.613  1.00  0.00     0.148 C 
HETATM    8  N1  UNL     1      48.684  25.505  41.590  1.00  0.00    -0.282 N 
ENDROOT
BRANCH   8   9
HETATM    9  N2  UNL     1      49.374  24.344  41.854  1.00  0.00    -0.210 N 
ATOM     10  H2  UNL     1      49.581  23.712  41.081  1.00  0.00     0.215 HD
BRANCH   9  11
HETATM   11  O1  UNL     1      49.762  24.029  43.009  1.00  0.00    -0.275 OA
ATOM     12  H1  UNL     1      50.678  23.909  43.229  1.00  0.00     0.246 HD
ENDBRANCH   9  11
ENDBRANCH   8   9
TORSDOF 2
ENDMDL
