MODEL 1
REMARK VINA RESULT: -5.414180599      0.000      0.000
REMARK  2 active torsions:
REMARK  status: ('A' for Active; 'I' for Inactive)
REMARK    1  A    between atoms: C2_3  and  C3_4 
REMARK    2  A    between atoms: C3_4  and  C4_5 
ROOT
HETATM    1  N1  UNL     1      50.516  22.643  44.099  1.00  0.00    -0.197 NA
HETATM    2  C1  UNL     1      51.072  22.142  43.207  1.00  0.00     0.059 C 
HETATM    3  C2  UNL     1      51.766  21.544  42.091  1.00  0.00     0.127 C 
ENDROOT
BRANCH   3   4
HETATM    4  C3  UNL     1      51.139  21.846  40.759  1.00  0.00     0.057 C 
BRANCH   4   5
HETATM    5  C4  UNL     1      50.811  23.284  40.556  1.00  0.00     0.183 C 
HETATM    6  O1  UNL     1      51.402  23.698  39.362  1.00  0.00    -0.376 OA
HETATM    7  C5  UNL     1      51.307  25.044  39.153  1.00  0.00     0.170 C 
HETATM    8  C6  UNL     1      49.972  25.502  38.634  1.00  0.00     0.036 C 
HETATM    9  C7  UNL     1      48.824  25.155  39.514  1.00  0.00     0.078 C 
HETATM   10  S1  UNL     1      49.037  23.588  40.393  1.00  0.00    -0.137 SA
ENDBRANCH   4   5
ENDBRANCH   3   4
TORSDOF 2
ENDMDL
MODEL 2
REMARK VINA RESULT: -5.183988043      2.537      4.278
REMARK  2 active torsions:
REMARK  status: ('A' for Active; 'I' for Inactive)
REMARK    1  A    between atoms: C2_3  and  C3_4 
REMARK    2  A    between atoms: C3_4  and  C4_5 
ROOT
HETATM    1  N1  UNL     1      46.529  26.370  42.466  1.00  0.00    -0.197 NA
HETATM    2  C1  UNL     1      46.811  25.815  41.482  1.00  0.00     0.059 C 
HETATM    3  C2  UNL     1      47.183  25.117  40.274  1.00  0.00     0.127 C 
ENDROOT
BRANCH   3   4
HETATM    4  C3  UNL     1      48.539  25.498  39.750  1.00  0.00     0.057 C 
BRANCH   4   5
HETATM    5  C4  UNL     1      49.654  24.688  40.311  1.00  0.00     0.183 C 
HETATM    6  O1  UNL     1      49.222  23.364  40.406  1.00  0.00    -0.376 OA
HETATM    7  C5  UNL     1      50.107  22.556  41.061  1.00  0.00     0.170 C 
HETATM    8  C6  UNL     1      51.271  22.100  40.227  1.00  0.00     0.036 C 
HETATM    9  C7  UNL     1      52.089  23.207  39.664  1.00  0.00     0.078 C 
HETATM   10  S1  UNL     1      51.122  24.683  39.258  1.00  0.00    -0.137 SA
ENDBRANCH   4   5
ENDBRANCH   3   4
TORSDOF 2
ENDMDL
MODEL 3
REMARK VINA RESULT: -5.165634127      1.713      2.166
REMARK  2 active torsions:
REMARK  status: ('A' for Active; 'I' for Inactive)
REMARK    1  A    between atoms: C2_3  and  C3_4 
REMARK    2  A    between atoms: C3_4  and  C4_5 
ROOT
HETATM    1  N1  UNL     1      50.564  22.453  44.299  1.00  0.00    -0.197 NA
HETATM    2  C1  UNL     1      50.970  22.643  43.225  1.00  0.00     0.059 C 
HETATM    3  C2  UNL     1      51.451  22.887  41.885  1.00  0.00     0.127 C 
ENDROOT
BRANCH   3   4
HETATM    4  C3  UNL     1      50.731  22.093  40.832  1.00  0.00     0.057 C 
BRANCH   4   5
HETATM    5  C4  UNL     1      49.711  22.872  40.078  1.00  0.00     0.183 C 
HETATM    6  O1  UNL     1      48.485  22.723  40.728  1.00  0.00    -0.376 OA
HETATM    7  C5  UNL     1      47.439  23.260  40.034  1.00  0.00     0.170 C 
HETATM    8  C6  UNL     1      47.308  24.753  40.160  1.00  0.00     0.036 C 
HETATM    9  C7  UNL     1      48.509  25.510  39.716  1.00  0.00     0.078 C 
HETATM   10  S1  UNL     1      50.066  24.643  40.033  1.00  0.00    -0.137 SA
ENDBRANCH   4   5
ENDBRANCH   3   4
TORSDOF 2
ENDMDL
MODEL 4
REMARK VINA RESULT: -5.150224303      3.137      3.703
REMARK  2 active torsions:
REMARK  status: ('A' for Active; 'I' for Inactive)
REMARK    1  A    between atoms: C2_3  and  C3_4 
REMARK    2  A    between atoms: C3_4  and  C4_5 
ROOT
HETATM    1  N1  UNL     1      52.902  23.926  36.988  1.00  0.00    -0.197 NA
HETATM    2  C1  UNL     1      52.580  23.570  38.049  1.00  0.00     0.059 C 
HETATM    3  C2  UNL     1      52.159  23.138  39.361  1.00  0.00     0.127 C 
ENDROOT
BRANCH   3   4
HETATM    4  C3  UNL     1      51.768  24.269  40.271  1.00  0.00     0.057 C 
BRANCH   4   5
HETATM    5  C4  UNL     1      50.308  24.344  40.551  1.00  0.00     0.183 C 
HETATM    6  O1  UNL     1      49.700  25.027  39.497  1.00  0.00    -0.376 OA
HETATM    7  C5  UNL     1      48.381  25.301  39.723  1.00  0.00     0.170 C 
HETATM    8  C6  UNL     1      47.454  24.142  39.487  1.00  0.00     0.036 C 
HETATM    9  C7  UNL     1      47.756  22.941  40.312  1.00  0.00     0.078 C 
HETATM   10  S1  UNL     1      49.522  22.720  40.642  1.00  0.00    -0.137 SA
ENDBRANCH   4   5
ENDBRANCH   3   4
TORSDOF 2
ENDMDL
MODEL 5
REMARK VINA RESULT: -5.123415042      1.322      1.440
REMARK  2 active torsions:
REMARK  status: ('A' for Active; 'I' for Inactive)
REMARK    1  A    between atoms: C2_3  and  C3_4 
REMARK    2  A    between atoms: C3_4  and  C4_5 
ROOT
HETATM    1  N1  UNL     1      50.645  22.451  43.983  1.00  0.00    -0.197 NA
HETATM    2  C1  UNL     1      51.047  22.109  42.945  1.00  0.00     0.059 C 
HETATM    3  C2  UNL     1      51.546  21.711  41.650  1.00  0.00     0.127 C 
ENDROOT
BRANCH   3   4
HETATM    4  C3  UNL     1      50.633  22.076  40.513  1.00  0.00     0.057 C 
BRANCH   4   5
HETATM    5  C4  UNL     1      49.673  23.167  40.835  1.00  0.00     0.183 C 
HETATM    6  O1  UNL     1      50.147  24.346  40.257  1.00  0.00    -0.376 OA
HETATM    7  C5  UNL     1      49.432  25.450  40.624  1.00  0.00     0.170 C 
HETATM    8  C6  UNL     1      48.135  25.627  39.885  1.00  0.00     0.036 C 
HETATM    9  C7  UNL     1      47.194  24.483  40.021  1.00  0.00     0.078 C 
HETATM   10  S1  UNL     1      48.023  22.880  40.155  1.00  0.00    -0.137 SA
ENDBRANCH   4   5
ENDBRANCH   3   4
TORSDOF 2
ENDMDL
