MODEL 1
REMARK VINA RESULT: -6.967437015      0.000      0.000
REMARK  4 active torsions:
REMARK  status: ('A' for Active; 'I' for Inactive)
REMARK    1  A    between atoms: C6_8  and  N2_9 
REMARK       I    between atoms: N2_9  and  C7_11 
REMARK    2  A    between atoms: N4_13  and  S1_15 
REMARK    3  A    between atoms: S1_15  and  C8_18 
REMARK    4  A    between atoms: C8_18  and  C9_19 
ROOT
HETATM    1  N2  UNL     1      20.156  -2.735  25.894  1.00  0.00    -0.163 N 
ATOM      2  H2  UNL     1      20.048  -2.068  26.658  1.00  0.00     0.187 HD
HETATM    3  C7  UNL     1      20.945  -3.901  26.063  1.00  0.00     0.216 C 
HETATM    4  N3  UNL     1      20.345  -5.169  26.367  1.00  0.00    -0.062 NA
HETATM    5  N4  UNL     1      22.222  -3.806  25.938  1.00  0.00    -0.257 N 
ATOM      6  H4  UNL     1      22.800  -4.637  26.057  1.00  0.00     0.181 HD
ENDROOT
BRANCH   1   7
HETATM    7  C6  UNL     1      19.582  -2.535  24.767  1.00  0.00     0.685 A 
HETATM    8  N1  UNL     1      19.894  -3.293  23.712  1.00  0.00    -0.196 N 
HETATM    9  C4  UNL     1      19.336  -3.144  22.500  1.00  0.00     0.024 A 
ATOM     10  H1  UNL     1      20.593  -4.025  23.834  1.00  0.00     0.184 HD
HETATM   11  C3  UNL     1      18.399  -2.170  22.320  1.00  0.00     0.050 A 
HETATM   12  C5  UNL     1      19.757  -4.043  21.395  1.00  0.00     0.068 C 
HETATM   13  C2  UNL     1      18.055  -1.364  23.405  1.00  0.00     0.024 A 
HETATM   14  C1  UNL     1      17.030  -0.299  23.203  1.00  0.00     0.068 C 
HETATM   15  N5  UNL     1      18.662  -1.580  24.586  1.00  0.00    -0.196 N 
ATOM     16  H5  UNL     1      18.410  -0.991  25.379  1.00  0.00     0.184 HD
ENDBRANCH   1   7
BRANCH   5  17
HETATM   17  S1  UNL     1      22.972  -2.295  25.575  1.00  0.00     0.233 S 
HETATM   18  O1  UNL     1      22.489  -1.775  24.286  1.00  0.00    -0.206 OA
HETATM   19  O2  UNL     1      22.537  -1.334  26.656  1.00  0.00    -0.206 OA
BRANCH  17  20
HETATM   20  C8  UNL     1      24.715  -2.520  25.661  1.00  0.00     0.167 C 
BRANCH  20  21
HETATM   21  C9  UNL     1      25.447  -2.133  24.425  1.00  0.00    -0.007 C 
HETATM   22  C10 UNL     1      26.627  -3.083  24.192  1.00  0.00     0.010 C 
HETATM   23  C11 UNL     1      25.895  -0.713  24.376  1.00  0.00     0.010 C 
ENDBRANCH  20  21
ENDBRANCH  17  20
ENDBRANCH   5  17
TORSDOF 4
ENDMDL
MODEL 2
REMARK VINA RESULT: -6.945748463      0.072      1.935
REMARK  4 active torsions:
REMARK  status: ('A' for Active; 'I' for Inactive)
REMARK    1  A    between atoms: C6_8  and  N2_9 
REMARK       I    between atoms: N2_9  and  C7_11 
REMARK    2  A    between atoms: N4_13  and  S1_15 
REMARK    3  A    between atoms: S1_15  and  C8_18 
REMARK    4  A    between atoms: C8_18  and  C9_19 
ROOT
HETATM    1  N2  UNL     1      20.155  -2.736  25.826  1.00  0.00    -0.163 N 
ATOM      2  H2  UNL     1      20.020  -2.051  26.569  1.00  0.00     0.187 HD
HETATM    3  C7  UNL     1      20.949  -3.890  26.045  1.00  0.00     0.216 C 
HETATM    4  N3  UNL     1      20.351  -5.155  26.365  1.00  0.00    -0.062 NA
HETATM    5  N4  UNL     1      22.227  -3.786  25.954  1.00  0.00    -0.257 N 
ATOM      6  H4  UNL     1      22.809  -4.609  26.109  1.00  0.00     0.181 HD
ENDROOT
BRANCH   1   7
HETATM    7  C6  UNL     1      19.610  -2.569  24.678  1.00  0.00     0.685 A 
HETATM    8  N1  UNL     1      18.697  -1.609  24.503  1.00  0.00    -0.196 N 
HETATM    9  C4  UNL     1      18.083  -1.374  23.333  1.00  0.00     0.024 A 
ATOM     10  H1  UNL     1      18.454  -1.024  25.302  1.00  0.00     0.184 HD
HETATM   11  C3  UNL     1      18.397  -2.148  22.256  1.00  0.00     0.050 A 
HETATM   12  C5  UNL     1      17.082  -0.279  23.250  1.00  0.00     0.068 C 
HETATM   13  C2  UNL     1      19.346  -3.157  22.410  1.00  0.00     0.024 A 
HETATM   14  C1  UNL     1      19.686  -4.002  21.229  1.00  0.00     0.068 C 
HETATM   15  N5  UNL     1      19.915  -3.327  23.618  1.00  0.00    -0.196 N 
ATOM     16  H5  UNL     1      20.610  -4.065  23.731  1.00  0.00     0.184 HD
ENDBRANCH   1   7
BRANCH   5  17
HETATM   17  S1  UNL     1      22.975  -2.278  25.573  1.00  0.00     0.233 S 
HETATM   18  O1  UNL     1      22.486  -1.771  24.281  1.00  0.00    -0.206 OA
HETATM   19  O2  UNL     1      22.544  -1.307  26.646  1.00  0.00    -0.206 OA
BRANCH  17  20
HETATM   20  C8  UNL     1      24.718  -2.501  25.653  1.00  0.00     0.167 C 
BRANCH  20  21
HETATM   21  C9  UNL     1      25.447  -2.101  24.420  1.00  0.00    -0.007 C 
HETATM   22  C10 UNL     1      26.635  -3.040  24.181  1.00  0.00     0.010 C 
HETATM   23  C11 UNL     1      25.884  -0.678  24.378  1.00  0.00     0.010 C 
ENDBRANCH  20  21
ENDBRANCH  17  20
ENDBRANCH   5  17
TORSDOF 4
ENDMDL
MODEL 3
REMARK VINA RESULT: -6.603845879      1.196      2.423
REMARK  4 active torsions:
REMARK  status: ('A' for Active; 'I' for Inactive)
REMARK    1  A    between atoms: C6_8  and  N2_9 
REMARK       I    between atoms: N2_9  and  C7_11 
REMARK    2  A    between atoms: N4_13  and  S1_15 
REMARK    3  A    between atoms: S1_15  and  C8_18 
REMARK    4  A    between atoms: C8_18  and  C9_19 
ROOT
HETATM    1  N2  UNL     1      19.842  -1.567  25.328  1.00  0.00    -0.163 N 
ATOM      2  H2  UNL     1      19.728  -0.816  26.009  1.00  0.00     0.187 HD
HETATM    3  C7  UNL     1      20.719  -2.650  25.589  1.00  0.00     0.216 C 
HETATM    4  N3  UNL     1      20.227  -3.904  26.084  1.00  0.00    -0.062 NA
HETATM    5  N4  UNL     1      21.977  -2.490  25.374  1.00  0.00    -0.257 N 
ATOM      6  H4  UNL     1      22.619  -3.261  25.558  1.00  0.00     0.181 HD
ENDROOT
BRANCH   1   7
HETATM    7  C6  UNL     1      19.194  -1.549  24.223  1.00  0.00     0.685 A 
HETATM    8  N1  UNL     1      18.143  -0.737  24.076  1.00  0.00    -0.196 N 
HETATM    9  C4  UNL     1      17.416  -0.661  22.950  1.00  0.00     0.024 A 
ATOM     10  H1  UNL     1      17.880  -0.142  24.861  1.00  0.00     0.184 HD
HETATM   11  C3  UNL     1      17.755  -1.449  21.891  1.00  0.00     0.050 A 
HETATM   12  C5  UNL     1      16.265   0.278  22.895  1.00  0.00     0.068 C 
HETATM   13  C2  UNL     1      18.847  -2.307  22.017  1.00  0.00     0.024 A 
HETATM   14  C1  UNL     1      19.214  -3.168  20.856  1.00  0.00     0.068 C 
HETATM   15  N5  UNL     1      19.523  -2.321  23.181  1.00  0.00    -0.196 N 
ATOM     16  H5  UNL     1      20.323  -2.948  23.273  1.00  0.00     0.184 HD
ENDBRANCH   1   7
BRANCH   5  17
HETATM   17  S1  UNL     1      22.598  -0.994  24.781  1.00  0.00     0.233 S 
HETATM   18  O1  UNL     1      21.990  -0.661  23.483  1.00  0.00    -0.206 OA
HETATM   19  O2  UNL     1      22.180   0.064  25.775  1.00  0.00    -0.206 OA
BRANCH  17  20
HETATM   20  C8  UNL     1      24.354  -1.107  24.753  1.00  0.00     0.167 C 
BRANCH  20  21
HETATM   21  C9  UNL     1      24.888  -2.464  25.047  1.00  0.00    -0.007 C 
HETATM   22  C10 UNL     1      25.358  -2.541  26.504  1.00  0.00     0.010 C 
HETATM   23  C11 UNL     1      25.955  -2.937  24.122  1.00  0.00     0.010 C 
ENDBRANCH  20  21
ENDBRANCH  17  20
ENDBRANCH   5  17
TORSDOF 4
ENDMDL
MODEL 4
REMARK VINA RESULT: -6.568962190      1.193      1.459
REMARK  4 active torsions:
REMARK  status: ('A' for Active; 'I' for Inactive)
REMARK    1  A    between atoms: C6_8  and  N2_9 
REMARK       I    between atoms: N2_9  and  C7_11 
REMARK    2  A    between atoms: N4_13  and  S1_15 
REMARK    3  A    between atoms: S1_15  and  C8_18 
REMARK    4  A    between atoms: C8_18  and  C9_19 
ROOT
HETATM    1  N2  UNL     1      19.863  -1.558  25.340  1.00  0.00    -0.163 N 
ATOM      2  H2  UNL     1      19.760  -0.819  26.035  1.00  0.00     0.187 HD
HETATM    3  C7  UNL     1      20.742  -2.646  25.569  1.00  0.00     0.216 C 
HETATM    4  N3  UNL     1      20.255  -3.908  26.049  1.00  0.00    -0.062 NA
HETATM    5  N4  UNL     1      21.997  -2.484  25.340  1.00  0.00    -0.257 N 
ATOM      6  H4  UNL     1      22.640  -3.259  25.501  1.00  0.00     0.181 HD
ENDROOT
BRANCH   1   7
HETATM    7  C6  UNL     1      19.200  -1.519  24.244  1.00  0.00     0.685 A 
HETATM    8  N1  UNL     1      19.550  -2.304  23.221  1.00  0.00    -0.196 N 
HETATM    9  C4  UNL     1      18.905  -2.320  22.044  1.00  0.00     0.024 A 
ATOM     10  H1  UNL     1      20.350  -2.925  23.342  1.00  0.00     0.184 HD
HETATM   11  C3  UNL     1      17.834  -1.495  21.866  1.00  0.00     0.050 A 
HETATM   12  C5  UNL     1      19.380  -3.233  20.972  1.00  0.00     0.068 C 
HETATM   13  C2  UNL     1      17.447  -0.665  22.918  1.00  0.00     0.024 A 
HETATM   14  C1  UNL     1      16.275   0.236  22.719  1.00  0.00     0.068 C 
HETATM   15  N5  UNL     1      18.148  -0.711  24.066  1.00  0.00    -0.196 N 
ATOM     16  H5  UNL     1      17.865  -0.104  24.835  1.00  0.00     0.184 HD
ENDBRANCH   1   7
BRANCH   5  17
HETATM   17  S1  UNL     1      22.612  -0.978  24.765  1.00  0.00     0.233 S 
HETATM   18  O1  UNL     1      22.007  -0.635  23.467  1.00  0.00    -0.206 OA
HETATM   19  O2  UNL     1      22.183   0.068  25.768  1.00  0.00    -0.206 OA
BRANCH  17  20
HETATM   20  C8  UNL     1      24.368  -1.080  24.744  1.00  0.00     0.167 C 
BRANCH  20  21
HETATM   21  C9  UNL     1      24.910  -2.430  25.058  1.00  0.00    -0.007 C 
HETATM   22  C10 UNL     1      25.361  -2.490  26.522  1.00  0.00     0.010 C 
HETATM   23  C11 UNL     1      25.993  -2.902  24.152  1.00  0.00     0.010 C 
ENDBRANCH  20  21
ENDBRANCH  17  20
ENDBRANCH   5  17
TORSDOF 4
ENDMDL
MODEL 5
REMARK VINA RESULT: -6.549973078      3.010      6.837
REMARK  4 active torsions:
REMARK  status: ('A' for Active; 'I' for Inactive)
REMARK    1  A    between atoms: C6_8  and  N2_9 
REMARK       I    between atoms: N2_9  and  C7_11 
REMARK    2  A    between atoms: N4_13  and  S1_15 
REMARK    3  A    between atoms: S1_15  and  C8_18 
REMARK    4  A    between atoms: C8_18  and  C9_19 
ROOT
HETATM    1  N2  UNL     1      25.615  -2.669  25.269  1.00  0.00    -0.163 N 
ATOM      2  H2  UNL     1      25.535  -2.873  26.265  1.00  0.00     0.187 HD
HETATM    3  C7  UNL     1      25.062  -1.479  24.732  1.00  0.00     0.216 C 
HETATM    4  N3  UNL     1      25.879  -0.325  24.484  1.00  0.00    -0.062 NA
HETATM    5  N4  UNL     1      23.804  -1.447  24.468  1.00  0.00    -0.257 N 
ATOM      6  H4  UNL     1      23.395  -0.597  24.081  1.00  0.00     0.181 HD
ENDROOT
BRANCH   1   7
HETATM    7  C6  UNL     1      26.216  -3.482  24.482  1.00  0.00     0.685 A 
HETATM    8  N1  UNL     1      27.519  -3.329  24.229  1.00  0.00    -0.196 N 
HETATM    9  C4  UNL     1      28.216  -4.139  23.417  1.00  0.00     0.024 A 
ATOM     10  H1  UNL     1      28.010  -2.555  24.676  1.00  0.00     0.184 HD
HETATM   11  C3  UNL     1      27.575  -5.177  22.811  1.00  0.00     0.050 A 
HETATM   12  C5  UNL     1      29.663  -3.877  23.205  1.00  0.00     0.068 C 
HETATM   13  C2  UNL     1      26.215  -5.360  23.057  1.00  0.00     0.024 A 
HETATM   14  C1  UNL     1      25.516  -6.498  22.391  1.00  0.00     0.068 C 
HETATM   15  N5  UNL     1      25.590  -4.502  23.885  1.00  0.00    -0.196 N 
ATOM     16  H5  UNL     1      24.595  -4.636  24.066  1.00  0.00     0.184 HD
ENDBRANCH   1   7
BRANCH   5  17
HETATM   17  S1  UNL     1      22.797  -2.817  24.758  1.00  0.00     0.233 S 
HETATM   18  O1  UNL     1      23.117  -3.902  23.816  1.00  0.00    -0.206 OA
HETATM   19  O2  UNL     1      23.125  -3.300  26.151  1.00  0.00    -0.206 OA
BRANCH  17  20
HETATM   20  C8  UNL     1      21.122  -2.281  24.706  1.00  0.00     0.167 C 
BRANCH  20  21
HETATM   21  C9  UNL     1      20.859  -1.176  23.744  1.00  0.00    -0.007 C 
HETATM   22  C10 UNL     1      20.244   0.023  24.475  1.00  0.00     0.010 C 
HETATM   23  C11 UNL     1      20.037  -1.551  22.561  1.00  0.00     0.010 C 
ENDBRANCH  20  21
ENDBRANCH  17  20
ENDBRANCH   5  17
TORSDOF 4
ENDMDL
