MODEL 1
REMARK VINA RESULT: -6.722649993      0.000      0.000
REMARK  4 active torsions:
REMARK  status: ('A' for Active; 'I' for Inactive)
REMARK    1  A    between atoms: N2_8  and  C5_9 
REMARK    2  A    between atoms: C5_9  and  C6_10 
REMARK    3  A    between atoms: C6_10  and  N3_11 
REMARK    4  A    between atoms: N4_14  and  C9_15 
ROOT
HETATM    1  N3  UNL     1      21.645  -3.233  25.750  1.00  0.00    -0.215 N 
HETATM    2  C7  UNL     1      22.002  -4.399  24.967  1.00  0.00     0.161 C 
HETATM    3  C8  UNL     1      23.121  -3.875  24.116  1.00  0.00     0.162 C 
HETATM    4  N4  UNL     1      23.832  -2.959  24.980  1.00  0.00    -0.208 N 
HETATM    5  C13 UNL     1      22.863  -2.529  25.961  1.00  0.00     0.672 C 
HETATM    6  N5  UNL     1      23.045  -1.660  26.880  1.00  0.00    -0.235 N 
ATOM      7  H51 UNL     1      23.919  -1.155  27.032  1.00  0.00     0.174 HD
ATOM      8  H52 UNL     1      22.362  -1.356  27.573  1.00  0.00     0.174 HD
ENDROOT
BRANCH   1   9
HETATM    9  C6  UNL     1      20.337  -2.844  26.231  1.00  0.00     0.161 C 
BRANCH   9  10
HETATM   10  C5  UNL     1      19.892  -1.513  25.617  1.00  0.00     0.157 C 
BRANCH  10  11
HETATM   11  N2  UNL     1      19.894  -1.747  24.171  1.00  0.00    -0.266 N 
HETATM   12  C4  UNL     1      20.794  -1.131  23.265  1.00  0.00     0.326 C 
HETATM   13  N1  UNL     1      20.499  -1.604  21.967  1.00  0.00    -0.325 N 
HETATM   14  O1  UNL     1      21.708  -0.294  23.602  1.00  0.00    -0.247 OA
HETATM   15  C2  UNL     1      19.241  -2.308  21.998  1.00  0.00     0.108 C 
ATOM     16  H1  UNL     1      21.082  -1.470  21.141  1.00  0.00     0.165 HD
HETATM   17  C1  UNL     1      18.182  -1.330  21.472  1.00  0.00     0.049 C 
HETATM   18  C3  UNL     1      19.272  -3.558  21.150  1.00  0.00     0.049 C 
HETATM   19  C14 UNL     1      19.045  -2.597  23.426  1.00  0.00     0.255 C 
HETATM   20  O2  UNL     1      18.257  -3.452  23.896  1.00  0.00    -0.270 OA
ENDBRANCH  10  11
ENDBRANCH   9  10
ENDBRANCH   1   9
BRANCH   4  21
HETATM   21  C9  UNL     1      25.209  -2.563  24.880  1.00  0.00     0.039 C 
HETATM   22  C10 UNL     1      25.424  -1.134  24.546  1.00  0.00     0.038 C 
HETATM   23  C11 UNL     1      25.845  -3.415  23.785  1.00  0.00     0.038 C 
HETATM   24  C12 UNL     1      25.935  -2.888  26.162  1.00  0.00     0.038 C 
ENDBRANCH   4  21
TORSDOF 4
ENDMDL
MODEL 2
REMARK VINA RESULT: -6.673718723      1.266      2.054
REMARK  4 active torsions:
REMARK  status: ('A' for Active; 'I' for Inactive)
REMARK    1  A    between atoms: N2_8  and  C5_9 
REMARK    2  A    between atoms: C5_9  and  C6_10 
REMARK    3  A    between atoms: C6_10  and  N3_11 
REMARK    4  A    between atoms: N4_14  and  C9_15 
ROOT
HETATM    1  N3  UNL     1      21.305  -2.585  25.319  1.00  0.00    -0.215 N 
HETATM    2  C7  UNL     1      21.639  -3.855  24.708  1.00  0.00     0.161 C 
HETATM    3  C8  UNL     1      22.925  -3.538  24.005  1.00  0.00     0.162 C 
HETATM    4  N4  UNL     1      23.599  -2.612  24.887  1.00  0.00    -0.208 N 
HETATM    5  C13 UNL     1      22.550  -1.987  25.660  1.00  0.00     0.672 C 
HETATM    6  N5  UNL     1      22.692  -1.050  26.516  1.00  0.00    -0.235 N 
ATOM      7  H51 UNL     1      23.585  -0.621  26.760  1.00  0.00     0.174 HD
ATOM      8  H52 UNL     1      21.951  -0.608  27.061  1.00  0.00     0.174 HD
ENDROOT
BRANCH   1   9
HETATM    9  C6  UNL     1      19.993  -2.020  25.549  1.00  0.00     0.161 C 
BRANCH   9  10
HETATM   10  C5  UNL     1      19.637  -0.985  24.475  1.00  0.00     0.157 C 
BRANCH  10  11
HETATM   11  N2  UNL     1      19.013  -1.760  23.399  1.00  0.00    -0.266 N 
HETATM   12  C4  UNL     1      17.774  -2.437  23.521  1.00  0.00     0.326 C 
HETATM   13  N1  UNL     1      17.494  -3.061  22.284  1.00  0.00    -0.325 N 
HETATM   14  O1  UNL     1      17.056  -2.457  24.586  1.00  0.00    -0.247 OA
HETATM   15  C2  UNL     1      18.675  -3.016  21.458  1.00  0.00     0.108 C 
ATOM     16  H1  UNL     1      16.601  -3.476  22.019  1.00  0.00     0.165 HD
HETATM   17  C1  UNL     1      19.339  -4.395  21.573  1.00  0.00     0.049 C 
HETATM   18  C3  UNL     1      18.345  -2.708  20.016  1.00  0.00     0.049 C 
HETATM   19  C14 UNL     1      19.495  -1.971  22.087  1.00  0.00     0.255 C 
HETATM   20  O2  UNL     1      20.456  -1.372  21.547  1.00  0.00    -0.270 OA
ENDBRANCH  10  11
ENDBRANCH   9  10
ENDBRANCH   1   9
BRANCH   4  21
HETATM   21  C9  UNL     1      25.012  -2.368  24.974  1.00  0.00     0.039 C 
HETATM   22  C10 UNL     1      25.425  -0.977  24.660  1.00  0.00     0.038 C 
HETATM   23  C11 UNL     1      25.695  -3.307  23.985  1.00  0.00     0.038 C 
HETATM   24  C12 UNL     1      25.518  -2.738  26.347  1.00  0.00     0.038 C 
ENDBRANCH   4  21
TORSDOF 4
ENDMDL
MODEL 3
REMARK VINA RESULT: -6.625680243      1.042      1.062
REMARK  4 active torsions:
REMARK  status: ('A' for Active; 'I' for Inactive)
REMARK    1  A    between atoms: N2_8  and  C5_9 
REMARK    2  A    between atoms: C5_9  and  C6_10 
REMARK    3  A    between atoms: C6_10  and  N3_11 
REMARK    4  A    between atoms: N4_14  and  C9_15 
ROOT
HETATM    1  N3  UNL     1      21.342  -2.805  25.646  1.00  0.00    -0.215 N 
HETATM    2  C7  UNL     1      21.693  -4.071  25.035  1.00  0.00     0.161 C 
HETATM    3  C8  UNL     1      22.897  -3.703  24.220  1.00  0.00     0.162 C 
HETATM    4  N4  UNL     1      23.591  -2.722  25.024  1.00  0.00    -0.208 N 
HETATM    5  C13 UNL     1      22.577  -2.135  25.870  1.00  0.00     0.672 C 
HETATM    6  N5  UNL     1      22.738  -1.172  26.693  1.00  0.00    -0.235 N 
ATOM      7  H51 UNL     1      23.624  -0.691  26.853  1.00  0.00     0.174 HD
ATOM      8  H52 UNL     1      22.022  -0.757  27.289  1.00  0.00     0.174 HD
ENDROOT
BRANCH   1   9
HETATM    9  C6  UNL     1      20.025  -2.304  25.974  1.00  0.00     0.161 C 
BRANCH   9  10
HETATM   10  C5  UNL     1      19.674  -1.071  25.135  1.00  0.00     0.157 C 
BRANCH  10  11
HETATM   11  N2  UNL     1      19.142  -1.609  23.880  1.00  0.00    -0.266 N 
HETATM   12  C4  UNL     1      19.858  -1.632  22.657  1.00  0.00     0.326 C 
HETATM   13  N1  UNL     1      19.031  -2.229  21.679  1.00  0.00    -0.325 N 
HETATM   14  O1  UNL     1      21.050  -1.180  22.501  1.00  0.00    -0.247 OA
HETATM   15  C2  UNL     1      17.691  -2.340  22.201  1.00  0.00     0.108 C 
ATOM     16  H1  UNL     1      19.333  -2.533  20.753  1.00  0.00     0.165 HD
HETATM   17  C1  UNL     1      16.896  -1.167  21.612  1.00  0.00     0.049 C 
HETATM   18  C3  UNL     1      17.046  -3.654  21.828  1.00  0.00     0.049 C 
HETATM   19  C14 UNL     1      17.875  -2.191  23.651  1.00  0.00     0.255 C 
HETATM   20  O2  UNL     1      17.045  -2.525  24.531  1.00  0.00    -0.270 OA
ENDBRANCH  10  11
ENDBRANCH   9  10
ENDBRANCH   1   9
BRANCH   4  21
HETATM   21  C9  UNL     1      24.991  -2.403  24.987  1.00  0.00     0.039 C 
HETATM   22  C10 UNL     1      25.299  -0.991  24.648  1.00  0.00     0.038 C 
HETATM   23  C11 UNL     1      25.632  -3.302  23.935  1.00  0.00     0.038 C 
HETATM   24  C12 UNL     1      25.635  -2.748  26.307  1.00  0.00     0.038 C 
ENDBRANCH   4  21
TORSDOF 4
ENDMDL
MODEL 4
REMARK VINA RESULT: -6.463249480      1.887      2.718
REMARK  4 active torsions:
REMARK  status: ('A' for Active; 'I' for Inactive)
REMARK    1  A    between atoms: N2_8  and  C5_9 
REMARK    2  A    between atoms: C5_9  and  C6_10 
REMARK    3  A    between atoms: C6_10  and  N3_11 
REMARK    4  A    between atoms: N4_14  and  C9_15 
ROOT
HETATM    1  N3  UNL     1      21.164  -2.151  24.478  1.00  0.00    -0.215 N 
HETATM    2  C7  UNL     1      21.486  -0.791  24.095  1.00  0.00     0.161 C 
HETATM    3  C8  UNL     1      22.774  -0.554  24.826  1.00  0.00     0.162 C 
HETATM    4  N4  UNL     1      23.458  -1.827  24.773  1.00  0.00    -0.208 N 
HETATM    5  C13 UNL     1      22.416  -2.814  24.612  1.00  0.00     0.672 C 
HETATM    6  N5  UNL     1      22.567  -4.082  24.588  1.00  0.00    -0.235 N 
ATOM      7  H51 UNL     1      23.465  -4.559  24.683  1.00  0.00     0.174 HD
ATOM      8  H52 UNL     1      21.832  -4.780  24.474  1.00  0.00     0.174 HD
ENDROOT
BRANCH   1   9
HETATM    9  C6  UNL     1      19.858  -2.736  24.685  1.00  0.00     0.161 C 
BRANCH   9  10
HETATM   10  C5  UNL     1      19.378  -3.481  23.434  1.00  0.00     0.157 C 
BRANCH  10  11
HETATM   11  N2  UNL     1      18.405  -2.580  22.811  1.00  0.00    -0.266 N 
HETATM   12  C4  UNL     1      18.675  -1.779  21.674  1.00  0.00     0.326 C 
HETATM   13  N1  UNL     1      17.502  -1.056  21.361  1.00  0.00    -0.325 N 
HETATM   14  O1  UNL     1      19.803  -1.742  21.060  1.00  0.00    -0.247 OA
HETATM   15  C2  UNL     1      16.567  -1.182  22.451  1.00  0.00     0.108 C 
ATOM     16  H1  UNL     1      17.343  -0.529  20.501  1.00  0.00     0.165 HD
HETATM   17  C1  UNL     1      16.686   0.106  23.277  1.00  0.00     0.049 C 
HETATM   18  C3  UNL     1      15.150  -1.366  21.962  1.00  0.00     0.049 C 
HETATM   19  C14 UNL     1      17.065  -2.347  23.196  1.00  0.00     0.255 C 
HETATM   20  O2  UNL     1      16.408  -3.015  24.031  1.00  0.00    -0.270 OA
ENDBRANCH  10  11
ENDBRANCH   9  10
ENDBRANCH   1   9
BRANCH   4  21
HETATM   21  C9  UNL     1      24.873  -2.056  24.863  1.00  0.00     0.039 C 
HETATM   22  C10 UNL     1      25.385  -3.142  23.991  1.00  0.00     0.038 C 
HETATM   23  C11 UNL     1      25.181  -2.417  26.312  1.00  0.00     0.038 C 
HETATM   24  C12 UNL     1      25.623  -0.782  24.561  1.00  0.00     0.038 C 
ENDBRANCH   4  21
TORSDOF 4
ENDMDL
MODEL 5
REMARK VINA RESULT: -6.411235668      1.789      2.613
REMARK  4 active torsions:
REMARK  status: ('A' for Active; 'I' for Inactive)
REMARK    1  A    between atoms: N2_8  and  C5_9 
REMARK    2  A    between atoms: C5_9  and  C6_10 
REMARK    3  A    between atoms: C6_10  and  N3_11 
REMARK    4  A    between atoms: N4_14  and  C9_15 
ROOT
HETATM    1  N3  UNL     1      21.124  -1.765  24.727  1.00  0.00    -0.215 N 
HETATM    2  C7  UNL     1      21.599  -0.563  24.072  1.00  0.00     0.161 C 
HETATM    3  C8  UNL     1      22.933  -0.355  24.725  1.00  0.00     0.162 C 
HETATM    4  N4  UNL     1      23.449  -1.691  24.924  1.00  0.00    -0.208 N 
HETATM    5  C13 UNL     1      22.287  -2.546  24.978  1.00  0.00     0.672 C 
HETATM    6  N5  UNL     1      22.277  -3.802  25.211  1.00  0.00    -0.235 N 
ATOM      7  H51 UNL     1      23.111  -4.363  25.391  1.00  0.00     0.174 HD
ATOM      8  H52 UNL     1      21.456  -4.406  25.249  1.00  0.00     0.174 HD
ENDROOT
BRANCH   1   9
HETATM    9  C6  UNL     1      19.763  -2.123  25.063  1.00  0.00     0.161 C 
BRANCH   9  10
HETATM   10  C5  UNL     1      18.863  -2.113  23.823  1.00  0.00     0.157 C 
BRANCH  10  11
HETATM   11  N2  UNL     1      19.437  -3.126  22.934  1.00  0.00    -0.266 N 
HETATM   12  C4  UNL     1      19.962  -2.851  21.646  1.00  0.00     0.326 C 
HETATM   13  N1  UNL     1      20.431  -4.065  21.097  1.00  0.00    -0.325 N 
HETATM   14  O1  UNL     1      19.990  -1.686  21.104  1.00  0.00    -0.247 OA
HETATM   15  C2  UNL     1      19.963  -5.160  21.910  1.00  0.00     0.108 C 
ATOM     16  H1  UNL     1      21.007  -4.153  20.260  1.00  0.00     0.165 HD
HETATM   17  C1  UNL     1      18.740  -5.744  21.190  1.00  0.00     0.049 C 
HETATM   18  C3  UNL     1      21.023  -6.220  22.094  1.00  0.00     0.049 C 
HETATM   19  C14 UNL     1      19.584  -4.512  23.173  1.00  0.00     0.255 C 
HETATM   20  O2  UNL     1      19.419  -5.094  24.272  1.00  0.00    -0.270 OA
ENDBRANCH  10  11
ENDBRANCH   9  10
ENDBRANCH   1   9
BRANCH   4  21
HETATM   21  C9  UNL     1      24.827  -2.079  25.042  1.00  0.00     0.039 C 
HETATM   22  C10 UNL     1      25.245  -2.486  26.407  1.00  0.00     0.038 C 
HETATM   23  C11 UNL     1      25.672  -0.884  24.615  1.00  0.00     0.038 C 
HETATM   24  C12 UNL     1      25.133  -3.197  24.076  1.00  0.00     0.038 C 
ENDBRANCH   4  21
TORSDOF 4
ENDMDL
