MODEL 1
REMARK VINA RESULT: -7.891755212      0.000      0.000
REMARK  4 active torsions:
REMARK  status: ('A' for Active; 'I' for Inactive)
REMARK    1  A    between atoms: N1_2  and  S1_4 
REMARK    2  A    between atoms: S1_4  and  N2_7 
REMARK    3  A    between atoms: N2_7  and  C2_9 
REMARK    4  A    between atoms: C4_13  and  C5_14 
ROOT
HETATM    1  C2  UNL     1      22.228  -3.335  25.465  1.00  0.00     0.239 A 
HETATM    2  N3  UNL     1      21.760  -3.689  24.269  1.00  0.00    -0.329 N 
ATOM      3  H3  UNL     1      20.783  -3.789  23.990  1.00  0.00     0.168 HD
HETATM    4  C3  UNL     1      22.866  -3.889  23.498  1.00  0.00     0.130 A 
HETATM    5  C4  UNL     1      23.986  -3.660  24.210  1.00  0.00     0.106 A 
HETATM    6  O3  UNL     1      23.525  -3.318  25.432  1.00  0.00    -0.277 OA
ENDROOT
BRANCH   5   7
HETATM    7  C5  UNL     1      25.411  -3.713  23.941  1.00  0.00     0.021 A 
HETATM    8  C6  UNL     1      25.977  -4.909  23.481  1.00  0.00     0.105 A 
HETATM    9  N4  UNL     1      27.280  -5.059  23.218  1.00  0.00    -0.364 N 
HETATM   10  C7  UNL     1      27.799  -6.350  22.734  1.00  0.00     0.155 C 
HETATM   11  C8  UNL     1      28.103  -4.019  23.401  1.00  0.00     0.007 A 
HETATM   12  C9  UNL     1      29.560  -4.231  23.093  1.00  0.00     0.068 C 
HETATM   13  C10 UNL     1      27.647  -2.809  23.848  1.00  0.00     0.032 A 
HETATM   14  C11 UNL     1      26.258  -2.681  24.119  1.00  0.00    -0.046 A 
HETATM   15  C12 UNL     1      25.820  -1.372  24.624  1.00  0.00     0.049 C 
ENDBRANCH   5   7
BRANCH   1  16
HETATM   16  N2  UNL     1      21.504  -3.051  26.497  1.00  0.00    -0.232 N 
ATOM     17  H2  UNL     1      21.784  -3.377  27.423  1.00  0.00     0.184 HD
BRANCH  16  18
HETATM   18  S1  UNL     1      20.061  -2.121  26.309  1.00  0.00     0.321 S 
HETATM   19  O1  UNL     1      19.178  -2.774  25.268  1.00  0.00    -0.182 OA
HETATM   20  O2  UNL     1      19.283  -2.096  27.590  1.00  0.00    -0.182 OA
BRANCH  18  21
HETATM   21  N1  UNL     1      20.405  -0.518  25.835  1.00  0.00    -0.307 N 
HETATM   22  C1  UNL     1      20.320  -0.303  24.412  1.00  0.00     0.161 C 
ATOM     23  H1  UNL     1      20.647   0.219  26.497  1.00  0.00     0.173 HD
ENDBRANCH  18  21
ENDBRANCH  16  18
ENDBRANCH   1  16
TORSDOF 4
ENDMDL
MODEL 2
REMARK VINA RESULT: -7.716900812      3.631      7.418
REMARK  4 active torsions:
REMARK  status: ('A' for Active; 'I' for Inactive)
REMARK    1  A    between atoms: N1_2  and  S1_4 
REMARK    2  A    between atoms: S1_4  and  N2_7 
REMARK    3  A    between atoms: N2_7  and  C2_9 
REMARK    4  A    between atoms: C4_13  and  C5_14 
ROOT
HETATM    1  C2  UNL     1      26.431  -5.055  23.197  1.00  0.00     0.239 A 
HETATM    2  N3  UNL     1      27.378  -4.378  23.844  1.00  0.00    -0.329 N 
ATOM      3  H3  UNL     1      28.367  -4.616  23.921  1.00  0.00     0.168 HD
HETATM    4  C3  UNL     1      26.742  -3.299  24.381  1.00  0.00     0.130 A 
HETATM    5  C4  UNL     1      25.432  -3.317  24.066  1.00  0.00     0.106 A 
HETATM    6  O3  UNL     1      25.296  -4.438  23.325  1.00  0.00    -0.277 OA
ENDROOT
BRANCH   5   7
HETATM    7  C5  UNL     1      24.290  -2.467  24.345  1.00  0.00     0.021 A 
HETATM    8  C6  UNL     1      23.015  -3.040  24.429  1.00  0.00     0.105 A 
HETATM    9  N4  UNL     1      21.901  -2.339  24.668  1.00  0.00    -0.364 N 
HETATM   10  C7  UNL     1      20.595  -3.017  24.743  1.00  0.00     0.155 C 
HETATM   11  C8  UNL     1      21.993  -1.014  24.838  1.00  0.00     0.007 A 
HETATM   12  C9  UNL     1      20.716  -0.264  25.106  1.00  0.00     0.068 C 
HETATM   13  C10 UNL     1      23.193  -0.361  24.775  1.00  0.00     0.032 A 
HETATM   14  C11 UNL     1      24.357  -1.133  24.518  1.00  0.00    -0.046 A 
HETATM   15  C12 UNL     1      25.619  -0.384  24.431  1.00  0.00     0.049 C 
ENDBRANCH   5   7
BRANCH   1  16
HETATM   16  N2  UNL     1      26.612  -6.154  22.541  1.00  0.00    -0.232 N 
ATOM     17  H2  UNL     1      25.809  -6.701  22.230  1.00  0.00     0.184 HD
BRANCH  16  18
HETATM   18  S1  UNL     1      28.214  -6.696  22.193  1.00  0.00     0.321 S 
HETATM   19  O1  UNL     1      28.966  -5.598  21.472  1.00  0.00    -0.182 OA
HETATM   20  O2  UNL     1      28.960  -6.977  23.462  1.00  0.00    -0.182 OA
BRANCH  18  21
HETATM   21  N1  UNL     1      28.206  -8.104  21.229  1.00  0.00    -0.307 N 
HETATM   22  C1  UNL     1      29.517  -8.522  20.802  1.00  0.00     0.161 C 
ATOM     23  H1  UNL     1      27.352  -8.603  20.979  1.00  0.00     0.173 HD
ENDBRANCH  18  21
ENDBRANCH  16  18
ENDBRANCH   1  16
TORSDOF 4
ENDMDL
MODEL 3
REMARK VINA RESULT: -7.594757294      2.282      3.377
REMARK  4 active torsions:
REMARK  status: ('A' for Active; 'I' for Inactive)
REMARK    1  A    between atoms: N1_2  and  S1_4 
REMARK    2  A    between atoms: S1_4  and  N2_7 
REMARK    3  A    between atoms: N2_7  and  C2_9 
REMARK    4  A    between atoms: C4_13  and  C5_14 
ROOT
HETATM    1  C2  UNL     1      24.510  -2.893  24.419  1.00  0.00     0.239 A 
HETATM    2  N3  UNL     1      25.368  -2.614  25.398  1.00  0.00    -0.329 N 
ATOM      3  H3  UNL     1      25.228  -1.978  26.184  1.00  0.00     0.168 HD
HETATM    4  C3  UNL     1      26.476  -3.361  25.126  1.00  0.00     0.130 A 
HETATM    5  C4  UNL     1      26.294  -4.082  24.002  1.00  0.00     0.106 A 
HETATM    6  O3  UNL     1      25.047  -3.748  23.605  1.00  0.00    -0.277 OA
ENDROOT
BRANCH   5   7
HETATM    7  C5  UNL     1      27.090  -5.024  23.238  1.00  0.00     0.021 A 
HETATM    8  C6  UNL     1      26.486  -6.186  22.741  1.00  0.00     0.105 A 
HETATM    9  N4  UNL     1      27.138  -7.119  22.039  1.00  0.00    -0.364 N 
HETATM   10  C7  UNL     1      26.430  -8.314  21.547  1.00  0.00     0.155 C 
HETATM   11  C8  UNL     1      28.443  -6.949  21.789  1.00  0.00     0.007 A 
HETATM   12  C9  UNL     1      29.137  -8.021  20.995  1.00  0.00     0.068 C 
HETATM   13  C10 UNL     1      29.123  -5.848  22.233  1.00  0.00     0.032 A 
HETATM   14  C11 UNL     1      28.403  -4.876  22.976  1.00  0.00    -0.046 A 
HETATM   15  C12 UNL     1      29.183  -3.725  23.456  1.00  0.00     0.049 C 
ENDBRANCH   5   7
BRANCH   1  16
HETATM   16  N2  UNL     1      23.324  -2.391  24.299  1.00  0.00    -0.232 N 
ATOM     17  H2  UNL     1      22.561  -2.965  23.939  1.00  0.00     0.184 HD
BRANCH  16  18
HETATM   18  S1  UNL     1      23.033  -0.750  24.746  1.00  0.00     0.321 S 
HETATM   19  O1  UNL     1      22.848  -0.666  26.246  1.00  0.00    -0.182 OA
HETATM   20  O2  UNL     1      24.217   0.105  24.404  1.00  0.00    -0.182 OA
BRANCH  18  21
HETATM   21  N1  UNL     1      21.650  -0.122  23.969  1.00  0.00    -0.307 N 
HETATM   22  C1  UNL     1      20.450  -0.207  24.763  1.00  0.00     0.161 C 
ATOM     23  H1  UNL     1      21.671   0.277  23.030  1.00  0.00     0.173 HD
ENDBRANCH  18  21
ENDBRANCH  16  18
ENDBRANCH   1  16
TORSDOF 4
ENDMDL
MODEL 4
REMARK VINA RESULT: -7.541542268      4.482      7.324
REMARK  4 active torsions:
REMARK  status: ('A' for Active; 'I' for Inactive)
REMARK    1  A    between atoms: N1_2  and  S1_4 
REMARK    2  A    between atoms: S1_4  and  N2_7 
REMARK    3  A    between atoms: N2_7  and  C2_9 
REMARK    4  A    between atoms: C4_13  and  C5_14 
ROOT
HETATM    1  C2  UNL     1      28.779  -4.656  22.924  1.00  0.00     0.239 A 
HETATM    2  N3  UNL     1      29.175  -3.571  23.588  1.00  0.00    -0.329 N 
ATOM      3  H3  UNL     1      30.131  -3.245  23.729  1.00  0.00     0.168 HD
HETATM    4  C3  UNL     1      28.027  -2.989  24.038  1.00  0.00     0.130 A 
HETATM    5  C4  UNL     1      26.952  -3.705  23.655  1.00  0.00     0.106 A 
HETATM    6  O3  UNL     1      27.484  -4.736  22.962  1.00  0.00    -0.277 OA
ENDROOT
BRANCH   5   7
HETATM    7  C5  UNL     1      25.517  -3.591  23.831  1.00  0.00     0.021 A 
HETATM    8  C6  UNL     1      24.689  -4.636  23.403  1.00  0.00     0.105 A 
HETATM    9  N4  UNL     1      23.356  -4.618  23.510  1.00  0.00    -0.364 N 
HETATM   10  C7  UNL     1      22.553  -5.760  23.038  1.00  0.00     0.155 C 
HETATM   11  C8  UNL     1      22.764  -3.547  24.053  1.00  0.00     0.007 A 
HETATM   12  C9  UNL     1      21.263  -3.567  24.155  1.00  0.00     0.068 C 
HETATM   13  C10 UNL     1      23.485  -2.474  24.500  1.00  0.00     0.032 A 
HETATM   14  C11 UNL     1      24.899  -2.524  24.372  1.00  0.00    -0.046 A 
HETATM   15  C12 UNL     1      25.629  -1.336  24.841  1.00  0.00     0.049 C 
ENDBRANCH   5   7
BRANCH   1  16
HETATM   16  N2  UNL     1      29.561  -5.498  22.333  1.00  0.00    -0.232 N 
ATOM     17  H2  UNL     1      30.559  -5.300  22.255  1.00  0.00     0.184 HD
BRANCH  16  18
HETATM   18  S1  UNL     1      28.916  -6.958  21.675  1.00  0.00     0.321 S 
HETATM   19  O1  UNL     1      28.159  -6.640  20.403  1.00  0.00    -0.182 OA
HETATM   20  O2  UNL     1      30.022  -7.898  21.301  1.00  0.00    -0.182 OA
BRANCH  18  21
HETATM   21  N1  UNL     1      27.871  -7.736  22.776  1.00  0.00    -0.307 N 
HETATM   22  C1  UNL     1      26.583  -8.065  22.220  1.00  0.00     0.161 C 
ATOM     23  H1  UNL     1      28.134  -7.949  23.738  1.00  0.00     0.173 HD
ENDBRANCH  18  21
ENDBRANCH  16  18
ENDBRANCH   1  16
TORSDOF 4
ENDMDL
MODEL 5
REMARK VINA RESULT: -7.450950834      1.977      2.835
REMARK  4 active torsions:
REMARK  status: ('A' for Active; 'I' for Inactive)
REMARK    1  A    between atoms: N1_2  and  S1_4 
REMARK    2  A    between atoms: S1_4  and  N2_7 
REMARK    3  A    between atoms: N2_7  and  C2_9 
REMARK    4  A    between atoms: C4_13  and  C5_14 
ROOT
HETATM    1  C2  UNL     1      23.724  -2.627  24.766  1.00  0.00     0.239 A 
HETATM    2  N3  UNL     1      24.648  -1.679  24.905  1.00  0.00    -0.329 N 
ATOM      3  H3  UNL     1      24.526  -0.747  25.304  1.00  0.00     0.168 HD
HETATM    4  C3  UNL     1      25.794  -2.219  24.402  1.00  0.00     0.130 A 
HETATM    5  C4  UNL     1      25.571  -3.474  23.964  1.00  0.00     0.106 A 
HETATM    6  O3  UNL     1      24.260  -3.674  24.218  1.00  0.00    -0.277 OA
ENDROOT
BRANCH   5   7
HETATM    7  C5  UNL     1      26.376  -4.512  23.347  1.00  0.00     0.021 A 
HETATM    8  C6  UNL     1      25.742  -5.634  22.797  1.00  0.00     0.105 A 
HETATM    9  N4  UNL     1      26.397  -6.647  22.221  1.00  0.00    -0.364 N 
HETATM   10  C7  UNL     1      25.657  -7.792  21.662  1.00  0.00     0.155 C 
HETATM   11  C8  UNL     1      27.734  -6.603  22.157  1.00  0.00     0.007 A 
HETATM   12  C9  UNL     1      28.431  -7.763  21.499  1.00  0.00     0.068 C 
HETATM   13  C10 UNL     1      28.445  -5.551  22.666  1.00  0.00     0.032 A 
HETATM   14  C11 UNL     1      27.721  -4.491  23.273  1.00  0.00    -0.046 A 
HETATM   15  C12 UNL     1      28.529  -3.396  23.831  1.00  0.00     0.049 C 
ENDBRANCH   5   7
BRANCH   1  16
HETATM   16  N2  UNL     1      22.486  -2.523  25.122  1.00  0.00    -0.232 N 
ATOM     17  H2  UNL     1      21.983  -3.341  25.466  1.00  0.00     0.184 HD
BRANCH  16  18
HETATM   18  S1  UNL     1      21.683  -0.998  25.014  1.00  0.00     0.321 S 
HETATM   19  O1  UNL     1      22.579   0.079  25.586  1.00  0.00    -0.182 OA
HETATM   20  O2  UNL     1      21.429  -0.639  23.580  1.00  0.00    -0.182 OA
BRANCH  18  21
HETATM   21  N1  UNL     1      20.199  -1.008  25.856  1.00  0.00    -0.307 N 
HETATM   22  C1  UNL     1      20.017  -2.165  26.697  1.00  0.00     0.161 C 
ATOM     23  H1  UNL     1      19.507  -0.264  25.773  1.00  0.00     0.173 HD
ENDBRANCH  18  21
ENDBRANCH  16  18
ENDBRANCH   1  16
TORSDOF 4
ENDMDL
