MODEL 1
REMARK VINA RESULT: -6.139691381      0.000      0.000
REMARK  5 active torsions:
REMARK  status: ('A' for Active; 'I' for Inactive)
REMARK    1  A    between atoms: C1_2  and  N1_3 
REMARK    2  A    between atoms: C1_2  and  N4_15 
REMARK    3  A    between atoms: N1_3  and  C2_5 
REMARK    4  A    between atoms: C2_5  and  C3_6 
REMARK    5  A    between atoms: C3_6  and  N2_7 
ROOT
HETATM    1  N1  UNL     1      21.035  -1.059  23.274  1.00  0.00    -0.365 N 
ATOM      2  H1  UNL     1      21.066  -0.071  23.022  1.00  0.00     0.161 HD
ENDROOT
BRANCH   1   3
HETATM    3  C1  UNL     1      21.590  -1.458  24.501  1.00  0.00     0.169 C 
HETATM    4  S1  UNL     1      20.586  -1.501  25.815  1.00  0.00    -0.041 SA
BRANCH   3   5
HETATM    5  N4  UNL     1      22.949  -1.844  24.641  1.00  0.00    -0.358 N 
HETATM    6  C8  UNL     1      23.984  -0.853  24.533  1.00  0.00     0.126 C 
HETATM    7  C9  UNL     1      25.296  -1.407  25.044  1.00  0.00     0.029 C 
HETATM    8  C10 UNL     1      25.674  -2.724  24.454  1.00  0.00    -0.037 A 
HETATM    9  C11 UNL     1      24.483  -3.484  23.938  1.00  0.00     0.029 C 
HETATM   10  C13 UNL     1      26.678  -3.554  25.184  1.00  0.00     0.010 A 
HETATM   11  C14 UNL     1      27.015  -2.944  23.853  1.00  0.00     0.010 A 
HETATM   12  C12 UNL     1      23.325  -3.207  24.890  1.00  0.00     0.126 C 
ENDBRANCH   3   5
ENDBRANCH   1   3
BRANCH   1  13
HETATM   13  C2  UNL     1      20.428  -1.980  22.364  1.00  0.00     0.152 C 
BRANCH  13  14
HETATM   14  C3  UNL     1      19.219  -1.461  21.650  1.00  0.00     0.292 C 
BRANCH  14  15
HETATM   15  N2  UNL     1      18.123  -2.386  21.814  1.00  0.00     0.093 N 
HETATM   16  C4  UNL     1      18.193  -2.914  23.180  1.00  0.00     0.300 C 
HETATM   17  C5  UNL     1      17.246  -2.258  24.124  1.00  0.00     0.262 C 
HETATM   18  N3  UNL     1      17.036  -0.876  23.828  1.00  0.00    -0.072 N 
HETATM   19  C6  UNL     1      16.624  -0.623  22.458  1.00  0.00     0.262 C 
ATOM     20  H32 UNL     1      16.371  -0.465  24.484  1.00  0.00     0.277 HD
ATOM     21  H31 UNL     1      17.865  -0.329  24.060  1.00  0.00     0.277 HD
HETATM   22  C7  UNL     1      16.815  -1.827  21.586  1.00  0.00     0.300 C 
ENDBRANCH  14  15
ENDBRANCH  13  14
ENDBRANCH   1  13
TORSDOF 5
ENDMDL
MODEL 2
REMARK VINA RESULT: -6.115374983      1.370      2.375
REMARK  5 active torsions:
REMARK  status: ('A' for Active; 'I' for Inactive)
REMARK    1  A    between atoms: C1_2  and  N1_3 
REMARK    2  A    between atoms: C1_2  and  N4_15 
REMARK    3  A    between atoms: N1_3  and  C2_5 
REMARK    4  A    between atoms: C2_5  and  C3_6 
REMARK    5  A    between atoms: C3_6  and  N2_7 
ROOT
HETATM    1  N1  UNL     1      20.412  -0.461  25.395  1.00  0.00    -0.365 N 
ATOM      2  H1  UNL     1      20.315   0.256  26.113  1.00  0.00     0.161 HD
ENDROOT
BRANCH   1   3
HETATM    3  C1  UNL     1      21.035  -1.673  25.734  1.00  0.00     0.169 C 
HETATM    4  S1  UNL     1      20.177  -2.739  26.663  1.00  0.00    -0.041 SA
BRANCH   3   5
HETATM    5  N4  UNL     1      22.339  -2.018  25.291  1.00  0.00    -0.358 N 
HETATM    6  C8  UNL     1      22.621  -3.369  24.894  1.00  0.00     0.126 C 
HETATM    7  C9  UNL     1      23.937  -3.435  24.151  1.00  0.00     0.029 C 
HETATM    8  C10 UNL     1      25.073  -2.779  24.863  1.00  0.00    -0.037 A 
HETATM    9  C11 UNL     1      24.609  -1.736  25.843  1.00  0.00     0.029 C 
HETATM   10  C13 UNL     1      26.272  -2.395  24.061  1.00  0.00     0.010 A 
HETATM   11  C14 UNL     1      26.358  -3.490  25.086  1.00  0.00     0.010 A 
HETATM   12  C12 UNL     1      23.396  -1.048  25.227  1.00  0.00     0.126 C 
ENDBRANCH   3   5
ENDBRANCH   1   3
BRANCH   1  13
HETATM   13  C2  UNL     1      19.907  -0.191  24.084  1.00  0.00     0.152 C 
BRANCH  13  14
HETATM   14  C3  UNL     1      18.719  -1.008  23.682  1.00  0.00     0.292 C 
BRANCH  14  15
HETATM   15  N2  UNL     1      18.830  -1.377  22.291  1.00  0.00     0.093 N 
HETATM   16  C4  UNL     1      20.220  -1.774  22.050  1.00  0.00     0.300 C 
HETATM   17  C5  UNL     1      20.427  -3.249  22.036  1.00  0.00     0.262 C 
HETATM   18  N3  UNL     1      19.560  -3.939  22.937  1.00  0.00    -0.072 N 
HETATM   19  C6  UNL     1      18.153  -3.635  22.750  1.00  0.00     0.262 C 
ATOM     20  H32 UNL     1      19.719  -4.946  22.888  1.00  0.00     0.277 HD
ATOM     21  H31 UNL     1      19.839  -3.769  23.903  1.00  0.00     0.277 HD
HETATM   22  C7  UNL     1      17.951  -2.438  21.870  1.00  0.00     0.300 C 
ENDBRANCH  14  15
ENDBRANCH  13  14
ENDBRANCH   1  13
TORSDOF 5
ENDMDL
MODEL 3
REMARK VINA RESULT: -6.081536055      1.595      2.481
REMARK  5 active torsions:
REMARK  status: ('A' for Active; 'I' for Inactive)
REMARK    1  A    between atoms: C1_2  and  N1_3 
REMARK    2  A    between atoms: C1_2  and  N4_15 
REMARK    3  A    between atoms: N1_3  and  C2_5 
REMARK    4  A    between atoms: C2_5  and  C3_6 
REMARK    5  A    between atoms: C3_6  and  N2_7 
ROOT
HETATM    1  N1  UNL     1      20.356  -0.332  24.952  1.00  0.00    -0.365 N 
ATOM      2  H1  UNL     1      20.550   0.634  25.216  1.00  0.00     0.161 HD
ENDROOT
BRANCH   1   3
HETATM    3  C1  UNL     1      20.982  -1.364  25.670  1.00  0.00     0.169 C 
HETATM    4  S1  UNL     1      20.058  -2.212  26.749  1.00  0.00    -0.041 SA
BRANCH   3   5
HETATM    5  N4  UNL     1      22.345  -1.713  25.484  1.00  0.00    -0.358 N 
HETATM    6  C8  UNL     1      23.227  -0.802  24.810  1.00  0.00     0.126 C 
HETATM    7  C9  UNL     1      24.668  -1.212  25.021  1.00  0.00     0.029 C 
HETATM    8  C10 UNL     1      24.946  -2.645  24.710  1.00  0.00    -0.037 A 
HETATM    9  C11 UNL     1      23.714  -3.501  24.800  1.00  0.00     0.029 C 
HETATM   10  C13 UNL     1      26.179  -3.258  25.289  1.00  0.00     0.010 A 
HETATM   11  C14 UNL     1      26.060  -3.035  23.807  1.00  0.00     0.010 A 
HETATM   12  C12 UNL     1      22.875  -2.962  25.953  1.00  0.00     0.126 C 
ENDBRANCH   3   5
ENDBRANCH   1   3
BRANCH   1  13
HETATM   13  C2  UNL     1      19.458  -0.579  23.867  1.00  0.00     0.152 C 
BRANCH  13  14
HETATM   14  C3  UNL     1      19.984  -1.494  22.806  1.00  0.00     0.292 C 
BRANCH  14  15
HETATM   15  N2  UNL     1      18.975  -2.468  22.460  1.00  0.00     0.093 N 
HETATM   16  C4  UNL     1      19.235  -2.901  21.084  1.00  0.00     0.300 C 
HETATM   17  C5  UNL     1      19.945  -4.208  20.993  1.00  0.00     0.262 C 
HETATM   18  N3  UNL     1      20.864  -4.415  22.067  1.00  0.00    -0.072 N 
HETATM   19  C6  UNL     1      20.274  -4.264  23.385  1.00  0.00     0.262 C 
ATOM     20  H32 UNL     1      21.319  -5.324  21.979  1.00  0.00     0.277 HD
ATOM     21  H31 UNL     1      21.677  -3.808  21.965  1.00  0.00     0.277 HD
HETATM   22  C7  UNL     1      18.922  -3.621  23.322  1.00  0.00     0.300 C 
ENDBRANCH  14  15
ENDBRANCH  13  14
ENDBRANCH   1  13
TORSDOF 5
ENDMDL
MODEL 4
REMARK VINA RESULT: -5.989453812      1.260      2.217
REMARK  5 active torsions:
REMARK  status: ('A' for Active; 'I' for Inactive)
REMARK    1  A    between atoms: C1_2  and  N1_3 
REMARK    2  A    between atoms: C1_2  and  N4_15 
REMARK    3  A    between atoms: N1_3  and  C2_5 
REMARK    4  A    between atoms: C2_5  and  C3_6 
REMARK    5  A    between atoms: C3_6  and  N2_7 
ROOT
HETATM    1  N1  UNL     1      20.672  -0.315  25.512  1.00  0.00    -0.365 N 
ATOM      2  H1  UNL     1      20.846   0.428  26.187  1.00  0.00     0.161 HD
ENDROOT
BRANCH   1   3
HETATM    3  C1  UNL     1      21.213  -1.588  25.757  1.00  0.00     0.169 C 
HETATM    4  S1  UNL     1      20.279  -2.666  26.595  1.00  0.00    -0.041 SA
BRANCH   3   5
HETATM    5  N4  UNL     1      22.496  -1.980  25.294  1.00  0.00    -0.358 N 
HETATM    6  C8  UNL     1      22.724  -3.343  24.900  1.00  0.00     0.126 C 
HETATM    7  C9  UNL     1      24.025  -3.458  24.136  1.00  0.00     0.029 C 
HETATM    8  C10 UNL     1      25.194  -2.838  24.825  1.00  0.00    -0.037 A 
HETATM    9  C11 UNL     1      24.784  -1.774  25.806  1.00  0.00     0.029 C 
HETATM   10  C13 UNL     1      26.392  -2.500  24.000  1.00  0.00     0.010 A 
HETATM   11  C14 UNL     1      26.458  -3.592  25.030  1.00  0.00     0.010 A 
HETATM   12  C12 UNL     1      23.585  -1.048  25.207  1.00  0.00     0.126 C 
ENDBRANCH   3   5
ENDBRANCH   1   3
BRANCH   1  13
HETATM   13  C2  UNL     1      19.886  -0.019  24.355  1.00  0.00     0.152 C 
BRANCH  13  14
HETATM   14  C3  UNL     1      19.831  -1.109  23.330  1.00  0.00     0.292 C 
BRANCH  14  15
HETATM   15  N2  UNL     1      18.548  -1.769  23.390  1.00  0.00     0.093 N 
HETATM   16  C4  UNL     1      17.523  -0.768  23.084  1.00  0.00     0.300 C 
HETATM   17  C5  UNL     1      17.029  -0.827  21.679  1.00  0.00     0.262 C 
HETATM   18  N3  UNL     1      18.042  -1.219  20.752  1.00  0.00    -0.072 N 
HETATM   19  C6  UNL     1      18.706  -2.464  21.096  1.00  0.00     0.262 C 
ATOM     20  H32 UNL     1      17.664  -1.264  19.806  1.00  0.00     0.277 HD
ATOM     21  H31 UNL     1      18.724  -0.471  20.629  1.00  0.00     0.277 HD
HETATM   22  C7  UNL     1      18.399  -2.892  22.500  1.00  0.00     0.300 C 
ENDBRANCH  14  15
ENDBRANCH  13  14
ENDBRANCH   1  13
TORSDOF 5
ENDMDL
MODEL 5
REMARK VINA RESULT: -5.953830054      1.404      2.015
REMARK  5 active torsions:
REMARK  status: ('A' for Active; 'I' for Inactive)
REMARK    1  A    between atoms: C1_2  and  N1_3 
REMARK    2  A    between atoms: C1_2  and  N4_15 
REMARK    3  A    between atoms: N1_3  and  C2_5 
REMARK    4  A    between atoms: C2_5  and  C3_6 
REMARK    5  A    between atoms: C3_6  and  N2_7 
ROOT
HETATM    1  N1  UNL     1      19.768  -0.875  24.635  1.00  0.00    -0.365 N 
ATOM      2  H1  UNL     1      19.694   0.120  24.844  1.00  0.00     0.161 HD
ENDROOT
BRANCH   1   3
HETATM    3  C1  UNL     1      20.582  -1.676  25.453  1.00  0.00     0.169 C 
HETATM    4  S1  UNL     1      19.905  -2.302  26.826  1.00  0.00    -0.041 SA
BRANCH   3   5
HETATM    5  N4  UNL     1      21.931  -1.982  25.131  1.00  0.00    -0.358 N 
HETATM    6  C8  UNL     1      22.294  -3.332  24.802  1.00  0.00     0.126 C 
HETATM    7  C9  UNL     1      23.670  -3.367  24.174  1.00  0.00     0.029 C 
HETATM    8  C10 UNL     1      24.717  -2.647  24.957  1.00  0.00    -0.037 A 
HETATM    9  C11 UNL     1      24.134  -1.596  25.860  1.00  0.00     0.029 C 
HETATM   10  C13 UNL     1      25.965  -2.239  24.245  1.00  0.00     0.010 A 
HETATM   11  C14 UNL     1      26.004  -3.301  25.308  1.00  0.00     0.010 A 
HETATM   12  C12 UNL     1      22.953  -0.974  25.125  1.00  0.00     0.126 C 
ENDBRANCH   3   5
ENDBRANCH   1   3
BRANCH   1  13
HETATM   13  C2  UNL     1      19.036  -1.398  23.524  1.00  0.00     0.152 C 
BRANCH  13  14
HETATM   14  C3  UNL     1      17.782  -0.654  23.184  1.00  0.00     0.292 C 
BRANCH  14  15
HETATM   15  N2  UNL     1      16.736  -1.591  22.849  1.00  0.00     0.093 N 
HETATM   16  C4  UNL     1      16.624  -2.541  23.959  1.00  0.00     0.300 C 
HETATM   17  C5  UNL     1      15.498  -2.244  24.889  1.00  0.00     0.262 C 
HETATM   18  N3  UNL     1      15.248  -0.844  25.027  1.00  0.00    -0.072 N 
HETATM   19  C6  UNL     1      15.043  -0.155  23.765  1.00  0.00     0.262 C 
ATOM     20  H32 UNL     1      14.463  -0.680  25.657  1.00  0.00     0.277 HD
ATOM     21  H31 UNL     1      15.993  -0.398  25.562  1.00  0.00     0.277 HD
HETATM   22  C7  UNL     1      15.448  -0.999  22.595  1.00  0.00     0.300 C 
ENDBRANCH  14  15
ENDBRANCH  13  14
ENDBRANCH   1  13
TORSDOF 5
ENDMDL
