MODEL 1
REMARK VINA RESULT: -6.942846590      0.000      0.000
REMARK  6 active torsions:
REMARK  status: ('A' for Active; 'I' for Inactive)
REMARK    1  A    between atoms: C2_2  and  C3_3 
REMARK       I    between atoms: N2_8  and  C6_9 
REMARK       I    between atoms: C6_9  and  N3_11 
REMARK    2  A    between atoms: N3_11  and  C7_13 
REMARK    3  A    between atoms: C7_13  and  C8_14 
REMARK    4  A    between atoms: C9_15  and  C10_16 
REMARK    5  A    between atoms: C10_16  and  N4_17 
REMARK    6  A    between atoms: N4_17  and  C13_20 
ROOT
HETATM    1  C3  UNL     1      27.647  -7.424  22.236  1.00  0.00     0.035 A 
HETATM    2  C4  UNL     1      26.308  -7.165  21.999  1.00  0.00     0.034 A 
HETATM    3  C5  UNL     1      25.357  -8.062  21.305  1.00  0.00     0.070 C 
HETATM    4  N1  UNL     1      26.052  -5.958  22.518  1.00  0.00    -0.291 N 
ATOM      5  H1  UNL     1      25.140  -5.502  22.493  1.00  0.00     0.187 HD
HETATM    6  N2  UNL     1      27.136  -5.430  23.069  1.00  0.00    -0.168 N 
HETATM    7  C6  UNL     1      27.251  -4.165  23.718  1.00  0.00     0.345 C 
HETATM    8  O1  UNL     1      28.331  -3.783  24.198  1.00  0.00    -0.245 OA
HETATM    9  N3  UNL     1      26.099  -3.351  23.800  1.00  0.00    -0.331 N 
ATOM     10  H3  UNL     1      25.211  -3.663  23.405  1.00  0.00     0.165 HD
HETATM   11  C15 UNL     1      28.138  -6.326  22.904  1.00  0.00     0.278 A 
HETATM   12  O2  UNL     1      29.308  -6.116  23.323  1.00  0.00    -0.265 OA
ENDROOT
BRANCH   9  13
HETATM   13  C7  UNL     1      26.204  -2.067  24.458  1.00  0.00     0.219 C 
BRANCH  13  14
HETATM   14  C8  UNL     1      24.884  -1.489  24.663  1.00  0.00    -0.085 C 
HETATM   15  C9  UNL     1      23.771  -0.993  24.813  1.00  0.00    -0.077 C 
BRANCH  15  16
HETATM   16  C10 UNL     1      22.448  -0.387  24.968  1.00  0.00     0.330 C 
BRANCH  16  17
HETATM   17  N4  UNL     1      21.449  -1.446  24.963  1.00  0.00    -0.065 N 
HETATM   18  C11 UNL     1      21.691  -2.266  23.811  1.00  0.00     0.273 C 
HETATM   19  C12 UNL     1      20.161  -0.754  24.790  1.00  0.00     0.273 C 
BRANCH  17  20
HETATM   20  C13 UNL     1      21.423  -2.178  26.195  1.00  0.00     0.233 C 
HETATM   21  C14 UNL     1      20.067  -2.199  26.864  1.00  0.00     0.035 C 
ENDBRANCH  17  20
ENDBRANCH  16  17
ENDBRANCH  15  16
ENDBRANCH  13  14
ENDBRANCH   9  13
BRANCH   1  22
HETATM   22  C2  UNL     1      28.436  -8.612  21.873  1.00  0.00     0.042 C 
HETATM   23  C1  UNL     1      29.067  -8.498  20.509  1.00  0.00     0.010 C 
ENDBRANCH   1  22
TORSDOF 6
ENDMDL
MODEL 2
REMARK VINA RESULT: -6.891318292      2.036      7.705
REMARK  6 active torsions:
REMARK  status: ('A' for Active; 'I' for Inactive)
REMARK    1  A    between atoms: C2_2  and  C3_3 
REMARK       I    between atoms: N2_8  and  C6_9 
REMARK       I    between atoms: C6_9  and  N3_11 
REMARK    2  A    between atoms: N3_11  and  C7_13 
REMARK    3  A    between atoms: C7_13  and  C8_14 
REMARK    4  A    between atoms: C9_15  and  C10_16 
REMARK    5  A    between atoms: C10_16  and  N4_17 
REMARK    6  A    between atoms: N4_17  and  C13_20 
ROOT
HETATM    1  C3  UNL     1      22.291  -1.285  25.231  1.00  0.00     0.035 A 
HETATM    2  C4  UNL     1      22.354  -2.643  25.493  1.00  0.00     0.034 A 
HETATM    3  C5  UNL     1      21.236  -3.490  25.966  1.00  0.00     0.070 C 
HETATM    4  N1  UNL     1      23.610  -3.028  25.235  1.00  0.00    -0.291 N 
ATOM      5  H1  UNL     1      23.952  -3.983  25.340  1.00  0.00     0.187 HD
HETATM    6  N2  UNL     1      24.352  -2.008  24.827  1.00  0.00    -0.168 N 
HETATM    7  C6  UNL     1      25.731  -2.031  24.461  1.00  0.00     0.345 C 
HETATM    8  O1  UNL     1      26.316  -1.000  24.091  1.00  0.00    -0.245 OA
HETATM    9  N3  UNL     1      26.418  -3.263  24.532  1.00  0.00    -0.331 N 
ATOM     10  H3  UNL     1      25.939  -4.111  24.837  1.00  0.00     0.165 HD
HETATM   11  C15 UNL     1      23.551  -0.916  24.817  1.00  0.00     0.278 A 
HETATM   12  O2  UNL     1      23.966   0.223  24.472  1.00  0.00    -0.265 OA
ENDROOT
BRANCH   9  13
HETATM   13  C7  UNL     1      27.817  -3.297  24.161  1.00  0.00     0.219 C 
BRANCH  13  14
HETATM   14  C8  UNL     1      28.098  -4.466  23.341  1.00  0.00    -0.085 C 
HETATM   15  C9  UNL     1      28.359  -5.445  22.647  1.00  0.00    -0.077 C 
BRANCH  15  16
HETATM   16  C10 UNL     1      28.694  -6.599  21.813  1.00  0.00     0.330 C 
BRANCH  16  17
HETATM   17  N4  UNL     1      27.534  -7.476  21.746  1.00  0.00    -0.065 N 
HETATM   18  C11 UNL     1      27.488  -8.230  22.966  1.00  0.00     0.273 C 
HETATM   19  C12 UNL     1      27.816  -8.396  20.631  1.00  0.00     0.273 C 
BRANCH  17  20
HETATM   20  C13 UNL     1      26.324  -6.761  21.466  1.00  0.00     0.233 C 
HETATM   21  C14 UNL     1      25.140  -7.222  22.288  1.00  0.00     0.035 C 
ENDBRANCH  17  20
ENDBRANCH  16  17
ENDBRANCH  15  16
ENDBRANCH  13  14
ENDBRANCH   9  13
BRANCH   1  22
HETATM   22  C2  UNL     1      21.143  -0.373  25.349  1.00  0.00     0.042 C 
HETATM   23  C1  UNL     1      20.296  -0.337  24.102  1.00  0.00     0.010 C 
ENDBRANCH   1  22
TORSDOF 6
ENDMDL
MODEL 3
REMARK VINA RESULT: -6.837461410      0.652      1.398
REMARK  6 active torsions:
REMARK  status: ('A' for Active; 'I' for Inactive)
REMARK    1  A    between atoms: C2_2  and  C3_3 
REMARK       I    between atoms: N2_8  and  C6_9 
REMARK       I    between atoms: C6_9  and  N3_11 
REMARK    2  A    between atoms: N3_11  and  C7_13 
REMARK    3  A    between atoms: C7_13  and  C8_14 
REMARK    4  A    between atoms: C9_15  and  C10_16 
REMARK    5  A    between atoms: C10_16  and  N4_17 
REMARK    6  A    between atoms: N4_17  and  C13_20 
ROOT
HETATM    1  C3  UNL     1      27.696  -7.464  22.164  1.00  0.00     0.035 A 
HETATM    2  C4  UNL     1      26.361  -7.225  21.889  1.00  0.00     0.034 A 
HETATM    3  C5  UNL     1      25.449  -8.129  21.151  1.00  0.00     0.070 C 
HETATM    4  N1  UNL     1      26.067  -6.030  22.416  1.00  0.00    -0.291 N 
ATOM      5  H1  UNL     1      25.147  -5.590  22.368  1.00  0.00     0.187 HD
HETATM    6  N2  UNL     1      27.123  -5.492  23.009  1.00  0.00    -0.168 N 
HETATM    7  C6  UNL     1      27.194  -4.235  23.679  1.00  0.00     0.345 C 
HETATM    8  O1  UNL     1      28.251  -3.841  24.199  1.00  0.00    -0.245 OA
HETATM    9  N3  UNL     1      26.025  -3.443  23.736  1.00  0.00    -0.331 N 
ATOM     10  H3  UNL     1      25.157  -3.765  23.308  1.00  0.00     0.165 HD
HETATM   11  C15 UNL     1      28.145  -6.367  22.864  1.00  0.00     0.278 A 
HETATM   12  O2  UNL     1      29.298  -6.143  23.322  1.00  0.00    -0.265 OA
ENDROOT
BRANCH   9  13
HETATM   13  C7  UNL     1      26.087  -2.166  24.415  1.00  0.00     0.219 C 
BRANCH  13  14
HETATM   14  C8  UNL     1      24.825  -1.884  25.085  1.00  0.00    -0.085 C 
HETATM   15  C9  UNL     1      23.772  -1.652  25.670  1.00  0.00    -0.077 C 
BRANCH  15  16
HETATM   16  C10 UNL     1      22.527  -1.387  26.392  1.00  0.00     0.330 C 
BRANCH  16  17
HETATM   17  N4  UNL     1      21.461  -2.173  25.785  1.00  0.00    -0.065 N 
HETATM   18  C11 UNL     1      20.340  -2.147  26.681  1.00  0.00     0.273 C 
HETATM   19  C12 UNL     1      21.988  -3.547  25.725  1.00  0.00     0.273 C 
BRANCH  17  20
HETATM   20  C13 UNL     1      21.148  -1.734  24.458  1.00  0.00     0.233 C 
HETATM   21  C14 UNL     1      20.555  -0.343  24.400  1.00  0.00     0.035 C 
ENDBRANCH  17  20
ENDBRANCH  16  17
ENDBRANCH  15  16
ENDBRANCH  13  14
ENDBRANCH   9  13
BRANCH   1  22
HETATM   22  C2  UNL     1      28.518  -8.632  21.810  1.00  0.00     0.042 C 
HETATM   23  C1  UNL     1      29.132  -8.519  20.438  1.00  0.00     0.010 C 
ENDBRANCH   1  22
TORSDOF 6
ENDMDL
MODEL 4
REMARK VINA RESULT: -6.784049307      2.122      3.373
REMARK  6 active torsions:
REMARK  status: ('A' for Active; 'I' for Inactive)
REMARK    1  A    between atoms: C2_2  and  C3_3 
REMARK       I    between atoms: N2_8  and  C6_9 
REMARK       I    between atoms: C6_9  and  N3_11 
REMARK    2  A    between atoms: N3_11  and  C7_13 
REMARK    3  A    between atoms: C7_13  and  C8_14 
REMARK    4  A    between atoms: C9_15  and  C10_16 
REMARK    5  A    between atoms: C10_16  and  N4_17 
REMARK    6  A    between atoms: N4_17  and  C13_20 
ROOT
HETATM    1  C3  UNL     1      29.592  -8.988  20.042  1.00  0.00     0.035 A 
HETATM    2  C4  UNL     1      28.232  -8.760  19.929  1.00  0.00     0.034 A 
HETATM    3  C5  UNL     1      27.287  -9.529  19.087  1.00  0.00     0.070 C 
HETATM    4  N1  UNL     1      27.948  -7.721  20.724  1.00  0.00    -0.291 N 
ATOM      5  H1  UNL     1      27.015  -7.326  20.843  1.00  0.00     0.187 HD
HETATM    6  N2  UNL     1      29.034  -7.271  21.335  1.00  0.00    -0.168 N 
HETATM    7  C6  UNL     1      29.125  -6.182  22.253  1.00  0.00     0.345 C 
HETATM    8  O1  UNL     1      30.210  -5.858  22.763  1.00  0.00    -0.245 OA
HETATM    9  N3  UNL     1      27.941  -5.479  22.570  1.00  0.00    -0.331 N 
ATOM     10  H3  UNL     1      27.049  -5.743  22.152  1.00  0.00     0.165 HD
HETATM   11  C15 UNL     1      30.067  -8.044  20.925  1.00  0.00     0.278 A 
HETATM   12  O2  UNL     1      31.247  -7.867  21.331  1.00  0.00    -0.265 OA
ENDROOT
BRANCH   9  13
HETATM   13  C7  UNL     1      28.022  -4.374  23.502  1.00  0.00     0.219 C 
BRANCH  13  14
HETATM   14  C8  UNL     1      26.690  -3.889  23.835  1.00  0.00    -0.085 C 
HETATM   15  C9  UNL     1      25.569  -3.463  24.097  1.00  0.00    -0.077 C 
BRANCH  15  16
HETATM   16  C10 UNL     1      24.239  -2.933  24.395  1.00  0.00     0.330 C 
BRANCH  16  17
HETATM   17  N4  UNL     1      24.381  -1.801  25.300  1.00  0.00    -0.065 N 
HETATM   18  C11 UNL     1      25.395  -0.940  24.762  1.00  0.00     0.273 C 
HETATM   19  C12 UNL     1      24.873  -2.381  26.561  1.00  0.00     0.273 C 
BRANCH  17  20
HETATM   20  C13 UNL     1      23.135  -1.138  25.546  1.00  0.00     0.233 C 
HETATM   21  C14 UNL     1      22.665  -0.277  24.395  1.00  0.00     0.035 C 
ENDBRANCH  17  20
ENDBRANCH  16  17
ENDBRANCH  15  16
ENDBRANCH  13  14
ENDBRANCH   9  13
BRANCH   1  22
HETATM   22  C2  UNL     1      30.416 -10.013  19.381  1.00  0.00     0.042 C 
HETATM   23  C1  UNL     1      31.211  -9.465  18.224  1.00  0.00     0.010 C 
ENDBRANCH   1  22
TORSDOF 6
ENDMDL
MODEL 5
REMARK VINA RESULT: -6.697107570      2.147      7.768
REMARK  6 active torsions:
REMARK  status: ('A' for Active; 'I' for Inactive)
REMARK    1  A    between atoms: C2_2  and  C3_3 
REMARK       I    between atoms: N2_8  and  C6_9 
REMARK       I    between atoms: C6_9  and  N3_11 
REMARK    2  A    between atoms: N3_11  and  C7_13 
REMARK    3  A    between atoms: C7_13  and  C8_14 
REMARK    4  A    between atoms: C9_15  and  C10_16 
REMARK    5  A    between atoms: C10_16  and  N4_17 
REMARK    6  A    between atoms: N4_17  and  C13_20 
ROOT
HETATM    1  C3  UNL     1      21.463  -2.347  25.153  1.00  0.00     0.035 A 
HETATM    2  C4  UNL     1      21.658  -3.501  24.413  1.00  0.00     0.034 A 
HETATM    3  C5  UNL     1      20.601  -4.435  23.963  1.00  0.00     0.070 C 
HETATM    4  N1  UNL     1      22.974  -3.599  24.190  1.00  0.00    -0.291 N 
ATOM      5  H1  UNL     1      23.415  -4.355  23.667  1.00  0.00     0.187 HD
HETATM    6  N2  UNL     1      23.632  -2.586  24.738  1.00  0.00    -0.168 N 
HETATM    7  C6  UNL     1      25.039  -2.350  24.711  1.00  0.00     0.345 C 
HETATM    8  O1  UNL     1      25.536  -1.356  25.264  1.00  0.00    -0.245 OA
HETATM    9  N3  UNL     1      25.857  -3.282  24.033  1.00  0.00    -0.331 N 
ATOM     10  H3  UNL     1      25.451  -4.099  23.578  1.00  0.00     0.165 HD
HETATM   11  C15 UNL     1      22.712  -1.798  25.340  1.00  0.00     0.278 A 
HETATM   12  O2  UNL     1      23.024  -0.744  25.957  1.00  0.00    -0.265 OA
ENDROOT
BRANCH   9  13
HETATM   13  C7  UNL     1      27.286  -3.050  23.998  1.00  0.00     0.219 C 
BRANCH  13  14
HETATM   14  C8  UNL     1      27.968  -4.171  23.367  1.00  0.00    -0.085 C 
HETATM   15  C9  UNL     1      28.534  -5.109  22.815  1.00  0.00    -0.077 C 
BRANCH  15  16
HETATM   16  C10 UNL     1      29.193  -6.223  22.132  1.00  0.00     0.330 C 
BRANCH  16  17
HETATM   17  N4  UNL     1      28.205  -7.264  21.881  1.00  0.00    -0.065 N 
HETATM   18  C11 UNL     1      28.042  -8.009  23.097  1.00  0.00     0.273 C 
HETATM   19  C12 UNL     1      28.822  -8.138  20.869  1.00  0.00     0.273 C 
BRANCH  17  20
HETATM   20  C13 UNL     1      26.979  -6.739  21.360  1.00  0.00     0.233 C 
HETATM   21  C14 UNL     1      25.743  -7.414  21.913  1.00  0.00     0.035 C 
ENDBRANCH  17  20
ENDBRANCH  16  17
ENDBRANCH  15  16
ENDBRANCH  13  14
ENDBRANCH   9  13
BRANCH   1  22
HETATM   22  C2  UNL     1      20.206  -1.776  25.660  1.00  0.00     0.042 C 
HETATM   23  C1  UNL     1      19.931  -2.152  27.094  1.00  0.00     0.010 C 
ENDBRANCH   1  22
TORSDOF 6
ENDMDL
