MODEL 1
REMARK VINA RESULT: -6.131985153      0.000      0.000
REMARK  4 active torsions:
REMARK  status: ('A' for Active; 'I' for Inactive)
REMARK       I    between atoms: C2_2  and  N1_4 
REMARK    1  A    between atoms: N1_4  and  C4_6 
REMARK    2  A    between atoms: C11_14  and  C12_15 
REMARK    3  A    between atoms: N3_16  and  N4_18 
REMARK    4  A    between atoms: N4_18  and  C13_20 
ROOT
HETATM    1  C4  UNL     1      27.328  -5.698  22.924  1.00  0.00     0.071 A 
HETATM    2  C5  UNL     1      28.267  -4.730  23.260  1.00  0.00    -0.031 A 
HETATM    3  C6  UNL     1      29.692  -4.980  23.112  1.00  0.00     0.050 C 
HETATM    4  C7  UNL     1      27.827  -3.519  23.739  1.00  0.00     0.033 A 
HETATM    5  C8  UNL     1      26.463  -3.319  23.865  1.00  0.00     0.008 A 
HETATM    6  C9  UNL     1      25.974  -2.016  24.381  1.00  0.00     0.068 C 
HETATM    7  N2  UNL     1      25.573  -4.262  23.536  1.00  0.00    -0.352 N 
HETATM    8  C10 UNL     1      24.182  -4.012  23.681  1.00  0.00     0.156 C 
HETATM    9  C11 UNL     1      25.992  -5.472  23.059  1.00  0.00     0.079 A 
ENDROOT
BRANCH   9  10
HETATM   10  C12 UNL     1      25.014  -6.447  22.720  1.00  0.00     0.139 C 
HETATM   11  N3  UNL     1      24.546  -6.719  21.551  1.00  0.00    -0.308 N 
ATOM     12  H3  UNL     1      24.893  -6.194  20.747  1.00  0.00     0.186 HD
BRANCH  11  13
HETATM   13  N4  UNL     1      23.590  -7.695  21.349  1.00  0.00    -0.279 N 
ATOM     14  H4  UNL     1      22.760  -7.732  21.941  1.00  0.00     0.189 HD
BRANCH  13  15
HETATM   15  C13 UNL     1      23.769  -8.644  20.316  1.00  0.00     0.199 C 
HETATM   16  N5  UNL     1      24.966  -8.781  19.567  1.00  0.00    -0.068 NA
HETATM   17  S1  UNL     1      22.543  -9.650  19.945  1.00  0.00    -0.043 SA
ENDBRANCH  13  15
ENDBRANCH  11  13
ENDBRANCH   9  10
BRANCH   1  18
HETATM   18  N1  UNL     1      27.838  -6.913  22.443  1.00  0.00    -0.320 N 
HETATM   19  C2  UNL     1      28.103  -7.042  21.049  1.00  0.00     0.220 C 
HETATM   20  C1  UNL     1      28.649  -8.310  20.473  1.00  0.00     0.117 C 
HETATM   21  O1  UNL     1      27.883  -6.089  20.271  1.00  0.00    -0.274 OA
HETATM   22  C3  UNL     1      28.136  -8.054  23.294  1.00  0.00     0.159 C 
ENDBRANCH   1  18
TORSDOF 4
ENDMDL
MODEL 2
REMARK VINA RESULT: -5.973553302      5.845      7.913
REMARK  4 active torsions:
REMARK  status: ('A' for Active; 'I' for Inactive)
REMARK       I    between atoms: C2_2  and  N1_4 
REMARK    1  A    between atoms: N1_4  and  C4_6 
REMARK    2  A    between atoms: C11_14  and  C12_15 
REMARK    3  A    between atoms: N3_16  and  N4_18 
REMARK    4  A    between atoms: N4_18  and  C13_20 
ROOT
HETATM    1  C4  UNL     1      21.506  -3.333  23.335  1.00  0.00     0.071 A 
HETATM    2  C5  UNL     1      22.631  -4.119  23.555  1.00  0.00    -0.031 A 
HETATM    3  C6  UNL     1      22.678  -5.505  23.115  1.00  0.00     0.050 C 
HETATM    4  C7  UNL     1      23.711  -3.564  24.199  1.00  0.00     0.033 A 
HETATM    5  C8  UNL     1      23.628  -2.243  24.602  1.00  0.00     0.008 A 
HETATM    6  C9  UNL     1      24.787  -1.631  25.299  1.00  0.00     0.068 C 
HETATM    7  N2  UNL     1      22.537  -1.500  24.382  1.00  0.00    -0.352 N 
HETATM    8  C10 UNL     1      22.496  -0.146  24.812  1.00  0.00     0.156 C 
HETATM    9  C11 UNL     1      21.453  -2.035  23.744  1.00  0.00     0.079 A 
ENDROOT
BRANCH   9  10
HETATM   10  C12 UNL     1      20.314  -1.211  23.529  1.00  0.00     0.139 C 
HETATM   11  N3  UNL     1      19.247  -1.142  24.249  1.00  0.00    -0.308 N 
ATOM     12  H3  UNL     1      19.172  -1.731  25.078  1.00  0.00     0.186 HD
BRANCH  11  13
HETATM   13  N4  UNL     1      18.201  -0.296  23.934  1.00  0.00    -0.279 N 
ATOM     14  H4  UNL     1      18.226   0.681  24.226  1.00  0.00     0.189 HD
BRANCH  13  15
HETATM   15  C13 UNL     1      17.096  -0.794  23.206  1.00  0.00     0.199 C 
HETATM   16  N5  UNL     1      16.693  -0.295  21.941  1.00  0.00    -0.068 NA
HETATM   17  S1  UNL     1      16.218  -2.013  23.837  1.00  0.00    -0.043 SA
ENDBRANCH  13  15
ENDBRANCH  11  13
ENDBRANCH   9  10
BRANCH   1  18
HETATM   18  N1  UNL     1      20.436  -3.954  22.675  1.00  0.00    -0.320 N 
HETATM   19  C2  UNL     1      19.384  -4.518  23.453  1.00  0.00     0.220 C 
HETATM   20  C1  UNL     1      18.214  -5.193  22.810  1.00  0.00     0.117 C 
HETATM   21  O1  UNL     1      19.417  -4.459  24.701  1.00  0.00    -0.274 OA
HETATM   22  C3  UNL     1      20.325  -4.041  21.227  1.00  0.00     0.159 C 
ENDBRANCH   1  18
TORSDOF 4
ENDMDL
MODEL 3
REMARK VINA RESULT: -5.923424064      3.632      5.892
REMARK  4 active torsions:
REMARK  status: ('A' for Active; 'I' for Inactive)
REMARK       I    between atoms: C2_2  and  N1_4 
REMARK    1  A    between atoms: N1_4  and  C4_6 
REMARK    2  A    between atoms: C11_14  and  C12_15 
REMARK    3  A    between atoms: N3_16  and  N4_18 
REMARK    4  A    between atoms: N4_18  and  C13_20 
ROOT
HETATM    1  C4  UNL     1      23.457  -3.332  24.105  1.00  0.00     0.071 A 
HETATM    2  C5  UNL     1      24.491  -2.511  24.540  1.00  0.00    -0.031 A 
HETATM    3  C6  UNL     1      24.218  -1.261  25.232  1.00  0.00     0.050 C 
HETATM    4  C7  UNL     1      25.788  -2.899  24.305  1.00  0.00     0.033 A 
HETATM    5  C8  UNL     1      26.006  -4.094  23.643  1.00  0.00     0.008 A 
HETATM    6  C9  UNL     1      27.403  -4.526  23.383  1.00  0.00     0.068 C 
HETATM    7  N2  UNL     1      25.000  -4.873  23.232  1.00  0.00    -0.352 N 
HETATM    8  C10 UNL     1      25.271  -6.094  22.556  1.00  0.00     0.156 C 
HETATM    9  C11 UNL     1      23.703  -4.504  23.455  1.00  0.00     0.079 A 
ENDROOT
BRANCH   9  10
HETATM   10  C12 UNL     1      22.662  -5.360  23.003  1.00  0.00     0.139 C 
HETATM   11  N3  UNL     1      21.919  -6.138  23.712  1.00  0.00    -0.308 N 
ATOM     12  H3  UNL     1      22.064  -6.172  24.722  1.00  0.00     0.186 HD
BRANCH  11  13
HETATM   13  N4  UNL     1      20.934  -6.928  23.152  1.00  0.00    -0.279 N 
ATOM     14  H4  UNL     1      21.186  -7.715  22.552  1.00  0.00     0.189 HD
BRANCH  13  15
HETATM   15  C13 UNL     1      19.575  -6.639  23.414  1.00  0.00     0.199 C 
HETATM   16  N5  UNL     1      19.087  -5.343  23.717  1.00  0.00    -0.068 NA
HETATM   17  S1  UNL     1      18.487  -7.851  23.371  1.00  0.00    -0.043 SA
ENDBRANCH  13  15
ENDBRANCH  11  13
ENDBRANCH   9  10
BRANCH   1  18
HETATM   18  N1  UNL     1      22.156  -2.883  24.371  1.00  0.00    -0.320 N 
HETATM   19  C2  UNL     1      21.510  -3.318  25.564  1.00  0.00     0.220 C 
HETATM   20  C1  UNL     1      20.124  -2.873  25.908  1.00  0.00     0.117 C 
HETATM   21  O1  UNL     1      22.095  -4.089  26.356  1.00  0.00    -0.274 OA
HETATM   22  C3  UNL     1      21.425  -1.971  23.505  1.00  0.00     0.159 C 
ENDBRANCH   1  18
TORSDOF 4
ENDMDL
MODEL 4
REMARK VINA RESULT: -5.920457795      4.691      6.966
REMARK  4 active torsions:
REMARK  status: ('A' for Active; 'I' for Inactive)
REMARK       I    between atoms: C2_2  and  N1_4 
REMARK    1  A    between atoms: N1_4  and  C4_6 
REMARK    2  A    between atoms: C11_14  and  C12_15 
REMARK    3  A    between atoms: N3_16  and  N4_18 
REMARK    4  A    between atoms: N4_18  and  C13_20 
ROOT
HETATM    1  C4  UNL     1      21.462  -1.980  24.046  1.00  0.00     0.071 A 
HETATM    2  C5  UNL     1      21.801  -0.704  24.479  1.00  0.00    -0.031 A 
HETATM    3  C6  UNL     1      20.792   0.334  24.624  1.00  0.00     0.050 C 
HETATM    4  C7  UNL     1      23.116  -0.431  24.772  1.00  0.00     0.033 A 
HETATM    5  C8  UNL     1      24.046  -1.445  24.622  1.00  0.00     0.008 A 
HETATM    6  C9  UNL     1      25.470  -1.164  24.936  1.00  0.00     0.068 C 
HETATM    7  N2  UNL     1      23.703  -2.668  24.205  1.00  0.00    -0.352 N 
HETATM    8  C10 UNL     1      24.691  -3.680  24.066  1.00  0.00     0.156 C 
HETATM    9  C11 UNL     1      22.400  -2.958  23.908  1.00  0.00     0.079 A 
ENDROOT
BRANCH   9  10
HETATM   10  C12 UNL     1      22.077  -4.271  23.468  1.00  0.00     0.139 C 
HETATM   11  N3  UNL     1      21.664  -5.260  24.182  1.00  0.00    -0.308 N 
ATOM     12  H3  UNL     1      21.541  -5.126  25.187  1.00  0.00     0.186 HD
BRANCH  11  13
HETATM   13  N4  UNL     1      21.381  -6.497  23.635  1.00  0.00    -0.279 N 
ATOM     14  H4  UNL     1      21.936  -6.852  22.855  1.00  0.00     0.189 HD
BRANCH  13  15
HETATM   15  C13 UNL     1      20.319  -7.267  24.161  1.00  0.00     0.199 C 
HETATM   16  N5  UNL     1      20.348  -7.887  25.436  1.00  0.00    -0.068 NA
HETATM   17  S1  UNL     1      18.971  -7.468  23.269  1.00  0.00    -0.043 SA
ENDBRANCH  13  15
ENDBRANCH  11  13
ENDBRANCH   9  10
BRANCH   1  18
HETATM   18  N1  UNL     1      20.106  -2.197  23.761  1.00  0.00    -0.320 N 
HETATM   19  C2  UNL     1      19.626  -1.910  22.451  1.00  0.00     0.220 C 
HETATM   20  C1  UNL     1      18.192  -2.121  22.082  1.00  0.00     0.117 C 
HETATM   21  O1  UNL     1      20.402  -1.471  21.574  1.00  0.00    -0.274 OA
HETATM   22  C3  UNL     1      19.154  -2.723  24.727  1.00  0.00     0.159 C 
ENDBRANCH   1  18
TORSDOF 4
ENDMDL
MODEL 5
REMARK VINA RESULT: -5.853621744      4.182      6.574
REMARK  4 active torsions:
REMARK  status: ('A' for Active; 'I' for Inactive)
REMARK       I    between atoms: C2_2  and  N1_4 
REMARK    1  A    between atoms: N1_4  and  C4_6 
REMARK    2  A    between atoms: C11_14  and  C12_15 
REMARK    3  A    between atoms: N3_16  and  N4_18 
REMARK    4  A    between atoms: N4_18  and  C13_20 
ROOT
HETATM    1  C4  UNL     1      22.156  -2.344  24.408  1.00  0.00     0.071 A 
HETATM    2  C5  UNL     1      22.867  -1.223  24.822  1.00  0.00    -0.031 A 
HETATM    3  C6  UNL     1      22.182  -0.023  25.276  1.00  0.00     0.050 C 
HETATM    4  C7  UNL     1      24.241  -1.263  24.796  1.00  0.00     0.033 A 
HETATM    5  C8  UNL     1      24.856  -2.423  24.358  1.00  0.00     0.008 A 
HETATM    6  C9  UNL     1      26.339  -2.480  24.325  1.00  0.00     0.068 C 
HETATM    7  N2  UNL     1      24.157  -3.493  23.964  1.00  0.00    -0.352 N 
HETATM    8  C10 UNL     1      24.830  -4.664  23.522  1.00  0.00     0.156 C 
HETATM    9  C11 UNL     1      22.790  -3.471  23.982  1.00  0.00     0.079 A 
ENDROOT
BRANCH   9  10
HETATM   10  C12 UNL     1      22.084  -4.630  23.555  1.00  0.00     0.139 C 
HETATM   11  N3  UNL     1      21.566  -5.551  24.293  1.00  0.00    -0.308 N 
ATOM     12  H3  UNL     1      21.650  -5.476  25.307  1.00  0.00     0.186 HD
BRANCH  11  13
HETATM   13  N4  UNL     1      20.900  -6.636  23.756  1.00  0.00    -0.279 N 
ATOM     14  H4  UNL     1      20.366  -6.534  22.892  1.00  0.00     0.189 HD
BRANCH  13  15
HETATM   15  C13 UNL     1      20.963  -7.887  24.411  1.00  0.00     0.199 C 
HETATM   16  N5  UNL     1      20.115  -8.261  25.484  1.00  0.00    -0.068 NA
HETATM   17  S1  UNL     1      22.068  -8.980  23.922  1.00  0.00    -0.043 SA
ENDBRANCH  13  15
ENDBRANCH  11  13
ENDBRANCH   9  10
BRANCH   1  18
HETATM   18  N1  UNL     1      20.759  -2.242  24.455  1.00  0.00    -0.320 N 
HETATM   19  C2  UNL     1      20.070  -1.727  23.320  1.00  0.00     0.220 C 
HETATM   20  C1  UNL     1      18.580  -1.595  23.305  1.00  0.00     0.117 C 
HETATM   21  O1  UNL     1      20.703  -1.372  22.302  1.00  0.00    -0.274 OA
HETATM   22  C3  UNL     1      19.959  -2.655  25.598  1.00  0.00     0.159 C 
ENDBRANCH   1  18
TORSDOF 4
ENDMDL
