MODEL 1
REMARK VINA RESULT: -7.847995249      0.000      0.000
REMARK  4 active torsions:
REMARK  status: ('A' for Active; 'I' for Inactive)
REMARK    1  A    between atoms: C3_3  and  N1_4 
REMARK    2  A    between atoms: N3_9  and  C6_11 
REMARK    3  A    between atoms: C8_13  and  S1_14 
REMARK    4  A    between atoms: S1_14  and  N4_15 
ROOT
HETATM    1  C1  UNL     1      21.060  -2.234  23.008  1.00  0.00     0.014 C 
HETATM    2  C2  UNL     1      21.698  -2.744  23.896  1.00  0.00    -0.098 C 
HETATM    3  C3  UNL     1      22.493  -3.373  24.980  1.00  0.00     0.218 C 
ENDROOT
BRANCH   3   4
HETATM    4  N1  UNL     1      23.853  -2.891  24.849  1.00  0.00    -0.352 N 
HETATM    5  C4  UNL     1      24.943  -3.586  24.253  1.00  0.00     0.112 A 
HETATM    6  N2  UNL     1      24.981  -4.649  23.428  1.00  0.00    -0.327 N 
HETATM    7  C10 UNL     1      26.140  -3.025  24.629  1.00  0.00    -0.011 A 
HETATM    8  C5  UNL     1      26.135  -5.166  22.969  1.00  0.00     0.126 A 
ATOM      9  H2  UNL     1      24.102  -5.078  23.139  1.00  0.00     0.169 HD
HETATM   10  N3  UNL     1      26.140  -6.181  22.181  1.00  0.00    -0.375 N 
HETATM   11  C8  UNL     1      27.331  -4.596  23.351  1.00  0.00     0.123 A 
ATOM     12  H3  UNL     1      27.043  -6.532  21.864  1.00  0.00     0.161 HD
HETATM   13  C9  UNL     1      27.363  -3.496  24.202  1.00  0.00     0.040 A 
HETATM   14  C11 UNL     1      25.855  -1.868  25.538  1.00  0.00     0.067 C 
HETATM   15  C12 UNL     1      24.378  -1.606  25.298  1.00  0.00     0.087 C 
HETATM   16  C13 UNL     1      24.275  -0.558  24.217  1.00  0.00     0.033 C 
BRANCH  10  17
HETATM   17  C6  UNL     1      24.964  -6.852  21.718  1.00  0.00     0.116 C 
HETATM   18  C7  UNL     1      24.653  -8.131  22.457  1.00  0.00     0.026 C 
ENDBRANCH  10  17
BRANCH  11  19
HETATM   19  S1  UNL     1      28.873  -5.216  22.794  1.00  0.00     0.260 S 
HETATM   20  O1  UNL     1      28.830  -5.502  21.314  1.00  0.00    -0.201 OA
HETATM   21  O2  UNL     1      29.212  -6.525  23.492  1.00  0.00    -0.201 OA
BRANCH  19  22
HETATM   22  N4  UNL     1      30.127  -4.074  23.056  1.00  0.00    -0.324 N 
ATOM     23  H42 UNL     1      30.053  -3.086  22.813  1.00  0.00     0.169 HD
ATOM     24  H41 UNL     1      30.941  -4.516  23.483  1.00  0.00     0.169 HD
ENDBRANCH  19  22
ENDBRANCH  11  19
ENDBRANCH   3   4
TORSDOF 4
ENDMDL
MODEL 2
REMARK VINA RESULT: -7.175074528      4.660      6.363
REMARK  4 active torsions:
REMARK  status: ('A' for Active; 'I' for Inactive)
REMARK    1  A    between atoms: C3_3  and  N1_4 
REMARK    2  A    between atoms: N3_9  and  C6_11 
REMARK    3  A    between atoms: C8_13  and  S1_14 
REMARK    4  A    between atoms: S1_14  and  N4_15 
ROOT
HETATM    1  C1  UNL     1      28.453  -3.653  23.707  1.00  0.00     0.014 C 
HETATM    2  C2  UNL     1      27.304  -4.021  23.689  1.00  0.00    -0.098 C 
HETATM    3  C3  UNL     1      25.889  -4.468  23.679  1.00  0.00     0.218 C 
ENDROOT
BRANCH   3   4
HETATM    4  N1  UNL     1      25.095  -3.391  24.236  1.00  0.00    -0.352 N 
HETATM    5  C4  UNL     1      23.690  -3.214  24.092  1.00  0.00     0.112 A 
HETATM    6  N2  UNL     1      22.717  -4.063  23.715  1.00  0.00    -0.327 N 
HETATM    7  C10 UNL     1      23.329  -1.926  24.408  1.00  0.00    -0.011 A 
HETATM    8  C5  UNL     1      21.425  -3.694  23.640  1.00  0.00     0.126 A 
ATOM      9  H2  UNL     1      22.967  -5.023  23.478  1.00  0.00     0.169 HD
HETATM   10  N3  UNL     1      20.518  -4.528  23.277  1.00  0.00    -0.375 N 
HETATM   11  C8  UNL     1      21.072  -2.401  23.958  1.00  0.00     0.123 A 
ATOM     12  H3  UNL     1      19.554  -4.195  23.237  1.00  0.00     0.161 HD
HETATM   13  C9  UNL     1      22.029  -1.472  24.356  1.00  0.00     0.040 A 
HETATM   14  C11 UNL     1      24.563  -1.170  24.796  1.00  0.00     0.067 C 
HETATM   15  C12 UNL     1      25.572  -2.278  25.050  1.00  0.00     0.087 C 
HETATM   16  C13 UNL     1      25.519  -2.608  26.522  1.00  0.00     0.033 C 
BRANCH  10  17
HETATM   17  C6  UNL     1      20.765  -5.893  22.925  1.00  0.00     0.116 C 
HETATM   18  C7  UNL     1      20.377  -6.885  23.996  1.00  0.00     0.026 C 
ENDBRANCH  10  17
BRANCH  11  19
HETATM   19  S1  UNL     1      19.410  -1.848  23.883  1.00  0.00     0.260 S 
HETATM   20  O1  UNL     1      18.532  -2.674  24.789  1.00  0.00    -0.201 OA
HETATM   21  O2  UNL     1      18.857  -1.993  22.473  1.00  0.00    -0.201 OA
BRANCH  19  22
HETATM   22  N4  UNL     1      19.280  -0.215  24.396  1.00  0.00    -0.324 N 
ATOM     23  H42 UNL     1      19.845   0.190  25.142  1.00  0.00     0.169 HD
ATOM     24  H41 UNL     1      18.570   0.282  23.858  1.00  0.00     0.169 HD
ENDBRANCH  19  22
ENDBRANCH  11  19
ENDBRANCH   3   4
TORSDOF 4
ENDMDL
MODEL 3
REMARK VINA RESULT: -6.672370559      5.548      7.436
REMARK  4 active torsions:
REMARK  status: ('A' for Active; 'I' for Inactive)
REMARK    1  A    between atoms: C3_3  and  N1_4 
REMARK    2  A    between atoms: N3_9  and  C6_11 
REMARK    3  A    between atoms: C8_13  and  S1_14 
REMARK    4  A    between atoms: S1_14  and  N4_15 
ROOT
HETATM    1  C1  UNL     1      26.676  -2.550  24.092  1.00  0.00     0.014 C 
HETATM    2  C2  UNL     1      25.570  -3.033  24.091  1.00  0.00    -0.098 C 
HETATM    3  C3  UNL     1      24.207  -3.619  24.101  1.00  0.00     0.218 C 
ENDROOT
BRANCH   3   4
HETATM    4  N1  UNL     1      23.284  -2.554  24.438  1.00  0.00    -0.352 N 
HETATM    5  C4  UNL     1      21.886  -2.531  24.174  1.00  0.00     0.112 A 
HETATM    6  N2  UNL     1      21.020  -3.512  23.859  1.00  0.00    -0.327 N 
HETATM    7  C10 UNL     1      21.395  -1.251  24.271  1.00  0.00    -0.011 A 
HETATM    8  C5  UNL     1      19.713  -3.278  23.642  1.00  0.00     0.126 A 
ATOM      9  H2  UNL     1      21.367  -4.467  23.783  1.00  0.00     0.169 HD
HETATM   10  N3  UNL     1      18.910  -4.236  23.344  1.00  0.00    -0.375 N 
HETATM   11  C8  UNL     1      19.229  -1.992  23.742  1.00  0.00     0.123 A 
ATOM     12  H3  UNL     1      17.928  -4.003  23.189  1.00  0.00     0.161 HD
HETATM   13  C9  UNL     1      20.071  -0.931  24.064  1.00  0.00     0.040 A 
HETATM   14  C11 UNL     1      22.527  -0.336  24.629  1.00  0.00     0.067 C 
HETATM   15  C12 UNL     1      23.599  -1.298  25.112  1.00  0.00     0.087 C 
HETATM   16  C13 UNL     1      23.454  -1.422  26.609  1.00  0.00     0.033 C 
BRANCH  10  17
HETATM   17  C6  UNL     1      19.297  -5.608  23.214  1.00  0.00     0.116 C 
HETATM   18  C7  UNL     1      18.145  -6.552  22.965  1.00  0.00     0.026 C 
ENDBRANCH  10  17
BRANCH  11  19
HETATM   19  S1  UNL     1      17.539  -1.613  23.472  1.00  0.00     0.260 S 
HETATM   20  O1  UNL     1      16.662  -2.372  24.435  1.00  0.00    -0.201 OA
HETATM   21  O2  UNL     1      17.114  -2.016  22.068  1.00  0.00    -0.201 OA
BRANCH  19  22
HETATM   22  N4  UNL     1      17.236   0.059  23.716  1.00  0.00    -0.324 N 
ATOM     23  H42 UNL     1      17.967   0.770  23.730  1.00  0.00     0.169 HD
ATOM     24  H41 UNL     1      16.239   0.236  23.841  1.00  0.00     0.169 HD
ENDBRANCH  19  22
ENDBRANCH  11  19
ENDBRANCH   3   4
TORSDOF 4
ENDMDL
MODEL 4
REMARK VINA RESULT: -6.659081915      1.984      3.770
REMARK  4 active torsions:
REMARK  status: ('A' for Active; 'I' for Inactive)
REMARK    1  A    between atoms: C3_3  and  N1_4 
REMARK    2  A    between atoms: N3_9  and  C6_11 
REMARK    3  A    between atoms: C8_13  and  S1_14 
REMARK    4  A    between atoms: S1_14  and  N4_15 
ROOT
HETATM    1  C1  UNL     1      20.893   0.071  24.786  1.00  0.00     0.014 C 
HETATM    2  C2  UNL     1      21.921  -0.560  24.837  1.00  0.00    -0.098 C 
HETATM    3  C3  UNL     1      23.179  -1.345  24.907  1.00  0.00     0.218 C 
ENDROOT
BRANCH   3   4
HETATM    4  N1  UNL     1      22.863  -2.697  24.495  1.00  0.00    -0.352 N 
HETATM    5  C4  UNL     1      23.766  -3.643  23.931  1.00  0.00     0.112 A 
HETATM    6  N2  UNL     1      25.110  -3.689  23.908  1.00  0.00    -0.327 N 
HETATM    7  C10 UNL     1      23.079  -4.662  23.316  1.00  0.00    -0.011 A 
HETATM    8  C5  UNL     1      25.788  -4.687  23.310  1.00  0.00     0.126 A 
ATOM      9  H2  UNL     1      25.636  -2.941  24.359  1.00  0.00     0.169 HD
HETATM   10  N3  UNL     1      27.073  -4.704  23.305  1.00  0.00    -0.375 N 
HETATM   11  C8  UNL     1      25.091  -5.705  22.696  1.00  0.00     0.123 A 
ATOM     12  H3  UNL     1      27.535  -5.484  22.837  1.00  0.00     0.161 HD
HETATM   13  C9  UNL     1      23.700  -5.718  22.684  1.00  0.00     0.040 A 
HETATM   14  C11 UNL     1      21.611  -4.403  23.469  1.00  0.00     0.067 C 
HETATM   15  C12 UNL     1      21.565  -3.360  24.573  1.00  0.00     0.087 C 
HETATM   16  C13 UNL     1      21.396  -4.093  25.881  1.00  0.00     0.033 C 
BRANCH  10  17
HETATM   17  C6  UNL     1      27.899  -3.705  23.910  1.00  0.00     0.116 C 
HETATM   18  C7  UNL     1      29.314  -3.674  23.382  1.00  0.00     0.026 C 
ENDBRANCH  10  17
BRANCH  11  19
HETATM   19  S1  UNL     1      25.906  -7.036  21.898  1.00  0.00     0.260 S 
HETATM   20  O1  UNL     1      26.695  -7.851  22.891  1.00  0.00    -0.201 OA
HETATM   21  O2  UNL     1      26.892  -6.520  20.860  1.00  0.00    -0.201 OA
BRANCH  19  22
HETATM   22  N4  UNL     1      24.777  -8.093  21.154  1.00  0.00    -0.324 N 
ATOM     23  H42 UNL     1      24.583  -8.099  20.152  1.00  0.00     0.169 HD
ATOM     24  H41 UNL     1      24.336  -8.702  21.843  1.00  0.00     0.169 HD
ENDBRANCH  19  22
ENDBRANCH  11  19
ENDBRANCH   3   4
TORSDOF 4
ENDMDL
MODEL 5
REMARK VINA RESULT: -6.585196574      0.990      1.008
REMARK  4 active torsions:
REMARK  status: ('A' for Active; 'I' for Inactive)
REMARK    1  A    between atoms: C3_3  and  N1_4 
REMARK    2  A    between atoms: N3_9  and  C6_11 
REMARK    3  A    between atoms: C8_13  and  S1_14 
REMARK    4  A    between atoms: S1_14  and  N4_15 
ROOT
HETATM    1  C1  UNL     1      21.511  -1.454  23.728  1.00  0.00     0.014 C 
HETATM    2  C2  UNL     1      22.129  -2.194  24.454  1.00  0.00    -0.098 C 
HETATM    3  C3  UNL     1      22.897  -3.107  25.336  1.00  0.00     0.218 C 
ENDROOT
BRANCH   3   4
HETATM    4  N1  UNL     1      24.298  -2.944  25.006  1.00  0.00    -0.352 N 
HETATM    5  C4  UNL     1      25.093  -3.832  24.228  1.00  0.00     0.112 A 
HETATM    6  N2  UNL     1      24.756  -4.820  23.378  1.00  0.00    -0.327 N 
HETATM    7  C10 UNL     1      26.430  -3.586  24.427  1.00  0.00    -0.011 A 
HETATM    8  C5  UNL     1      25.675  -5.558  22.729  1.00  0.00     0.126 A 
ATOM      9  H2  UNL     1      23.768  -5.015  23.218  1.00  0.00     0.169 HD
HETATM   10  N3  UNL     1      25.323  -6.494  21.922  1.00  0.00    -0.375 N 
HETATM   11  C8  UNL     1      27.014  -5.305  22.934  1.00  0.00     0.123 A 
ATOM     12  H3  UNL     1      26.061  -7.024  21.457  1.00  0.00     0.161 HD
HETATM   13  C9  UNL     1      27.430  -4.298  23.800  1.00  0.00     0.040 A 
HETATM   14  C11 UNL     1      26.564  -2.456  25.400  1.00  0.00     0.067 C 
HETATM   15  C12 UNL     1      25.173  -1.845  25.403  1.00  0.00     0.087 C 
HETATM   16  C13 UNL     1      25.164  -0.735  24.381  1.00  0.00     0.033 C 
BRANCH  10  17
HETATM   17  C6  UNL     1      23.967  -6.846  21.631  1.00  0.00     0.116 C 
HETATM   18  C7  UNL     1      23.411  -7.940  22.511  1.00  0.00     0.026 C 
ENDBRANCH  10  17
BRANCH  11  19
HETATM   19  S1  UNL     1      28.267  -6.226  22.125  1.00  0.00     0.260 S 
HETATM   20  O1  UNL     1      28.034  -6.249  20.635  1.00  0.00    -0.201 OA
HETATM   21  O2  UNL     1      28.263  -7.673  22.599  1.00  0.00    -0.201 OA
BRANCH  19  22
HETATM   22  N4  UNL     1      29.813  -5.530  22.389  1.00  0.00    -0.324 N 
ATOM     23  H42 UNL     1      29.953  -4.591  22.764  1.00  0.00     0.169 HD
ATOM     24  H41 UNL     1      30.556  -6.176  22.124  1.00  0.00     0.169 HD
ENDBRANCH  19  22
ENDBRANCH  11  19
ENDBRANCH   3   4
TORSDOF 4
ENDMDL
