MODEL 1
REMARK VINA RESULT: -6.457257082      0.000      0.000
REMARK  3 active torsions:
REMARK  status: ('A' for Active; 'I' for Inactive)
REMARK    1  A    between atoms: C2_2  and  C3_3 
REMARK    2  A    between atoms: C3_3  and  C4_4 
REMARK    3  A    between atoms: C4_4  and  N1_5 
ROOT
HETATM    1  N1  UNL     1      23.167  -3.344  24.156  1.00  0.00    -0.322 N 
HETATM    2  C5  UNL     1      22.811  -4.712  23.952  1.00  0.00     0.325 C 
HETATM    3  O1  UNL     1      23.330  -5.441  23.066  1.00  0.00    -0.247 OA
HETATM    4  N2  UNL     1      21.808  -5.320  24.788  1.00  0.00    -0.279 N 
ATOM      5  H2  UNL     1      21.547  -6.297  24.648  1.00  0.00     0.173 HD
HETATM    6  C6  UNL     1      21.186  -4.556  25.804  1.00  0.00     0.228 C 
HETATM    7  O2  UNL     1      20.180  -5.009  26.424  1.00  0.00    -0.273 OA
HETATM    8  C7  UNL     1      21.742  -3.214  26.120  1.00  0.00     0.136 C 
HETATM    9  C8  UNL     1      22.164  -2.511  24.807  1.00  0.00     0.077 C 
HETATM   10  C9  UNL     1      22.803  -1.202  25.200  1.00  0.00     0.036 C 
HETATM   11  C10 UNL     1      21.785  -0.276  25.833  1.00  0.00     0.033 C 
HETATM   12  C11 UNL     1      20.719  -0.078  24.776  1.00  0.00     0.273 C 
HETATM   13  N3  UNL     1      20.066  -1.315  24.566  1.00  0.00     0.099 N 
HETATM   14  C12 UNL     1      18.800  -1.254  23.926  1.00  0.00     0.300 C 
HETATM   15  C13 UNL     1      18.656  -2.221  22.770  1.00  0.00     0.262 C 
HETATM   16  N4  UNL     1      19.769  -2.171  21.870  1.00  0.00    -0.071 N 
ATOM     17  H41 UNL     1      19.738  -1.328  21.297  1.00  0.00     0.277 HD
ATOM     18  H42 UNL     1      19.677  -2.874  21.136  1.00  0.00     0.277 HD
HETATM   19  C14 UNL     1      21.047  -2.292  22.548  1.00  0.00     0.270 C 
HETATM   20  C15 UNL     1      20.891  -2.369  24.033  1.00  0.00     0.277 C 
ENDROOT
BRANCH   1  21
HETATM   21  C4  UNL     1      24.458  -2.940  23.726  1.00  0.00     0.128 C 
BRANCH  21  22
HETATM   22  C3  UNL     1      25.608  -3.367  24.603  1.00  0.00     0.020 C 
BRANCH  22  23
HETATM   23  C2  UNL     1      26.563  -4.190  23.738  1.00  0.00    -0.003 C 
HETATM   24  C1  UNL     1      27.889  -3.449  23.758  1.00  0.00     0.005 C 
ENDBRANCH  22  23
ENDBRANCH  21  22
ENDBRANCH   1  21
TORSDOF 3
ENDMDL
MODEL 2
REMARK VINA RESULT: -6.140342913      1.413      1.767
REMARK  3 active torsions:
REMARK  status: ('A' for Active; 'I' for Inactive)
REMARK    1  A    between atoms: C2_2  and  C3_3 
REMARK    2  A    between atoms: C3_3  and  C4_4 
REMARK    3  A    between atoms: C4_4  and  N1_5 
ROOT
HETATM    1  N1  UNL     1      22.652  -3.768  24.755  1.00  0.00    -0.322 N 
HETATM    2  C5  UNL     1      22.851  -4.818  23.807  1.00  0.00     0.325 C 
HETATM    3  O1  UNL     1      23.846  -4.880  23.038  1.00  0.00    -0.247 OA
HETATM    4  N2  UNL     1      21.882  -5.878  23.701  1.00  0.00    -0.279 N 
ATOM      5  H2  UNL     1      22.017  -6.631  23.026  1.00  0.00     0.173 HD
HETATM    6  C6  UNL     1      20.740  -5.868  24.537  1.00  0.00     0.228 C 
HETATM    7  O2  UNL     1      19.790  -6.679  24.338  1.00  0.00    -0.273 OA
HETATM    8  C7  UNL     1      20.687  -4.883  25.651  1.00  0.00     0.136 C 
HETATM    9  C8  UNL     1      21.275  -3.534  25.170  1.00  0.00     0.077 C 
HETATM   10  C9  UNL     1      21.280  -2.612  26.364  1.00  0.00     0.036 C 
HETATM   11  C10 UNL     1      19.866  -2.292  26.802  1.00  0.00     0.033 C 
HETATM   12  C11 UNL     1      19.217  -1.639  25.599  1.00  0.00     0.273 C 
HETATM   13  N3  UNL     1      19.114  -2.605  24.571  1.00  0.00     0.099 N 
HETATM   14  C12 UNL     1      18.193  -2.316  23.530  1.00  0.00     0.300 C 
HETATM   15  C13 UNL     1      18.771  -2.485  22.141  1.00  0.00     0.262 C 
HETATM   16  N4  UNL     1      20.041  -1.843  21.993  1.00  0.00    -0.071 N 
ATOM     17  H41 UNL     1      19.933  -0.830  21.931  1.00  0.00     0.277 HD
ATOM     18  H42 UNL     1      20.437  -2.024  21.070  1.00  0.00     0.277 HD
HETATM   19  C14 UNL     1      20.980  -2.201  23.040  1.00  0.00     0.270 C 
HETATM   20  C15 UNL     1      20.366  -3.105  24.061  1.00  0.00     0.277 C 
ENDROOT
BRANCH   1  21
HETATM   21  C4  UNL     1      23.805  -3.077  25.207  1.00  0.00     0.128 C 
BRANCH  21  22
HETATM   22  C3  UNL     1      24.087  -1.757  24.534  1.00  0.00     0.020 C 
BRANCH  22  23
HETATM   23  C2  UNL     1      25.582  -1.473  24.690  1.00  0.00    -0.003 C 
HETATM   24  C1  UNL     1      26.298  -2.716  24.187  1.00  0.00     0.005 C 
ENDBRANCH  22  23
ENDBRANCH  21  22
ENDBRANCH   1  21
TORSDOF 3
ENDMDL
MODEL 3
REMARK VINA RESULT: -5.931596873      2.001      3.057
REMARK  3 active torsions:
REMARK  status: ('A' for Active; 'I' for Inactive)
REMARK    1  A    between atoms: C2_2  and  C3_3 
REMARK    2  A    between atoms: C3_3  and  C4_4 
REMARK    3  A    between atoms: C4_4  and  N1_5 
ROOT
HETATM    1  N1  UNL     1      21.643  -2.319  24.156  1.00  0.00    -0.322 N 
HETATM    2  C5  UNL     1      22.550  -3.344  24.566  1.00  0.00     0.325 C 
HETATM    3  O1  UNL     1      23.743  -3.416  24.168  1.00  0.00    -0.247 OA
HETATM    4  N2  UNL     1      22.108  -4.363  25.483  1.00  0.00    -0.279 N 
ATOM      5  H2  UNL     1      22.750  -5.098  25.780  1.00  0.00     0.173 HD
HETATM    6  C6  UNL     1      20.779  -4.339  25.968  1.00  0.00     0.228 C 
HETATM    7  O2  UNL     1      20.316  -5.317  26.624  1.00  0.00    -0.273 OA
HETATM    8  C7  UNL     1      19.946  -3.139  25.690  1.00  0.00     0.136 C 
HETATM    9  C8  UNL     1      20.226  -2.643  24.250  1.00  0.00     0.077 C 
HETATM   10  C9  UNL     1      19.427  -1.378  24.062  1.00  0.00     0.036 C 
HETATM   11  C10 UNL     1      17.941  -1.671  24.096  1.00  0.00     0.033 C 
HETATM   12  C11 UNL     1      17.705  -2.649  22.965  1.00  0.00     0.273 C 
HETATM   13  N3  UNL     1      18.363  -3.861  23.280  1.00  0.00     0.099 N 
HETATM   14  C12 UNL     1      17.941  -5.009  22.560  1.00  0.00     0.300 C 
HETATM   15  C13 UNL     1      19.081  -5.808  21.966  1.00  0.00     0.262 C 
HETATM   16  N4  UNL     1      20.018  -4.988  21.260  1.00  0.00    -0.071 N 
ATOM     17  H41 UNL     1      19.635  -4.684  20.365  1.00  0.00     0.277 HD
ATOM     18  H42 UNL     1      20.807  -5.541  20.924  1.00  0.00     0.277 HD
HETATM   19  C14 UNL     1      20.474  -3.853  22.042  1.00  0.00     0.270 C 
HETATM   20  C15 UNL     1      19.799  -3.779  23.374  1.00  0.00     0.277 C 
ENDROOT
BRANCH   1  21
HETATM   21  C4  UNL     1      22.207  -1.092  23.720  1.00  0.00     0.128 C 
BRANCH  21  22
HETATM   22  C3  UNL     1      22.937  -0.292  24.771  1.00  0.00     0.020 C 
BRANCH  22  23
HETATM   23  C2  UNL     1      24.132   0.375  24.090  1.00  0.00    -0.003 C 
HETATM   24  C1  UNL     1      25.347  -0.457  24.467  1.00  0.00     0.005 C 
ENDBRANCH  22  23
ENDBRANCH  21  22
ENDBRANCH   1  21
TORSDOF 3
ENDMDL
MODEL 4
REMARK VINA RESULT: -5.881070002      1.677      2.344
REMARK  3 active torsions:
REMARK  status: ('A' for Active; 'I' for Inactive)
REMARK    1  A    between atoms: C2_2  and  C3_3 
REMARK    2  A    between atoms: C3_3  and  C4_4 
REMARK    3  A    between atoms: C4_4  and  N1_5 
ROOT
HETATM    1  N1  UNL     1      22.167  -5.161  23.292  1.00  0.00    -0.322 N 
HETATM    2  C5  UNL     1      20.976  -5.928  23.473  1.00  0.00     0.325 C 
HETATM    3  O1  UNL     1      20.473  -6.654  22.575  1.00  0.00    -0.247 OA
HETATM    4  N2  UNL     1      20.289  -5.891  24.738  1.00  0.00    -0.279 N 
ATOM      5  H2  UNL     1      19.438  -6.436  24.876  1.00  0.00     0.173 HD
HETATM    6  C6  UNL     1      20.802  -5.095  25.790  1.00  0.00     0.228 C 
HETATM    7  O2  UNL     1      20.124  -4.902  26.840  1.00  0.00    -0.273 OA
HETATM    8  C7  UNL     1      22.153  -4.493  25.628  1.00  0.00     0.136 C 
HETATM    9  C8  UNL     1      22.326  -4.008  24.168  1.00  0.00     0.077 C 
HETATM   10  C9  UNL     1      23.741  -3.498  24.044  1.00  0.00     0.036 C 
HETATM   11  C10 UNL     1      23.942  -2.262  24.897  1.00  0.00     0.033 C 
HETATM   12  C11 UNL     1      22.941  -1.254  24.375  1.00  0.00     0.273 C 
HETATM   13  N3  UNL     1      21.640  -1.732  24.657  1.00  0.00     0.099 N 
HETATM   14  C12 UNL     1      20.596  -0.771  24.613  1.00  0.00     0.300 C 
HETATM   15  C13 UNL     1      19.401  -1.208  23.793  1.00  0.00     0.262 C 
HETATM   16  N4  UNL     1      19.773  -1.725  22.511  1.00  0.00    -0.071 N 
ATOM     17  H41 UNL     1      20.055  -0.972  21.881  1.00  0.00     0.277 HD
ATOM     18  H42 UNL     1      18.957  -2.069  22.004  1.00  0.00     0.277 HD
HETATM   19  C14 UNL     1      20.803  -2.745  22.593  1.00  0.00     0.270 C 
HETATM   20  C15 UNL     1      21.273  -2.959  23.996  1.00  0.00     0.277 C 
ENDROOT
BRANCH   1  21
HETATM   21  C4  UNL     1      23.078  -5.605  22.298  1.00  0.00     0.128 C 
BRANCH  21  22
HETATM   22  C3  UNL     1      23.849  -6.859  22.624  1.00  0.00     0.020 C 
BRANCH  22  23
HETATM   23  C2  UNL     1      25.160  -6.808  21.838  1.00  0.00    -0.003 C 
HETATM   24  C1  UNL     1      26.118  -5.978  22.676  1.00  0.00     0.005 C 
ENDBRANCH  22  23
ENDBRANCH  21  22
ENDBRANCH   1  21
TORSDOF 3
ENDMDL
MODEL 5
REMARK VINA RESULT: -5.627737067      2.456      4.364
REMARK  3 active torsions:
REMARK  status: ('A' for Active; 'I' for Inactive)
REMARK    1  A    between atoms: C2_2  and  C3_3 
REMARK    2  A    between atoms: C3_3  and  C4_4 
REMARK    3  A    between atoms: C4_4  and  N1_5 
ROOT
HETATM    1  N1  UNL     1      19.832  -3.176  24.533  1.00  0.00    -0.322 N 
HETATM    2  C5  UNL     1      19.911  -2.573  25.826  1.00  0.00     0.325 C 
HETATM    3  O1  UNL     1      19.787  -3.215  26.901  1.00  0.00    -0.247 OA
HETATM    4  N2  UNL     1      20.145  -1.156  25.939  1.00  0.00    -0.279 N 
ATOM      5  H2  UNL     1      20.203  -0.718  26.858  1.00  0.00     0.173 HD
HETATM    6  C6  UNL     1      20.294  -0.376  24.767  1.00  0.00     0.228 C 
HETATM    7  O2  UNL     1      20.316   0.888  24.835  1.00  0.00    -0.273 OA
HETATM    8  C7  UNL     1      20.423  -1.077  23.462  1.00  0.00     0.136 C 
HETATM    9  C8  UNL     1      19.464  -2.292  23.435  1.00  0.00     0.077 C 
HETATM   10  C9  UNL     1      19.709  -3.011  22.132  1.00  0.00     0.036 C 
HETATM   11  C10 UNL     1      19.289  -2.151  20.957  1.00  0.00     0.033 C 
HETATM   12  C11 UNL     1      17.815  -1.879  21.172  1.00  0.00     0.273 C 
HETATM   13  N3  UNL     1      17.675  -1.079  22.330  1.00  0.00     0.099 N 
HETATM   14  C12 UNL     1      16.440  -0.394  22.473  1.00  0.00     0.300 C 
HETATM   15  C13 UNL     1      15.804  -0.563  23.836  1.00  0.00     0.262 C 
HETATM   16  N4  UNL     1      15.767  -1.930  24.260  1.00  0.00    -0.071 N 
ATOM     17  H41 UNL     1      15.050  -2.450  23.753  1.00  0.00     0.277 HD
ATOM     18  H42 UNL     1      15.392  -2.009  25.205  1.00  0.00     0.277 HD
HETATM   19  C14 UNL     1      17.057  -2.587  24.155  1.00  0.00     0.270 C 
HETATM   20  C15 UNL     1      18.098  -1.692  23.563  1.00  0.00     0.277 C 
ENDROOT
BRANCH   1  21
HETATM   21  C4  UNL     1      20.134  -4.560  24.445  1.00  0.00     0.128 C 
BRANCH  21  22
HETATM   22  C3  UNL     1      21.549  -4.948  24.792  1.00  0.00     0.020 C 
BRANCH  22  23
HETATM   23  C2  UNL     1      22.444  -4.499  23.638  1.00  0.00    -0.003 C 
HETATM   24  C1  UNL     1      23.355  -3.425  24.208  1.00  0.00     0.005 C 
ENDBRANCH  22  23
ENDBRANCH  21  22
ENDBRANCH   1  21
TORSDOF 3
ENDMDL
