MODEL 1
REMARK VINA RESULT: -8.643854856      0.000      0.000
REMARK  12 active torsions:
REMARK  status: ('A' for Active; 'I' for Inactive)
REMARK    1  A    between atoms: N1_1  and  N2_4 
REMARK    2  A    between atoms: N2_4  and  C1_6 
REMARK    3  A    between atoms: C4_11  and  N4_12 
REMARK    4  A    between atoms: N4_12  and  C5_14 
REMARK    5  A    between atoms: C8_17  and  C9_18 
REMARK    6  A    between atoms: C9_18  and  C10_19 
REMARK    7  A    between atoms: C10_19  and  N5_20 
REMARK    8  A    between atoms: N5_20  and  C11_22 
REMARK    9  A    between atoms: N6_25  and  C14_26 
REMARK   10  A    between atoms: C14_26  and  C15_27 
REMARK   11  A    between atoms: C15_27  and  C16_28 
REMARK   12  A    between atoms: C16_28  and  O1_29 
ROOT
HETATM    1  C5  UNL     1      19.474  27.781  18.528  1.00  0.00     0.106 A 
HETATM    2  C6  UNL     1      20.486  27.696  19.448  1.00  0.00     0.050 A 
HETATM    3  C7  UNL     1      19.935  27.596  20.703  1.00  0.00     0.029 A 
HETATM    4  C8  UNL     1      18.569  27.622  20.527  1.00  0.00     0.012 A 
HETATM    5  N8  UNL     1      18.329  27.732  19.228  1.00  0.00    -0.346 N 
ATOM      6  H8  UNL     1      17.397  27.775  18.815  1.00  0.00     0.167 HD
ENDROOT
BRANCH   4   7
HETATM    7  C9  UNL     1      17.588  27.538  21.635  1.00  0.00     0.076 C 
BRANCH   7   8
HETATM    8  C10 UNL     1      16.745  28.788  21.591  1.00  0.00     0.127 C 
BRANCH   8   9
HETATM    9  N5  UNL     1      15.391  28.576  22.001  1.00  0.00    -0.376 N 
ATOM     10  H5  UNL     1      15.203  28.486  23.000  1.00  0.00     0.161 HD
BRANCH   9  11
HETATM   11  C11 UNL     1      14.392  28.492  21.187  1.00  0.00     0.106 A 
HETATM   12  C12 UNL     1      14.640  28.363  19.841  1.00  0.00     0.065 A 
HETATM   13  C13 UNL     1      13.577  28.273  18.979  1.00  0.00     0.099 A 
HETATM   14  N6  UNL     1      12.294  28.313  19.467  1.00  0.00    -0.310 N 
HETATM   15  C17 UNL     1      12.051  28.438  20.760  1.00  0.00     0.327 A 
HETATM   16  O2  UNL     1      10.895  28.479  21.207  1.00  0.00    -0.246 OA
HETATM   17  N7  UNL     1      13.115  28.525  21.596  1.00  0.00    -0.295 N 
ATOM     18  H7  UNL     1      12.934  28.621  22.595  1.00  0.00     0.172 HD
BRANCH  14  19
HETATM   19  C14 UNL     1      11.267  28.170  18.471  1.00  0.00     0.135 C 
BRANCH  19  20
HETATM   20  C15 UNL     1      11.010  29.453  17.777  1.00  0.00     0.046 C 
BRANCH  20  21
HETATM   21  C16 UNL     1       9.905  29.542  16.803  1.00  0.00     0.165 C 
BRANCH  21  22
HETATM   22  O1  UNL     1       9.935  28.504  15.897  1.00  0.00    -0.401 OA
ATOM     23  H1  UNL     1      10.748  28.014  15.948  1.00  0.00     0.209 HD
ENDBRANCH  21  22
ENDBRANCH  20  21
ENDBRANCH  19  20
ENDBRANCH  14  19
ENDBRANCH   9  11
ENDBRANCH   8   9
ENDBRANCH   7   8
ENDBRANCH   4   7
BRANCH   1  24
HETATM   24  N4  UNL     1      19.595  27.895  17.138  1.00  0.00    -0.328 N 
ATOM     25  H4  UNL     1      19.553  27.037  16.587  1.00  0.00     0.169 HD
BRANCH  24  26
HETATM   26  C4  UNL     1      19.755  29.010  16.499  1.00  0.00     0.123 A 
HETATM   27  C3  UNL     1      20.197  29.096  15.216  1.00  0.00     0.067 A 
HETATM   28  C2  UNL     1      20.327  30.335  14.646  1.00  0.00     0.110 A 
HETATM   29  N3  UNL     1      20.028  31.450  15.324  1.00  0.00    -0.200 N 
HETATM   30  C1  UNL     1      19.591  31.369  16.591  1.00  0.00     0.697 A 
ATOM     31  H3  UNL     1      20.134  32.362  14.878  1.00  0.00     0.183 HD
HETATM   32  N9  UNL     1      19.463  30.150  17.154  1.00  0.00    -0.175 N 
ATOM     33  H9  UNL     1      19.131  30.089  18.116  1.00  0.00     0.186 HD
BRANCH  30  34
HETATM   34  N2  UNL     1      19.311  32.452  17.224  1.00  0.00    -0.138 N 
ATOM     35  H2  UNL     1      18.341  32.664  17.458  1.00  0.00     0.205 HD
BRANCH  34  36
HETATM   36  N1  UNL     1      20.320  33.337  17.591  1.00  0.00    -0.331 N 
ATOM     37  H12 UNL     1      21.178  33.360  17.040  1.00  0.00     0.177 HD
ATOM     38  H11 UNL     1      20.202  33.952  18.396  1.00  0.00     0.177 HD
ENDBRANCH  34  36
ENDBRANCH  30  34
ENDBRANCH  24  26
ENDBRANCH   1  24
TORSDOF 12
ENDMDL
MODEL 2
REMARK VINA RESULT: -8.616412885      3.811      8.128
REMARK  12 active torsions:
REMARK  status: ('A' for Active; 'I' for Inactive)
REMARK    1  A    between atoms: N1_1  and  N2_4 
REMARK    2  A    between atoms: N2_4  and  C1_6 
REMARK    3  A    between atoms: C4_11  and  N4_12 
REMARK    4  A    between atoms: N4_12  and  C5_14 
REMARK    5  A    between atoms: C8_17  and  C9_18 
REMARK    6  A    between atoms: C9_18  and  C10_19 
REMARK    7  A    between atoms: C10_19  and  N5_20 
REMARK    8  A    between atoms: N5_20  and  C11_22 
REMARK    9  A    between atoms: N6_25  and  C14_26 
REMARK   10  A    between atoms: C14_26  and  C15_27 
REMARK   11  A    between atoms: C15_27  and  C16_28 
REMARK   12  A    between atoms: C16_28  and  O1_29 
ROOT
HETATM    1  C5  UNL     1      15.689  28.399  20.118  1.00  0.00     0.106 A 
HETATM    2  C6  UNL     1      15.993  29.612  20.679  1.00  0.00     0.050 A 
HETATM    3  C7  UNL     1      17.127  29.474  21.442  1.00  0.00     0.029 A 
HETATM    4  C8  UNL     1      17.506  28.154  21.334  1.00  0.00     0.012 A 
HETATM    5  N8  UNL     1      16.634  27.545  20.544  1.00  0.00    -0.346 N 
ATOM      6  H8  UNL     1      16.675  26.557  20.292  1.00  0.00     0.167 HD
ENDROOT
BRANCH   4   7
HETATM    7  C9  UNL     1      18.693  27.573  22.008  1.00  0.00     0.076 C 
BRANCH   7   8
HETATM    8  C10 UNL     1      19.911  27.994  21.224  1.00  0.00     0.127 C 
BRANCH   8   9
HETATM    9  N5  UNL     1      20.107  27.236  20.027  1.00  0.00    -0.376 N 
ATOM     10  H5  UNL     1      20.138  26.220  20.104  1.00  0.00     0.161 HD
BRANCH   9  11
HETATM   11  C11 UNL     1      20.246  27.759  18.853  1.00  0.00     0.106 A 
HETATM   12  C12 UNL     1      19.144  27.868  18.039  1.00  0.00     0.065 A 
HETATM   13  C13 UNL     1      19.296  28.424  16.795  1.00  0.00     0.099 A 
HETATM   14  N6  UNL     1      20.532  28.859  16.384  1.00  0.00    -0.310 N 
HETATM   15  C17 UNL     1      21.593  28.754  17.163  1.00  0.00     0.327 A 
HETATM   16  O2  UNL     1      22.713  29.141  16.797  1.00  0.00    -0.246 OA
HETATM   17  N7  UNL     1      21.423  28.202  18.390  1.00  0.00    -0.295 N 
ATOM     18  H7  UNL     1      22.240  28.119  18.996  1.00  0.00     0.172 HD
BRANCH  14  19
HETATM   19  C14 UNL     1      20.555  29.458  15.077  1.00  0.00     0.135 C 
BRANCH  19  20
HETATM   20  C15 UNL     1      19.936  30.804  15.092  1.00  0.00     0.046 C 
BRANCH  20  21
HETATM   21  C16 UNL     1      20.796  31.998  14.990  1.00  0.00     0.165 C 
BRANCH  21  22
HETATM   22  O1  UNL     1      22.065  31.759  15.473  1.00  0.00    -0.401 OA
ATOM     23  H1  UNL     1      22.287  32.345  16.187  1.00  0.00     0.209 HD
ENDBRANCH  21  22
ENDBRANCH  20  21
ENDBRANCH  19  20
ENDBRANCH  14  19
ENDBRANCH   9  11
ENDBRANCH   8   9
ENDBRANCH   7   8
ENDBRANCH   4   7
BRANCH   1  24
HETATM   24  N4  UNL     1      14.615  28.098  19.272  1.00  0.00    -0.328 N 
ATOM     25  H4  UNL     1      14.826  27.634  18.388  1.00  0.00     0.169 HD
BRANCH  24  26
HETATM   26  C4  UNL     1      13.375  28.363  19.530  1.00  0.00     0.123 A 
HETATM   27  C3  UNL     1      12.803  28.220  20.755  1.00  0.00     0.067 A 
HETATM   28  C2  UNL     1      11.478  28.534  20.906  1.00  0.00     0.110 A 
HETATM   29  N3  UNL     1      10.744  28.975  19.877  1.00  0.00    -0.200 N 
HETATM   30  C1  UNL     1      11.305  29.119  18.665  1.00  0.00     0.697 A 
ATOM     31  H3  UNL     1       9.759  29.202  20.013  1.00  0.00     0.183 HD
HETATM   32  N9  UNL     1      12.610  28.810  18.516  1.00  0.00    -0.175 N 
ATOM     33  H9  UNL     1      13.035  28.920  17.596  1.00  0.00     0.186 HD
BRANCH  30  34
HETATM   34  N2  UNL     1      10.583  29.544  17.691  1.00  0.00    -0.138 N 
ATOM     35  H2  UNL     1      10.870  30.375  17.173  1.00  0.00     0.205 HD
BRANCH  34  36
HETATM   36  N1  UNL     1       9.410  28.881  17.339  1.00  0.00    -0.331 N 
ATOM     37  H12 UNL     1       9.125  28.067  17.883  1.00  0.00     0.177 HD
ATOM     38  H11 UNL     1       8.849  29.205  16.552  1.00  0.00     0.177 HD
ENDBRANCH  34  36
ENDBRANCH  30  34
ENDBRANCH  24  26
ENDBRANCH   1  24
TORSDOF 12
ENDMDL
MODEL 3
REMARK VINA RESULT: -8.603228630      1.495      1.646
REMARK  12 active torsions:
REMARK  status: ('A' for Active; 'I' for Inactive)
REMARK    1  A    between atoms: N1_1  and  N2_4 
REMARK    2  A    between atoms: N2_4  and  C1_6 
REMARK    3  A    between atoms: C4_11  and  N4_12 
REMARK    4  A    between atoms: N4_12  and  C5_14 
REMARK    5  A    between atoms: C8_17  and  C9_18 
REMARK    6  A    between atoms: C9_18  and  C10_19 
REMARK    7  A    between atoms: C10_19  and  N5_20 
REMARK    8  A    between atoms: N5_20  and  C11_22 
REMARK    9  A    between atoms: N6_25  and  C14_26 
REMARK   10  A    between atoms: C14_26  and  C15_27 
REMARK   11  A    between atoms: C15_27  and  C16_28 
REMARK   12  A    between atoms: C16_28  and  O1_29 
ROOT
HETATM    1  C5  UNL     1      19.767  27.679  18.726  1.00  0.00     0.106 A 
HETATM    2  C6  UNL     1      20.658  27.666  19.766  1.00  0.00     0.050 A 
HETATM    3  C7  UNL     1      19.957  27.600  20.947  1.00  0.00     0.029 A 
HETATM    4  C8  UNL     1      18.624  27.573  20.603  1.00  0.00     0.012 A 
HETATM    5  N8  UNL     1      18.545  27.622  19.281  1.00  0.00    -0.346 N 
ATOM      6  H8  UNL     1      17.671  27.617  18.755  1.00  0.00     0.167 HD
ENDROOT
BRANCH   4   7
HETATM    7  C9  UNL     1      17.515  27.504  21.585  1.00  0.00     0.076 C 
BRANCH   7   8
HETATM    8  C10 UNL     1      16.769  28.813  21.520  1.00  0.00     0.127 C 
BRANCH   8   9
HETATM    9  N5  UNL     1      15.409  28.715  21.953  1.00  0.00    -0.376 N 
ATOM     10  H5  UNL     1      15.223  28.751  22.955  1.00  0.00     0.161 HD
BRANCH   9  11
HETATM   11  C11 UNL     1      14.403  28.582  21.154  1.00  0.00     0.106 A 
HETATM   12  C12 UNL     1      14.638  28.436  19.807  1.00  0.00     0.065 A 
HETATM   13  C13 UNL     1      13.566  28.296  18.962  1.00  0.00     0.099 A 
HETATM   14  N6  UNL     1      12.289  28.303  19.467  1.00  0.00    -0.310 N 
HETATM   15  C17 UNL     1      12.060  28.444  20.760  1.00  0.00     0.327 A 
HETATM   16  O2  UNL     1      10.909  28.456  21.222  1.00  0.00    -0.246 OA
HETATM   17  N7  UNL     1      13.131  28.581  21.580  1.00  0.00    -0.295 N 
ATOM     18  H7  UNL     1      12.960  28.691  22.579  1.00  0.00     0.172 HD
BRANCH  14  19
HETATM   19  C14 UNL     1      11.255  28.108  18.487  1.00  0.00     0.135 C 
BRANCH  19  20
HETATM   20  C15 UNL     1      11.006  29.347  17.715  1.00  0.00     0.046 C 
BRANCH  20  21
HETATM   21  C16 UNL     1       9.890  29.390  16.753  1.00  0.00     0.165 C 
BRANCH  21  22
HETATM   22  O1  UNL     1       9.999  28.404  15.795  1.00  0.00    -0.401 OA
ATOM     23  H1  UNL     1      10.894  28.307  15.489  1.00  0.00     0.209 HD
ENDBRANCH  21  22
ENDBRANCH  20  21
ENDBRANCH  19  20
ENDBRANCH  14  19
ENDBRANCH   9  11
ENDBRANCH   8   9
ENDBRANCH   7   8
ENDBRANCH   4   7
BRANCH   1  24
HETATM   24  N4  UNL     1      20.056  27.739  17.357  1.00  0.00    -0.328 N 
ATOM     25  H4  UNL     1      19.863  26.910  16.796  1.00  0.00     0.169 HD
BRANCH  24  26
HETATM   26  C4  UNL     1      20.552  28.771  16.752  1.00  0.00     0.123 A 
HETATM   27  C3  UNL     1      19.902  29.472  15.785  1.00  0.00     0.067 A 
HETATM   28  C2  UNL     1      20.530  30.549  15.216  1.00  0.00     0.110 A 
HETATM   29  N3  UNL     1      21.761  30.918  15.593  1.00  0.00    -0.200 N 
HETATM   30  C1  UNL     1      22.406  30.228  16.548  1.00  0.00     0.697 A 
ATOM     31  H3  UNL     1      22.209  31.723  15.154  1.00  0.00     0.183 HD
HETATM   32  N9  UNL     1      21.788  29.168  17.109  1.00  0.00    -0.175 N 
ATOM     33  H9  UNL     1      22.278  28.645  17.834  1.00  0.00     0.186 HD
BRANCH  30  34
HETATM   34  N2  UNL     1      23.586  30.600  16.895  1.00  0.00    -0.138 N 
ATOM     35  H2  UNL     1      23.730  31.534  17.276  1.00  0.00     0.205 HD
BRANCH  34  36
HETATM   36  N1  UNL     1      24.669  29.737  16.752  1.00  0.00    -0.331 N 
ATOM     37  H12 UNL     1      24.544  28.877  16.219  1.00  0.00     0.177 HD
ATOM     38  H11 UNL     1      25.569  29.962  17.174  1.00  0.00     0.177 HD
ENDBRANCH  34  36
ENDBRANCH  30  34
ENDBRANCH  24  26
ENDBRANCH   1  24
TORSDOF 12
ENDMDL
MODEL 4
REMARK VINA RESULT: -8.478721537      3.621      8.224
REMARK  12 active torsions:
REMARK  status: ('A' for Active; 'I' for Inactive)
REMARK    1  A    between atoms: N1_1  and  N2_4 
REMARK    2  A    between atoms: N2_4  and  C1_6 
REMARK    3  A    between atoms: C4_11  and  N4_12 
REMARK    4  A    between atoms: N4_12  and  C5_14 
REMARK    5  A    between atoms: C8_17  and  C9_18 
REMARK    6  A    between atoms: C9_18  and  C10_19 
REMARK    7  A    between atoms: C10_19  and  N5_20 
REMARK    8  A    between atoms: N5_20  and  C11_22 
REMARK    9  A    between atoms: N6_25  and  C14_26 
REMARK   10  A    between atoms: C14_26  and  C15_27 
REMARK   11  A    between atoms: C15_27  and  C16_28 
REMARK   12  A    between atoms: C16_28  and  O1_29 
ROOT
HETATM    1  C5  UNL     1      16.650  28.198  21.441  1.00  0.00     0.106 A 
HETATM    2  C6  UNL     1      17.777  27.659  22.003  1.00  0.00     0.050 A 
HETATM    3  C7  UNL     1      18.711  27.462  21.015  1.00  0.00     0.029 A 
HETATM    4  C8  UNL     1      18.130  27.892  19.843  1.00  0.00     0.012 A 
HETATM    5  N8  UNL     1      16.909  28.321  20.129  1.00  0.00    -0.346 N 
ATOM      6  H8  UNL     1      16.254  28.696  19.443  1.00  0.00     0.167 HD
ENDROOT
BRANCH   4   7
HETATM    7  C9  UNL     1      18.801  27.855  18.521  1.00  0.00     0.076 C 
BRANCH   7   8
HETATM    8  C10 UNL     1      20.258  27.551  18.761  1.00  0.00     0.127 C 
BRANCH   8   9
HETATM    9  N5  UNL     1      21.098  27.878  17.649  1.00  0.00    -0.376 N 
ATOM     10  H5  UNL     1      21.830  27.216  17.393  1.00  0.00     0.161 HD
BRANCH   9  11
HETATM   11  C11 UNL     1      20.986  28.958  16.950  1.00  0.00     0.106 A 
HETATM   12  C12 UNL     1      20.517  28.870  15.660  1.00  0.00     0.065 A 
HETATM   13  C13 UNL     1      20.399  30.019  14.921  1.00  0.00     0.099 A 
HETATM   14  N6  UNL     1      20.746  31.228  15.473  1.00  0.00    -0.310 N 
HETATM   15  C17 UNL     1      21.198  31.316  16.711  1.00  0.00     0.327 A 
HETATM   16  O2  UNL     1      21.518  32.404  17.214  1.00  0.00    -0.246 OA
HETATM   17  N7  UNL     1      21.308  30.169  17.426  1.00  0.00    -0.295 N 
ATOM     18  H7  UNL     1      21.656  30.232  18.383  1.00  0.00     0.172 HD
BRANCH  14  19
HETATM   19  C14 UNL     1      20.541  32.363  14.613  1.00  0.00     0.135 C 
BRANCH  19  20
HETATM   20  C15 UNL     1      19.190  32.941  14.802  1.00  0.00     0.046 C 
BRANCH  20  21
HETATM   21  C16 UNL     1      19.039  34.198  15.558  1.00  0.00     0.165 C 
BRANCH  21  22
HETATM   22  O1  UNL     1      20.259  34.724  15.927  1.00  0.00    -0.401 OA
ATOM     23  H1  UNL     1      20.897  34.044  16.108  1.00  0.00     0.209 HD
ENDBRANCH  21  22
ENDBRANCH  20  21
ENDBRANCH  19  20
ENDBRANCH  14  19
ENDBRANCH   9  11
ENDBRANCH   8   9
ENDBRANCH   7   8
ENDBRANCH   4   7
BRANCH   1  24
HETATM   24  N4  UNL     1      15.461  28.554  22.091  1.00  0.00    -0.328 N 
ATOM     25  H4  UNL     1      15.452  28.525  23.110  1.00  0.00     0.169 HD
BRANCH  24  26
HETATM   26  C4  UNL     1      14.373  28.917  21.491  1.00  0.00     0.123 A 
HETATM   27  C3  UNL     1      13.949  30.206  21.397  1.00  0.00     0.067 A 
HETATM   28  C2  UNL     1      12.777  30.468  20.736  1.00  0.00     0.110 A 
HETATM   29  N3  UNL     1      12.051  29.486  20.188  1.00  0.00    -0.200 N 
HETATM   30  C1  UNL     1      12.467  28.212  20.279  1.00  0.00     0.697 A 
ATOM     31  H3  UNL     1      11.181  29.706  19.701  1.00  0.00     0.183 HD
HETATM   32  N9  UNL     1      13.620  27.953  20.929  1.00  0.00    -0.175 N 
ATOM     33  H9  UNL     1      13.935  26.986  20.997  1.00  0.00     0.186 HD
BRANCH  30  34
HETATM   34  N2  UNL     1      11.754  27.286  19.745  1.00  0.00    -0.138 N 
ATOM     35  H2  UNL     1      11.733  26.358  20.167  1.00  0.00     0.205 HD
BRANCH  34  36
HETATM   36  N1  UNL     1      11.012  27.539  18.595  1.00  0.00    -0.331 N 
ATOM     37  H12 UNL     1      10.466  28.399  18.542  1.00  0.00     0.177 HD
ATOM     38  H11 UNL     1      11.015  26.875  17.820  1.00  0.00     0.177 HD
ENDBRANCH  34  36
ENDBRANCH  30  34
ENDBRANCH  24  26
ENDBRANCH   1  24
TORSDOF 12
ENDMDL
MODEL 5
REMARK VINA RESULT: -8.475762964      1.023      1.133
REMARK  12 active torsions:
REMARK  status: ('A' for Active; 'I' for Inactive)
REMARK    1  A    between atoms: N1_1  and  N2_4 
REMARK    2  A    between atoms: N2_4  and  C1_6 
REMARK    3  A    between atoms: C4_11  and  N4_12 
REMARK    4  A    between atoms: N4_12  and  C5_14 
REMARK    5  A    between atoms: C8_17  and  C9_18 
REMARK    6  A    between atoms: C9_18  and  C10_19 
REMARK    7  A    between atoms: C10_19  and  N5_20 
REMARK    8  A    between atoms: N5_20  and  C11_22 
REMARK    9  A    between atoms: N6_25  and  C14_26 
REMARK   10  A    between atoms: C14_26  and  C15_27 
REMARK   11  A    between atoms: C15_27  and  C16_28 
REMARK   12  A    between atoms: C16_28  and  O1_29 
ROOT
HETATM    1  C5  UNL     1      19.741  27.789  18.467  1.00  0.00     0.106 A 
HETATM    2  C6  UNL     1      20.705  27.769  19.440  1.00  0.00     0.050 A 
HETATM    3  C7  UNL     1      20.094  27.638  20.664  1.00  0.00     0.029 A 
HETATM    4  C8  UNL     1      18.741  27.580  20.416  1.00  0.00     0.012 A 
HETATM    5  N8  UNL     1      18.565  27.673  19.106  1.00  0.00    -0.346 N 
ATOM      6  H8  UNL     1      17.655  27.657  18.644  1.00  0.00     0.167 HD
ENDROOT
BRANCH   4   7
HETATM    7  C9  UNL     1      17.709  27.439  21.472  1.00  0.00     0.076 C 
BRANCH   7   8
HETATM    8  C10 UNL     1      16.580  28.380  21.131  1.00  0.00     0.127 C 
BRANCH   8   9
HETATM    9  N5  UNL     1      15.602  27.802  20.261  1.00  0.00    -0.376 N 
ATOM     10  H5  UNL     1      15.829  26.919  19.806  1.00  0.00     0.161 HD
BRANCH   9  11
HETATM   11  C11 UNL     1      14.448  28.330  20.018  1.00  0.00     0.106 A 
HETATM   12  C12 UNL     1      14.305  29.693  20.121  1.00  0.00     0.065 A 
HETATM   13  C13 UNL     1      13.079  30.250  19.861  1.00  0.00     0.099 A 
HETATM   14  N6  UNL     1      12.023  29.447  19.506  1.00  0.00    -0.310 N 
HETATM   15  C17 UNL     1      12.156  28.137  19.406  1.00  0.00     0.327 A 
HETATM   16  O2  UNL     1      11.206  27.405  19.090  1.00  0.00    -0.246 OA
HETATM   17  N7  UNL     1      13.376  27.605  19.667  1.00  0.00    -0.295 N 
ATOM     18  H7  UNL     1      13.484  26.594  19.592  1.00  0.00     0.172 HD
BRANCH  14  19
HETATM   19  C14 UNL     1      10.802  30.151  19.220  1.00  0.00     0.135 C 
BRANCH  19  20
HETATM   20  C15 UNL     1      10.737  30.558  17.798  1.00  0.00     0.046 C 
BRANCH  20  21
HETATM   21  C16 UNL     1       9.880  29.801  16.866  1.00  0.00     0.165 C 
BRANCH  21  22
HETATM   22  O1  UNL     1       9.185  28.798  17.507  1.00  0.00    -0.401 OA
ATOM     23  H1  UNL     1       8.250  28.970  17.523  1.00  0.00     0.209 HD
ENDBRANCH  21  22
ENDBRANCH  20  21
ENDBRANCH  19  20
ENDBRANCH  14  19
ENDBRANCH   9  11
ENDBRANCH   8   9
ENDBRANCH   7   8
ENDBRANCH   4   7
BRANCH   1  24
HETATM   24  N4  UNL     1      19.928  27.907  17.085  1.00  0.00    -0.328 N 
ATOM     25  H4  UNL     1      20.060  27.048  16.551  1.00  0.00     0.169 HD
BRANCH  24  26
HETATM   26  C4  UNL     1      19.945  29.027  16.435  1.00  0.00     0.123 A 
HETATM   27  C3  UNL     1      20.265  29.138  15.118  1.00  0.00     0.067 A 
HETATM   28  C2  UNL     1      20.248  30.379  14.538  1.00  0.00     0.110 A 
HETATM   29  N3  UNL     1      19.925  31.473  15.239  1.00  0.00    -0.200 N 
HETATM   30  C1  UNL     1      19.609  31.367  16.541  1.00  0.00     0.697 A 
ATOM     31  H3  UNL     1      19.921  32.387  14.786  1.00  0.00     0.183 HD
HETATM   32  N9  UNL     1      19.624  30.145  17.112  1.00  0.00    -0.175 N 
ATOM     33  H9  UNL     1      19.384  30.065  18.099  1.00  0.00     0.186 HD
BRANCH  30  34
HETATM   34  N2  UNL     1      19.302  32.429  17.195  1.00  0.00    -0.138 N 
ATOM     35  H2  UNL     1      18.334  32.591  17.472  1.00  0.00     0.205 HD
BRANCH  34  36
HETATM   36  N1  UNL     1      20.280  33.361  17.528  1.00  0.00    -0.331 N 
ATOM     37  H12 UNL     1      21.145  33.379  16.988  1.00  0.00     0.177 HD
ATOM     38  H11 UNL     1      20.134  34.014  18.297  1.00  0.00     0.177 HD
ENDBRANCH  34  36
ENDBRANCH  30  34
ENDBRANCH  24  26
ENDBRANCH   1  24
TORSDOF 12
ENDMDL
