MODEL 1
REMARK VINA RESULT: -8.818670673      0.000      0.000
REMARK  10 active torsions:
REMARK  status: ('A' for Active; 'I' for Inactive)
REMARK    1  A    between atoms: C4_7  and  C5_8 
REMARK    2  A    between atoms: C5_8  and  N3_9 
REMARK    3  A    between atoms: N3_9  and  C6_11 
REMARK    4  A    between atoms: C7_14  and  N5_15 
REMARK    5  A    between atoms: N5_15  and  C8_17 
REMARK    6  A    between atoms: C8_17  and  C9_18 
REMARK    7  A    between atoms: C9_18  and  O1_19 
REMARK    8  A    between atoms: C10_23  and  N7_24 
REMARK    9  A    between atoms: N7_24  and  C11_26 
REMARK   10  A    between atoms: C14_29  and  C15_30 
ROOT
HETATM    1  C6  UNL     1      19.867  27.798  18.994  1.00  0.00     0.707 A 
HETATM    2  N4  UNL     1      20.943  27.626  19.816  1.00  0.00    -0.022 N 
ATOM      3  H4  UNL     1      20.807  27.220  20.742  1.00  0.00     0.203 HD
HETATM    4  C7  UNL     1      22.180  27.982  19.424  1.00  0.00     0.707 A 
HETATM    5  N6  UNL     1      22.403  28.522  18.210  1.00  0.00    -0.021 N 
ATOM      6  H6  UNL     1      23.344  28.791  17.918  1.00  0.00     0.203 HD
HETATM    7  C10 UNL     1      21.340  28.697  17.388  1.00  0.00     0.711 A 
HETATM    8  N9  UNL     1      20.111  28.336  17.791  1.00  0.00    -0.021 N 
ATOM      9  H9  UNL     1      19.328  28.478  17.152  1.00  0.00     0.203 HD
ENDROOT
BRANCH   7  10
HETATM   10  N7  UNL     1      21.580  29.215  16.233  1.00  0.00    -0.191 N 
ATOM     11  H7  UNL     1      22.061  28.696  15.499  1.00  0.00     0.184 HD
BRANCH  10  12
HETATM   12  C11 UNL     1      21.129  30.568  16.037  1.00  0.00     0.049 A 
HETATM   13  C12 UNL     1      21.479  31.490  16.991  1.00  0.00     0.031 A 
HETATM   14  C13 UNL     1      21.067  32.796  16.839  1.00  0.00     0.019 A 
HETATM   15  C14 UNL     1      20.316  33.144  15.737  1.00  0.00     0.029 A 
HETATM   16  C16 UNL     1      19.971  32.203  14.784  1.00  0.00     0.019 A 
HETATM   17  C17 UNL     1      20.383  30.902  14.937  1.00  0.00     0.031 A 
BRANCH  15  18
HETATM   18  C15 UNL     1      19.887  34.518  15.585  1.00  0.00     0.264 C 
HETATM   19  N8  UNL     1      20.824  35.589  15.755  1.00  0.00    -0.057 NA
HETATM   20  O2  UNL     1      18.699  34.838  15.303  1.00  0.00    -0.271 OA
ENDBRANCH  15  18
ENDBRANCH  10  12
ENDBRANCH   7  10
BRANCH   4  21
HETATM   21  N5  UNL     1      23.219  27.832  20.180  1.00  0.00    -0.223 N 
ATOM     22  H5  UNL     1      23.183  27.250  21.017  1.00  0.00     0.177 HD
BRANCH  21  23
HETATM   23  C8  UNL     1      24.431  28.514  19.798  1.00  0.00     0.164 C 
BRANCH  23  24
HETATM   24  C9  UNL     1      25.629  27.997  20.545  1.00  0.00     0.184 C 
BRANCH  24  25
HETATM   25  O1  UNL     1      25.299  26.880  21.308  1.00  0.00    -0.399 OA
ATOM     26  H1  UNL     1      25.588  26.983  22.207  1.00  0.00     0.209 HD
ENDBRANCH  24  25
ENDBRANCH  23  24
ENDBRANCH  21  23
ENDBRANCH   4  21
BRANCH   1  27
HETATM   27  N3  UNL     1      18.733  27.436  19.439  1.00  0.00    -0.218 N 
ATOM     28  H3  UNL     1      18.181  26.828  18.834  1.00  0.00     0.178 HD
BRANCH  27  29
HETATM   29  C5  UNL     1      18.146  27.788  20.695  1.00  0.00     0.214 C 
BRANCH  29  30
HETATM   30  C4  UNL     1      16.751  28.279  20.492  1.00  0.00     0.101 A 
HETATM   31  N1  UNL     1      16.078  29.250  21.116  1.00  0.00    -0.348 N 
HETATM   32  C1  UNL     1      16.599  30.070  22.180  1.00  0.00     0.157 C 
HETATM   33  C2  UNL     1      14.829  29.331  20.584  1.00  0.00     0.108 A 
HETATM   34  C3  UNL     1      14.737  28.381  19.602  1.00  0.00     0.106 A 
HETATM   35  N2  UNL     1      15.924  27.756  19.570  1.00  0.00    -0.353 N 
ATOM     36  H2  UNL     1      16.165  26.994  18.938  1.00  0.00     0.166 HD
ENDBRANCH  29  30
ENDBRANCH  27  29
ENDBRANCH   1  27
TORSDOF 10
ENDMDL
MODEL 2
REMARK VINA RESULT: -8.695976082      1.261      1.386
REMARK  10 active torsions:
REMARK  status: ('A' for Active; 'I' for Inactive)
REMARK    1  A    between atoms: C4_7  and  C5_8 
REMARK    2  A    between atoms: C5_8  and  N3_9 
REMARK    3  A    between atoms: N3_9  and  C6_11 
REMARK    4  A    between atoms: C7_14  and  N5_15 
REMARK    5  A    between atoms: N5_15  and  C8_17 
REMARK    6  A    between atoms: C8_17  and  C9_18 
REMARK    7  A    between atoms: C9_18  and  O1_19 
REMARK    8  A    between atoms: C10_23  and  N7_24 
REMARK    9  A    between atoms: N7_24  and  C11_26 
REMARK   10  A    between atoms: C14_29  and  C15_30 
ROOT
HETATM    1  C6  UNL     1      18.682  27.492  19.736  1.00  0.00     0.707 A 
HETATM    2  N4  UNL     1      19.933  27.408  20.279  1.00  0.00    -0.022 N 
ATOM      3  H4  UNL     1      20.039  27.126  21.254  1.00  0.00     0.203 HD
HETATM    4  C7  UNL     1      21.026  27.691  19.547  1.00  0.00     0.707 A 
HETATM    5  N6  UNL     1      20.930  28.068  18.257  1.00  0.00    -0.021 N 
ATOM      6  H6  UNL     1      21.763  28.282  17.708  1.00  0.00     0.203 HD
HETATM    7  C10 UNL     1      19.693  28.154  17.712  1.00  0.00     0.711 A 
HETATM    8  N9  UNL     1      18.609  27.868  18.452  1.00  0.00    -0.021 N 
ATOM      9  H9  UNL     1      17.689  27.940  18.017  1.00  0.00     0.203 HD
ENDROOT
BRANCH   7  10
HETATM   10  N7  UNL     1      19.628  28.516  16.477  1.00  0.00    -0.191 N 
ATOM     11  H7  UNL     1      19.537  27.839  15.721  1.00  0.00     0.184 HD
BRANCH  10  12
HETATM   12  C11 UNL     1      19.690  29.933  16.227  1.00  0.00     0.049 A 
HETATM   13  C12 UNL     1      19.252  30.767  17.225  1.00  0.00     0.031 A 
HETATM   14  C13 UNL     1      19.295  32.129  17.023  1.00  0.00     0.019 A 
HETATM   15  C14 UNL     1      19.776  32.620  15.829  1.00  0.00     0.029 A 
HETATM   16  C16 UNL     1      20.214  31.767  14.831  1.00  0.00     0.019 A 
HETATM   17  C17 UNL     1      20.170  30.410  15.035  1.00  0.00     0.031 A 
BRANCH  15  18
HETATM   18  C15 UNL     1      19.818  34.053  15.624  1.00  0.00     0.264 C 
HETATM   19  N8  UNL     1      21.037  34.775  15.837  1.00  0.00    -0.057 NA
HETATM   20  O2  UNL     1      18.814  34.722  15.258  1.00  0.00    -0.271 OA
ENDBRANCH  15  18
ENDBRANCH  10  12
ENDBRANCH   7  10
BRANCH   4  21
HETATM   21  N5  UNL     1      22.224  27.620  20.032  1.00  0.00    -0.223 N 
ATOM     22  H5  UNL     1      22.466  26.929  20.742  1.00  0.00     0.177 HD
BRANCH  21  23
HETATM   23  C8  UNL     1      23.205  28.553  19.535  1.00  0.00     0.164 C 
BRANCH  23  24
HETATM   24  C9  UNL     1      24.586  28.240  20.037  1.00  0.00     0.184 C 
BRANCH  24  25
HETATM   25  O1  UNL     1      24.606  27.032  20.729  1.00  0.00    -0.399 OA
ATOM     26  H1  UNL     1      25.381  26.962  21.274  1.00  0.00     0.209 HD
ENDBRANCH  24  25
ENDBRANCH  23  24
ENDBRANCH  21  23
ENDBRANCH   4  21
BRANCH   1  27
HETATM   27  N3  UNL     1      17.702  27.209  20.493  1.00  0.00    -0.218 N 
ATOM     28  H3  UNL     1      17.389  26.238  20.487  1.00  0.00     0.178 HD
BRANCH  27  29
HETATM   29  C5  UNL     1      16.988  28.102  21.352  1.00  0.00     0.214 C 
BRANCH  29  30
HETATM   30  C4  UNL     1      15.585  28.269  20.870  1.00  0.00     0.101 A 
HETATM   31  N1  UNL     1      14.510  28.758  21.495  1.00  0.00    -0.348 N 
HETATM   32  C1  UNL     1      14.490  29.254  22.849  1.00  0.00     0.157 C 
HETATM   33  C2  UNL     1      13.448  28.709  20.648  1.00  0.00     0.108 A 
HETATM   34  C3  UNL     1      13.888  28.173  19.467  1.00  0.00     0.106 A 
HETATM   35  N2  UNL     1      15.195  27.916  19.634  1.00  0.00    -0.353 N 
ATOM     36  H2  UNL     1      15.805  27.510  18.925  1.00  0.00     0.166 HD
ENDBRANCH  29  30
ENDBRANCH  27  29
ENDBRANCH   1  27
TORSDOF 10
ENDMDL
MODEL 3
REMARK VINA RESULT: -8.681109870      2.202      6.142
REMARK  10 active torsions:
REMARK  status: ('A' for Active; 'I' for Inactive)
REMARK    1  A    between atoms: C4_7  and  C5_8 
REMARK    2  A    between atoms: C5_8  and  N3_9 
REMARK    3  A    between atoms: N3_9  and  C6_11 
REMARK    4  A    between atoms: C7_14  and  N5_15 
REMARK    5  A    between atoms: N5_15  and  C8_17 
REMARK    6  A    between atoms: C8_17  and  C9_18 
REMARK    7  A    between atoms: C9_18  and  O1_19 
REMARK    8  A    between atoms: C10_23  and  N7_24 
REMARK    9  A    between atoms: N7_24  and  C11_26 
REMARK   10  A    between atoms: C14_29  and  C15_30 
ROOT
HETATM    1  C6  UNL     1      21.643  29.193  17.145  1.00  0.00     0.707 A 
HETATM    2  N4  UNL     1      22.645  29.058  18.063  1.00  0.00    -0.022 N 
ATOM      3  H4  UNL     1      23.539  29.522  17.902  1.00  0.00     0.203 HD
HETATM    4  C7  UNL     1      22.471  28.322  19.176  1.00  0.00     0.707 A 
HETATM    5  N6  UNL     1      21.306  27.692  19.427  1.00  0.00    -0.021 N 
ATOM      6  H6  UNL     1      21.181  27.135  20.273  1.00  0.00     0.203 HD
HETATM    7  C10 UNL     1      20.308  27.822  18.521  1.00  0.00     0.711 A 
HETATM    8  N9  UNL     1      20.493  28.559  17.414  1.00  0.00    -0.021 N 
ATOM      9  H9  UNL     1      19.724  28.641  16.749  1.00  0.00     0.203 HD
ENDROOT
BRANCH   7  10
HETATM   10  N7  UNL     1      19.204  27.210  18.784  1.00  0.00    -0.191 N 
ATOM     11  H7  UNL     1      18.939  26.348  18.308  1.00  0.00     0.184 HD
BRANCH  10  12
HETATM   12  C11 UNL     1      18.367  27.813  19.789  1.00  0.00     0.049 A 
HETATM   13  C12 UNL     1      17.572  28.860  19.398  1.00  0.00     0.031 A 
HETATM   14  C13 UNL     1      16.757  29.463  20.331  1.00  0.00     0.019 A 
HETATM   15  C14 UNL     1      16.759  29.001  21.629  1.00  0.00     0.029 A 
HETATM   16  C16 UNL     1      17.566  27.944  22.009  1.00  0.00     0.019 A 
HETATM   17  C17 UNL     1      18.378  27.344  21.077  1.00  0.00     0.031 A 
BRANCH  15  18
HETATM   18  C15 UNL     1      15.900  29.640  22.603  1.00  0.00     0.264 C 
HETATM   19  N8  UNL     1      14.676  29.012  23.006  1.00  0.00    -0.057 NA
HETATM   20  O2  UNL     1      16.174  30.751  23.135  1.00  0.00    -0.271 OA
ENDBRANCH  15  18
ENDBRANCH  10  12
ENDBRANCH   7  10
BRANCH   4  21
HETATM   21  N5  UNL     1      23.400  28.174  20.064  1.00  0.00    -0.223 N 
ATOM     22  H5  UNL     1      23.207  27.731  20.962  1.00  0.00     0.177 HD
BRANCH  21  23
HETATM   23  C8  UNL     1      24.720  28.658  19.742  1.00  0.00     0.164 C 
BRANCH  23  24
HETATM   24  C9  UNL     1      25.786  27.969  20.544  1.00  0.00     0.184 C 
BRANCH  24  25
HETATM   25  O1  UNL     1      25.255  26.912  21.279  1.00  0.00    -0.399 OA
ATOM     26  H1  UNL     1      25.666  26.849  22.134  1.00  0.00     0.209 HD
ENDBRANCH  24  25
ENDBRANCH  23  24
ENDBRANCH  21  23
ENDBRANCH   4  21
BRANCH   1  27
HETATM   27  N3  UNL     1      21.887  29.904  16.121  1.00  0.00    -0.218 N 
ATOM     28  H3  UNL     1      21.863  29.427  15.220  1.00  0.00     0.178 HD
BRANCH  27  29
HETATM   29  C5  UNL     1      22.191  31.302  16.094  1.00  0.00     0.214 C 
BRANCH  29  30
HETATM   30  C4  UNL     1      20.956  32.092  15.814  1.00  0.00     0.101 A 
HETATM   31  N1  UNL     1      20.360  33.047  16.534  1.00  0.00    -0.348 N 
HETATM   32  C1  UNL     1      20.821  33.535  17.809  1.00  0.00     0.157 C 
HETATM   33  C2  UNL     1      19.254  33.474  15.868  1.00  0.00     0.108 A 
HETATM   34  C3  UNL     1      19.172  32.759  14.703  1.00  0.00     0.106 A 
HETATM   35  N2  UNL     1      20.224  31.925  14.700  1.00  0.00    -0.353 N 
ATOM     36  H2  UNL     1      20.437  31.259  13.957  1.00  0.00     0.166 HD
ENDBRANCH  29  30
ENDBRANCH  27  29
ENDBRANCH   1  27
TORSDOF 10
ENDMDL
MODEL 4
REMARK VINA RESULT: -8.639540217      2.234      6.121
REMARK  10 active torsions:
REMARK  status: ('A' for Active; 'I' for Inactive)
REMARK    1  A    between atoms: C4_7  and  C5_8 
REMARK    2  A    between atoms: C5_8  and  N3_9 
REMARK    3  A    between atoms: N3_9  and  C6_11 
REMARK    4  A    between atoms: C7_14  and  N5_15 
REMARK    5  A    between atoms: N5_15  and  C8_17 
REMARK    6  A    between atoms: C8_17  and  C9_18 
REMARK    7  A    between atoms: C9_18  and  O1_19 
REMARK    8  A    between atoms: C10_23  and  N7_24 
REMARK    9  A    between atoms: N7_24  and  C11_26 
REMARK   10  A    between atoms: C14_29  and  C15_30 
ROOT
HETATM    1  C6  UNL     1      21.755  29.812  16.675  1.00  0.00     0.707 A 
HETATM    2  N4  UNL     1      22.915  29.945  17.383  1.00  0.00    -0.022 N 
ATOM      3  H4  UNL     1      23.614  30.622  17.078  1.00  0.00     0.203 HD
HETATM    4  C7  UNL     1      23.150  29.196  18.475  1.00  0.00     0.707 A 
HETATM    5  N6  UNL     1      22.254  28.289  18.911  1.00  0.00    -0.021 N 
ATOM      6  H6  UNL     1      22.438  27.723  19.741  1.00  0.00     0.203 HD
HETATM    7  C10 UNL     1      21.100  28.152  18.215  1.00  0.00     0.711 A 
HETATM    8  N9  UNL     1      20.877  28.906  17.126  1.00  0.00    -0.021 N 
ATOM      9  H9  UNL     1      19.999  28.783  16.620  1.00  0.00     0.203 HD
ENDROOT
BRANCH   7  10
HETATM   10  N7  UNL     1      20.259  27.278  18.652  1.00  0.00    -0.191 N 
ATOM     11  H7  UNL     1      20.307  26.298  18.375  1.00  0.00     0.184 HD
BRANCH  10  12
HETATM   12  C11 UNL     1      19.249  27.766  19.554  1.00  0.00     0.049 A 
HETATM   13  C12 UNL     1      18.110  28.291  18.997  1.00  0.00     0.031 A 
HETATM   14  C13 UNL     1      17.120  28.767  19.828  1.00  0.00     0.019 A 
HETATM   15  C14 UNL     1      17.295  28.704  21.193  1.00  0.00     0.029 A 
HETATM   16  C16 UNL     1      18.448  28.172  21.741  1.00  0.00     0.019 A 
HETATM   17  C17 UNL     1      19.434  27.698  20.910  1.00  0.00     0.031 A 
BRANCH  15  18
HETATM   18  C15 UNL     1      16.249  29.207  22.060  1.00  0.00     0.264 C 
HETATM   19  N8  UNL     1      15.062  28.436  22.278  1.00  0.00    -0.057 NA
HETATM   20  O2  UNL     1      16.326  30.319  22.652  1.00  0.00    -0.271 OA
ENDBRANCH  15  18
ENDBRANCH  10  12
ENDBRANCH   7  10
BRANCH   4  21
HETATM   21  N5  UNL     1      24.239  29.297  19.167  1.00  0.00    -0.223 N 
ATOM     22  H5  UNL     1      24.858  30.101  19.060  1.00  0.00     0.177 HD
BRANCH  21  23
HETATM   23  C8  UNL     1      24.548  28.236  20.093  1.00  0.00     0.164 C 
BRANCH  23  24
HETATM   24  C9  UNL     1      26.010  28.194  20.436  1.00  0.00     0.184 C 
BRANCH  24  25
HETATM   25  O1  UNL     1      26.240  27.388  21.548  1.00  0.00    -0.399 OA
ATOM     26  H1  UNL     1      25.426  27.037  21.890  1.00  0.00     0.209 HD
ENDBRANCH  24  25
ENDBRANCH  23  24
ENDBRANCH  21  23
ENDBRANCH   4  21
BRANCH   1  27
HETATM   27  N3  UNL     1      21.609  30.556  15.655  1.00  0.00    -0.218 N 
ATOM     28  H3  UNL     1      21.383  30.087  14.779  1.00  0.00     0.178 HD
BRANCH  27  29
HETATM   29  C5  UNL     1      21.727  31.981  15.603  1.00  0.00     0.214 C 
BRANCH  29  30
HETATM   30  C4  UNL     1      20.374  32.610  15.608  1.00  0.00     0.101 A 
HETATM   31  N1  UNL     1      20.016  33.889  15.760  1.00  0.00    -0.348 N 
HETATM   32  C1  UNL     1      20.927  34.988  15.962  1.00  0.00     0.157 C 
HETATM   33  C2  UNL     1      18.662  33.979  15.692  1.00  0.00     0.108 A 
HETATM   34  C3  UNL     1      18.175  32.714  15.492  1.00  0.00     0.106 A 
HETATM   35  N2  UNL     1      19.243  31.903  15.445  1.00  0.00    -0.353 N 
ATOM     36  H2  UNL     1      19.203  30.893  15.306  1.00  0.00     0.166 HD
ENDBRANCH  29  30
ENDBRANCH  27  29
ENDBRANCH   1  27
TORSDOF 10
ENDMDL
MODEL 5
REMARK VINA RESULT: -8.623816960      2.465      6.039
REMARK  10 active torsions:
REMARK  status: ('A' for Active; 'I' for Inactive)
REMARK    1  A    between atoms: C4_7  and  C5_8 
REMARK    2  A    between atoms: C5_8  and  N3_9 
REMARK    3  A    between atoms: N3_9  and  C6_11 
REMARK    4  A    between atoms: C7_14  and  N5_15 
REMARK    5  A    between atoms: N5_15  and  C8_17 
REMARK    6  A    between atoms: C8_17  and  C9_18 
REMARK    7  A    between atoms: C9_18  and  O1_19 
REMARK    8  A    between atoms: C10_23  and  N7_24 
REMARK    9  A    between atoms: N7_24  and  C11_26 
REMARK   10  A    between atoms: C14_29  and  C15_30 
ROOT
HETATM    1  C6  UNL     1      21.750  29.814  16.709  1.00  0.00     0.707 A 
HETATM    2  N4  UNL     1      22.914  29.943  17.412  1.00  0.00    -0.022 N 
ATOM      3  H4  UNL     1      23.612  30.622  17.107  1.00  0.00     0.203 HD
HETATM    4  C7  UNL     1      23.154  29.188  18.500  1.00  0.00     0.707 A 
HETATM    5  N6  UNL     1      22.260  28.280  18.936  1.00  0.00    -0.021 N 
ATOM      6  H6  UNL     1      22.448  27.710  19.761  1.00  0.00     0.203 HD
HETATM    7  C10 UNL     1      21.103  28.146  18.244  1.00  0.00     0.711 A 
HETATM    8  N9  UNL     1      20.874  28.905  17.160  1.00  0.00    -0.021 N 
ATOM      9  H9  UNL     1      19.994  28.785  16.658  1.00  0.00     0.203 HD
ENDROOT
BRANCH   7  10
HETATM   10  N7  UNL     1      20.264  27.271  18.681  1.00  0.00    -0.191 N 
ATOM     11  H7  UNL     1      20.339  26.283  18.436  1.00  0.00     0.184 HD
BRANCH  10  12
HETATM   12  C11 UNL     1      19.216  27.766  19.535  1.00  0.00     0.049 A 
HETATM   13  C12 UNL     1      19.409  27.663  20.890  1.00  0.00     0.031 A 
HETATM   14  C13 UNL     1      18.429  28.126  21.740  1.00  0.00     0.019 A 
HETATM   15  C14 UNL     1      17.283  28.680  21.212  1.00  0.00     0.029 A 
HETATM   16  C16 UNL     1      17.102  28.777  19.844  1.00  0.00     0.019 A 
HETATM   17  C17 UNL     1      18.081  28.315  18.998  1.00  0.00     0.031 A 
BRANCH  15  18
HETATM   18  C15 UNL     1      16.257  29.164  22.112  1.00  0.00     0.264 C 
HETATM   19  N8  UNL     1      16.329  30.496  22.636  1.00  0.00    -0.057 NA
HETATM   20  O2  UNL     1      15.274  28.460  22.472  1.00  0.00    -0.271 OA
ENDBRANCH  15  18
ENDBRANCH  10  12
ENDBRANCH   7  10
BRANCH   4  21
HETATM   21  N5  UNL     1      24.247  29.286  19.186  1.00  0.00    -0.223 N 
ATOM     22  H5  UNL     1      24.860  30.096  19.089  1.00  0.00     0.177 HD
BRANCH  21  23
HETATM   23  C8  UNL     1      24.569  28.212  20.093  1.00  0.00     0.164 C 
BRANCH  23  24
HETATM   24  C9  UNL     1      26.027  28.197  20.455  1.00  0.00     0.184 C 
BRANCH  24  25
HETATM   25  O1  UNL     1      26.261  27.375  21.555  1.00  0.00    -0.399 OA
ATOM     26  H1  UNL     1      26.243  27.874  22.364  1.00  0.00     0.209 HD
ENDBRANCH  24  25
ENDBRANCH  23  24
ENDBRANCH  21  23
ENDBRANCH   4  21
BRANCH   1  27
HETATM   27  N3  UNL     1      21.599  30.563  15.694  1.00  0.00    -0.218 N 
ATOM     28  H3  UNL     1      21.362  30.099  14.818  1.00  0.00     0.178 HD
BRANCH  27  29
HETATM   29  C5  UNL     1      21.727  31.987  15.646  1.00  0.00     0.214 C 
BRANCH  29  30
HETATM   30  C4  UNL     1      20.377  32.625  15.642  1.00  0.00     0.101 A 
HETATM   31  N1  UNL     1      20.028  33.908  15.779  1.00  0.00    -0.348 N 
HETATM   32  C1  UNL     1      20.945  35.003  15.970  1.00  0.00     0.157 C 
HETATM   33  C2  UNL     1      18.674  34.005  15.708  1.00  0.00     0.108 A 
HETATM   34  C3  UNL     1      18.179  32.741  15.522  1.00  0.00     0.106 A 
HETATM   35  N2  UNL     1      19.243  31.923  15.486  1.00  0.00    -0.353 N 
ATOM     36  H2  UNL     1      19.196  30.912  15.359  1.00  0.00     0.166 HD
ENDBRANCH  29  30
ENDBRANCH  27  29
ENDBRANCH   1  27
TORSDOF 10
ENDMDL
