MODEL 1
REMARK VINA RESULT: -7.744393124      0.000      0.000
REMARK  11 active torsions:
REMARK  status: ('A' for Active; 'I' for Inactive)
REMARK    1  A    between atoms: O1_2  and  C2_3 
REMARK    2  A    between atoms: C2_3  and  C3_5 
REMARK    3  A    between atoms: C3_5  and  N1_6 
REMARK    4  A    between atoms: C3_5  and  C15_31 
REMARK    5  A    between atoms: N1_6  and  C4_8 
REMARK    6  A    between atoms: C7_11  and  C8_12 
REMARK    7  A    between atoms: C8_12  and  N4_17 
REMARK       I    between atoms: N4_17  and  C10_19 
REMARK       I    between atoms: C10_19  and  N5_21 
REMARK    8  A    between atoms: N5_21  and  N6_23 
REMARK    9  A    between atoms: C11_25  and  C12_26 
REMARK   10  A    between atoms: N10_36  and  C16_37 
REMARK   11  A    between atoms: C17_43  and  N13_44 
ROOT
HETATM    1  C8  UNL     1     160.968  11.106  32.701  1.00  0.00     0.128 C 
HETATM    2  N2  UNL     1     160.118  11.203  31.704  1.00  0.00    -0.279 N 
ATOM      3  H2  UNL     1     159.820  12.123  31.382  1.00  0.00     0.179 HD
HETATM    4  C9  UNL     1     159.619  10.059  31.079  1.00  0.00     0.183 C 
HETATM    5  N3  UNL     1     159.215   9.107  30.579  1.00  0.00    -0.172 NA
ENDROOT
BRANCH   1   6
HETATM    6  C7  UNL     1     161.400   9.800  33.169  1.00  0.00     0.009 A 
HETATM    7  C6  UNL     1     160.824   9.186  34.262  1.00  0.00     0.017 A 
HETATM    8  C5  UNL     1     161.232   7.921  34.693  1.00  0.00     0.030 A 
HETATM    9  C4  UNL     1     162.223   7.212  34.066  1.00  0.00     0.029 A 
HETATM   10  C14 UNL     1     162.796   7.849  32.957  1.00  0.00     0.030 A 
HETATM   11  C13 UNL     1     162.404   9.092  32.523  1.00  0.00     0.017 A 
BRANCH   9  12
HETATM   12  N1  UNL     1     162.687   5.934  34.444  1.00  0.00    -0.370 N 
ATOM     13  H1  UNL     1     163.696   5.863  34.580  1.00  0.00     0.161 HD
BRANCH  12  14
HETATM   14  C3  UNL     1     161.965   4.736  34.663  1.00  0.00     0.253 C 
BRANCH  14  15
HETATM   15  C2  UNL     1     161.547   4.034  33.425  1.00  0.00     0.289 C 
HETATM   16  O2  UNL     1     161.107   2.856  33.471  1.00  0.00    -0.262 OA
BRANCH  15  17
HETATM   17  O1  UNL     1     161.611   4.616  32.180  1.00  0.00    -0.325 OA
HETATM   18  C1  UNL     1     162.248   4.004  31.056  1.00  0.00     0.213 C 
ENDBRANCH  15  17
ENDBRANCH  14  15
BRANCH  14  19
HETATM   19  C15 UNL     1     160.888   4.758  35.653  1.00  0.00     0.146 A 
HETATM   20  N8  UNL     1     160.967   4.790  36.972  1.00  0.00    -0.269 N 
HETATM   21  N9  UNL     1     159.782   4.796  37.483  1.00  0.00    -0.218 N 
ATOM     22  H8  UNL     1     161.835   4.808  37.507  1.00  0.00     0.190 HD
HETATM   23  N10 UNL     1     158.883   4.769  36.518  1.00  0.00    -0.158 N 
ATOM     24  H9  UNL     1     159.572   4.820  38.481  1.00  0.00     0.210 HD
HETATM   25  N14 UNL     1     159.549   4.745  35.378  1.00  0.00    -0.261 N 
ATOM     26  H14 UNL     1     159.133   4.720  34.447  1.00  0.00     0.190 HD
BRANCH  23  27
HETATM   27  C16 UNL     1     157.460   4.767  36.718  1.00  0.00     0.214 A 
HETATM   28  N11 UNL     1     156.610   3.724  36.603  1.00  0.00    -0.219 N 
HETATM   29  O4  UNL     1     155.389   4.113  36.862  1.00  0.00    -0.153 OA
ATOM     30  H11 UNL     1     156.880   2.772  36.352  1.00  0.00     0.198 HD
HETATM   31  N12 UNL     1     155.377   5.379  37.148  1.00  0.00    -0.222 N 
HETATM   32  C17 UNL     1     156.658   5.830  37.069  1.00  0.00     0.171 A 
ATOM     33  H12 UNL     1     154.556   5.934  37.388  1.00  0.00     0.198 HD
BRANCH  32  34
HETATM   34  N13 UNL     1     157.070   7.052  37.288  1.00  0.00    -0.381 N 
ATOM     35 2H13 UNL     1     157.875   7.508  36.860  1.00  0.00     0.157 HD
ATOM     36 1H13 UNL     1     156.633   7.719  37.923  1.00  0.00     0.157 HD
ENDBRANCH  32  34
ENDBRANCH  23  27
ENDBRANCH  14  19
ENDBRANCH  12  14
ENDBRANCH   9  12
ENDBRANCH   1   6
BRANCH   1  37
HETATM   37  N4  UNL     1     161.438  12.294  33.295  1.00  0.00    -0.292 N 
HETATM   38  C10 UNL     1     161.843  13.395  32.522  1.00  0.00     0.340 C 
HETATM   39  O3  UNL     1     161.808  13.369  31.284  1.00  0.00    -0.245 OA
HETATM   40  N5  UNL     1     162.301  14.571  33.155  1.00  0.00    -0.252 N 
ATOM     41  H5  UNL     1     162.343  14.614  34.173  1.00  0.00     0.191 HD
ATOM     42  H4  UNL     1     161.486  12.356  34.312  1.00  0.00     0.172 HD
BRANCH  40  43
HETATM   43  N6  UNL     1     162.692  15.662  32.406  1.00  0.00    -0.305 N 
HETATM   44  C11 UNL     1     163.711  16.362  32.737  1.00  0.00     0.145 C 
ATOM     45  H6  UNL     1     162.160  15.915  31.573  1.00  0.00     0.186 HD
BRANCH  44  46
HETATM   46  C12 UNL     1     164.108  17.510  31.932  1.00  0.00     0.129 C 
HETATM   47  N7  UNL     1     164.854  18.556  32.533  1.00  0.00    -0.088 NA
HETATM   48  S1  UNL     1     163.684  17.558  30.365  1.00  0.00    -0.062 SA
ENDBRANCH  44  46
ENDBRANCH  40  43
ENDBRANCH   1  37
TORSDOF 11
ENDMDL
MODEL 2
REMARK VINA RESULT: -7.647403379      4.018     10.942
REMARK  11 active torsions:
REMARK  status: ('A' for Active; 'I' for Inactive)
REMARK    1  A    between atoms: O1_2  and  C2_3 
REMARK    2  A    between atoms: C2_3  and  C3_5 
REMARK    3  A    between atoms: C3_5  and  N1_6 
REMARK    4  A    between atoms: C3_5  and  C15_31 
REMARK    5  A    between atoms: N1_6  and  C4_8 
REMARK    6  A    between atoms: C7_11  and  C8_12 
REMARK    7  A    between atoms: C8_12  and  N4_17 
REMARK       I    between atoms: N4_17  and  C10_19 
REMARK       I    between atoms: C10_19  and  N5_21 
REMARK    8  A    between atoms: N5_21  and  N6_23 
REMARK    9  A    between atoms: C11_25  and  C12_26 
REMARK   10  A    between atoms: N10_36  and  C16_37 
REMARK   11  A    between atoms: C17_43  and  N13_44 
ROOT
HETATM    1  C8  UNL     1     160.428   9.406  33.126  1.00  0.00     0.128 C 
HETATM    2  N2  UNL     1     159.654   9.209  32.083  1.00  0.00    -0.279 N 
ATOM      3  H2  UNL     1     158.777   8.700  32.194  1.00  0.00     0.179 HD
HETATM    4  C9  UNL     1     160.017   9.688  30.823  1.00  0.00     0.183 C 
HETATM    5  N3  UNL     1     160.333  10.087  29.794  1.00  0.00    -0.172 NA
ENDROOT
BRANCH   1   6
HETATM    6  C7  UNL     1     161.680  10.129  32.979  1.00  0.00     0.009 A 
HETATM    7  C6  UNL     1     161.723  11.503  32.853  1.00  0.00     0.017 A 
HETATM    8  C5  UNL     1     162.933  12.191  32.732  1.00  0.00     0.030 A 
HETATM    9  C4  UNL     1     164.146  11.556  32.730  1.00  0.00     0.029 A 
HETATM   10  C14 UNL     1     164.086  10.162  32.859  1.00  0.00     0.030 A 
HETATM   11  C13 UNL     1     162.903   9.472  32.980  1.00  0.00     0.017 A 
BRANCH   9  12
HETATM   12  N1  UNL     1     165.405  12.183  32.611  1.00  0.00    -0.370 N 
ATOM     13  H1  UNL     1     165.942  11.924  31.783  1.00  0.00     0.161 HD
BRANCH  12  14
HETATM   14  C3  UNL     1     166.035  13.119  33.466  1.00  0.00     0.253 C 
BRANCH  14  15
HETATM   15  C2  UNL     1     166.010  12.753  34.904  1.00  0.00     0.289 C 
HETATM   16  O2  UNL     1     166.951  12.094  35.417  1.00  0.00    -0.262 OA
BRANCH  15  17
HETATM   17  O1  UNL     1     164.980  13.106  35.745  1.00  0.00    -0.325 OA
HETATM   18  C1  UNL     1     164.028  12.171  36.260  1.00  0.00     0.213 C 
ENDBRANCH  15  17
ENDBRANCH  14  15
BRANCH  14  19
HETATM   19  C15 UNL     1     165.732  14.537  33.272  1.00  0.00     0.146 A 
HETATM   20  N8  UNL     1     165.930  15.553  34.095  1.00  0.00    -0.269 N 
HETATM   21  N9  UNL     1     165.520  16.647  33.548  1.00  0.00    -0.218 N 
ATOM     22  H8  UNL     1     166.345  15.482  35.024  1.00  0.00     0.190 HD
HETATM   23  N10 UNL     1     165.039  16.389  32.346  1.00  0.00    -0.158 N 
ATOM     24  H9  UNL     1     165.562  17.571  33.978  1.00  0.00     0.210 HD
HETATM   25  N14 UNL     1     165.162  15.088  32.159  1.00  0.00    -0.261 N 
ATOM     26  H14 UNL     1     164.878  14.579  31.322  1.00  0.00     0.190 HD
BRANCH  23  27
HETATM   27  C16 UNL     1     164.495  17.370  31.449  1.00  0.00     0.214 A 
HETATM   28  N11 UNL     1     165.101  18.476  30.966  1.00  0.00    -0.219 N 
HETATM   29  O4  UNL     1     164.285  19.123  30.177  1.00  0.00    -0.153 OA
ATOM     30  H11 UNL     1     166.055  18.764  31.184  1.00  0.00     0.198 HD
HETATM   31  N12 UNL     1     163.149  18.501  30.104  1.00  0.00    -0.222 N 
HETATM   32  C17 UNL     1     163.237  17.393  30.889  1.00  0.00     0.171 A 
ATOM     33  H12 UNL     1     162.338  18.790  29.558  1.00  0.00     0.198 HD
BRANCH  32  34
HETATM   34  N13 UNL     1     162.303  16.499  31.084  1.00  0.00    -0.381 N 
ATOM     35 2H13 UNL     1     162.319  15.740  31.765  1.00  0.00     0.157 HD
ATOM     36 1H13 UNL     1     161.421  16.443  30.574  1.00  0.00     0.157 HD
ENDBRANCH  32  34
ENDBRANCH  23  27
ENDBRANCH  14  19
ENDBRANCH  12  14
ENDBRANCH   9  12
ENDBRANCH   1   6
BRANCH   1  37
HETATM   37  N4  UNL     1     160.012   8.898  34.372  1.00  0.00    -0.292 N 
HETATM   38  C10 UNL     1     159.651   7.551  34.536  1.00  0.00     0.340 C 
HETATM   39  O3  UNL     1     159.679   6.750  33.591  1.00  0.00    -0.245 OA
HETATM   40  N5  UNL     1     159.247   7.079  35.803  1.00  0.00    -0.252 N 
ATOM     41  H5  UNL     1     159.211   7.721  36.595  1.00  0.00     0.191 HD
ATOM     42  H4  UNL     1     159.972   9.526  35.175  1.00  0.00     0.172 HD
BRANCH  40  43
HETATM   43  N6  UNL     1     158.899   5.755  35.978  1.00  0.00    -0.305 N 
HETATM   44  C11 UNL     1     157.680   5.408  36.154  1.00  0.00     0.145 C 
ATOM     45  H6  UNL     1     159.627   5.039  35.967  1.00  0.00     0.186 HD
BRANCH  44  46
HETATM   46  C12 UNL     1     157.334   4.004  36.337  1.00  0.00     0.129 C 
HETATM   47  N7  UNL     1     155.969   3.618  36.336  1.00  0.00    -0.088 NA
HETATM   48  S1  UNL     1     158.526   2.918  36.535  1.00  0.00    -0.062 SA
ENDBRANCH  44  46
ENDBRANCH  40  43
ENDBRANCH   1  37
TORSDOF 11
ENDMDL
MODEL 3
REMARK VINA RESULT: -7.628431326      1.437      1.610
REMARK  11 active torsions:
REMARK  status: ('A' for Active; 'I' for Inactive)
REMARK    1  A    between atoms: O1_2  and  C2_3 
REMARK    2  A    between atoms: C2_3  and  C3_5 
REMARK    3  A    between atoms: C3_5  and  N1_6 
REMARK    4  A    between atoms: C3_5  and  C15_31 
REMARK    5  A    between atoms: N1_6  and  C4_8 
REMARK    6  A    between atoms: C7_11  and  C8_12 
REMARK    7  A    between atoms: C8_12  and  N4_17 
REMARK       I    between atoms: N4_17  and  C10_19 
REMARK       I    between atoms: C10_19  and  N5_21 
REMARK    8  A    between atoms: N5_21  and  N6_23 
REMARK    9  A    between atoms: C11_25  and  C12_26 
REMARK   10  A    between atoms: N10_36  and  C16_37 
REMARK   11  A    between atoms: C17_43  and  N13_44 
ROOT
HETATM    1  C8  UNL     1     160.939  11.077  32.327  1.00  0.00     0.128 C 
HETATM    2  N2  UNL     1     160.666  10.586  31.139  1.00  0.00    -0.279 N 
ATOM      3  H2  UNL     1     160.426  11.217  30.375  1.00  0.00     0.179 HD
HETATM    4  C9  UNL     1     160.701   9.210  30.911  1.00  0.00     0.183 C 
HETATM    5  N3  UNL     1     160.732   8.074  30.741  1.00  0.00    -0.172 NA
ENDROOT
BRANCH   1   6
HETATM    6  C7  UNL     1     161.282  10.188  33.423  1.00  0.00     0.009 A 
HETATM    7  C6  UNL     1     160.336   9.410  34.059  1.00  0.00     0.017 A 
HETATM    8  C5  UNL     1     160.677   8.543  35.100  1.00  0.00     0.030 A 
HETATM    9  C4  UNL     1     161.962   8.407  35.556  1.00  0.00     0.029 A 
HETATM   10  C14 UNL     1     162.911   9.203  34.899  1.00  0.00     0.030 A 
HETATM   11  C13 UNL     1     162.589  10.059  33.874  1.00  0.00     0.017 A 
BRANCH   9  12
HETATM   12  N1  UNL     1     162.380   7.555  36.600  1.00  0.00    -0.370 N 
ATOM     13  H1  UNL     1     162.720   8.030  37.436  1.00  0.00     0.161 HD
BRANCH  12  14
HETATM   14  C3  UNL     1     162.399   6.141  36.662  1.00  0.00     0.253 C 
BRANCH  14  15
HETATM   15  C2  UNL     1     162.985   5.479  35.470  1.00  0.00     0.289 C 
HETATM   16  O2  UNL     1     164.231   5.451  35.298  1.00  0.00    -0.262 OA
BRANCH  15  17
HETATM   17  O1  UNL     1     162.219   4.869  34.505  1.00  0.00    -0.325 OA
HETATM   18  C1  UNL     1     161.851   5.500  33.276  1.00  0.00     0.213 C 
ENDBRANCH  15  17
ENDBRANCH  14  15
BRANCH  14  19
HETATM   19  C15 UNL     1     161.183   5.459  37.105  1.00  0.00     0.146 A 
HETATM   20  N8  UNL     1     160.972   4.758  38.207  1.00  0.00    -0.269 N 
HETATM   21  N9  UNL     1     159.760   4.317  38.221  1.00  0.00    -0.218 N 
ATOM     22  H8  UNL     1     161.665   4.591  38.936  1.00  0.00     0.190 HD
HETATM   23  N10 UNL     1     159.131   4.712  37.131  1.00  0.00    -0.158 N 
ATOM     24  H9  UNL     1     159.350   3.750  38.964  1.00  0.00     0.210 HD
HETATM   25  N14 UNL     1     159.996   5.420  36.429  1.00  0.00    -0.261 N 
ATOM     26  H14 UNL     1     159.809   5.864  35.530  1.00  0.00     0.190 HD
BRANCH  23  27
HETATM   27  C16 UNL     1     157.764   4.406  36.812  1.00  0.00     0.214 A 
HETATM   28  N11 UNL     1     157.236   3.202  36.503  1.00  0.00    -0.219 N 
HETATM   29  O4  UNL     1     155.955   3.323  36.274  1.00  0.00    -0.153 OA
ATOM     30  H11 UNL     1     157.759   2.328  36.456  1.00  0.00     0.198 HD
HETATM   31  N12 UNL     1     155.591   4.560  36.415  1.00  0.00    -0.222 N 
HETATM   32  C17 UNL     1     156.698   5.277  36.754  1.00  0.00     0.171 A 
ATOM     33  H12 UNL     1     154.648   4.929  36.295  1.00  0.00     0.198 HD
BRANCH  32  34
HETATM   34  N13 UNL     1     156.754   6.562  36.987  1.00  0.00    -0.381 N 
ATOM     35 2H13 UNL     1     156.093   7.269  36.664  1.00  0.00     0.157 HD
ATOM     36 1H13 UNL     1     157.476   7.034  37.531  1.00  0.00     0.157 HD
ENDBRANCH  32  34
ENDBRANCH  23  27
ENDBRANCH  14  19
ENDBRANCH  12  14
ENDBRANCH   9  12
ENDBRANCH   1   6
BRANCH   1  37
HETATM   37  N4  UNL     1     160.887  12.474  32.500  1.00  0.00    -0.292 N 
HETATM   38  C10 UNL     1     162.018  13.284  32.308  1.00  0.00     0.340 C 
HETATM   39  O3  UNL     1     163.113  12.805  31.983  1.00  0.00    -0.245 OA
HETATM   40  N5  UNL     1     161.923  14.681  32.484  1.00  0.00    -0.252 N 
ATOM     41  H5  UNL     1     161.032  15.098  32.757  1.00  0.00     0.191 HD
ATOM     42  H4  UNL     1     160.004  12.908  32.771  1.00  0.00     0.172 HD
BRANCH  40  43
HETATM   43  N6  UNL     1     163.026  15.488  32.290  1.00  0.00    -0.305 N 
HETATM   44  C11 UNL     1     162.901  16.749  32.108  1.00  0.00     0.145 C 
ATOM     45  H6  UNL     1     163.958  15.072  32.291  1.00  0.00     0.186 HD
BRANCH  44  46
HETATM   46  C12 UNL     1     164.078  17.583  31.905  1.00  0.00     0.129 C 
HETATM   47  N7  UNL     1     164.875  17.946  33.021  1.00  0.00    -0.088 NA
HETATM   48  S1  UNL     1     164.448  18.071  30.400  1.00  0.00    -0.062 SA
ENDBRANCH  44  46
ENDBRANCH  40  43
ENDBRANCH   1  37
TORSDOF 11
ENDMDL
MODEL 4
REMARK VINA RESULT: -7.603568033      3.980     11.645
REMARK  11 active torsions:
REMARK  status: ('A' for Active; 'I' for Inactive)
REMARK    1  A    between atoms: O1_2  and  C2_3 
REMARK    2  A    between atoms: C2_3  and  C3_5 
REMARK    3  A    between atoms: C3_5  and  N1_6 
REMARK    4  A    between atoms: C3_5  and  C15_31 
REMARK    5  A    between atoms: N1_6  and  C4_8 
REMARK    6  A    between atoms: C7_11  and  C8_12 
REMARK    7  A    between atoms: C8_12  and  N4_17 
REMARK       I    between atoms: N4_17  and  C10_19 
REMARK       I    between atoms: C10_19  and  N5_21 
REMARK    8  A    between atoms: N5_21  and  N6_23 
REMARK    9  A    between atoms: C11_25  and  C12_26 
REMARK   10  A    between atoms: N10_36  and  C16_37 
REMARK   11  A    between atoms: C17_43  and  N13_44 
ROOT
HETATM    1  C8  UNL     1     160.521   7.439  33.700  1.00  0.00     0.128 C 
HETATM    2  N2  UNL     1     160.864   6.573  32.773  1.00  0.00    -0.279 N 
ATOM      3  H2  UNL     1     160.557   5.603  32.850  1.00  0.00     0.179 HD
HETATM    4  C9  UNL     1     161.643   6.965  31.684  1.00  0.00     0.183 C 
HETATM    5  N3  UNL     1     162.288   7.304  30.795  1.00  0.00    -0.172 NA
ENDROOT
BRANCH   1   6
HETATM    6  C7  UNL     1     160.954   8.822  33.602  1.00  0.00     0.009 A 
HETATM    7  C6  UNL     1     160.230   9.769  32.905  1.00  0.00     0.017 A 
HETATM    8  C5  UNL     1     160.643  11.102  32.832  1.00  0.00     0.030 A 
HETATM    9  C4  UNL     1     161.783  11.555  33.442  1.00  0.00     0.029 A 
HETATM   10  C14 UNL     1     162.506  10.582  34.145  1.00  0.00     0.030 A 
HETATM   11  C13 UNL     1     162.111   9.269  34.226  1.00  0.00     0.017 A 
BRANCH   9  12
HETATM   12  N1  UNL     1     162.262  12.882  33.411  1.00  0.00    -0.370 N 
ATOM     13  H1  UNL     1     161.795  13.526  34.049  1.00  0.00     0.161 HD
BRANCH  12  14
HETATM   14  C3  UNL     1     163.294  13.455  32.628  1.00  0.00     0.253 C 
BRANCH  14  15
HETATM   15  C2  UNL     1     164.573  13.662  33.352  1.00  0.00     0.289 C 
HETATM   16  O2  UNL     1     165.636  13.901  32.723  1.00  0.00    -0.262 OA
BRANCH  15  17
HETATM   17  O1  UNL     1     164.670  13.608  34.723  1.00  0.00    -0.325 OA
HETATM   18  C1  UNL     1     165.878  13.882  35.437  1.00  0.00     0.213 C 
ENDBRANCH  15  17
ENDBRANCH  14  15
BRANCH  14  19
HETATM   19  C15 UNL     1     162.960  14.610  31.795  1.00  0.00     0.146 A 
HETATM   20  N8  UNL     1     161.820  14.904  31.193  1.00  0.00    -0.269 N 
HETATM   21  N9  UNL     1     161.937  16.016  30.550  1.00  0.00    -0.218 N 
ATOM     22  H8  UNL     1     160.974  14.336  31.232  1.00  0.00     0.190 HD
HETATM   23  N10 UNL     1     163.158  16.492  30.706  1.00  0.00    -0.158 N 
ATOM     24  H9  UNL     1     161.199  16.460  30.004  1.00  0.00     0.210 HD
HETATM   25  N14 UNL     1     163.805  15.636  31.474  1.00  0.00    -0.261 N 
ATOM     26  H14 UNL     1     164.775  15.724  31.777  1.00  0.00     0.190 HD
BRANCH  23  27
HETATM   27  C16 UNL     1     163.644  17.716  30.131  1.00  0.00     0.214 A 
HETATM   28  N11 UNL     1     163.024  18.915  30.088  1.00  0.00    -0.219 N 
HETATM   29  O4  UNL     1     163.783  19.788  29.481  1.00  0.00    -0.153 OA
ATOM     30  H11 UNL     1     162.099  19.110  30.473  1.00  0.00     0.198 HD
HETATM   31  N12 UNL     1     164.894  19.231  29.109  1.00  0.00    -0.222 N 
HETATM   32  C17 UNL     1     164.850  17.928  29.498  1.00  0.00     0.171 A 
ATOM     33  H12 UNL     1     165.661  19.687  28.616  1.00  0.00     0.198 HD
BRANCH  32  34
HETATM   34  N13 UNL     1     165.778  17.026  29.313  1.00  0.00    -0.381 N 
ATOM     35 2H13 UNL     1     165.959  16.505  28.455  1.00  0.00     0.157 HD
ATOM     36 1H13 UNL     1     166.455  16.720  30.013  1.00  0.00     0.157 HD
ENDBRANCH  32  34
ENDBRANCH  23  27
ENDBRANCH  14  19
ENDBRANCH  12  14
ENDBRANCH   9  12
ENDBRANCH   1   6
BRANCH   1  37
HETATM   37  N4  UNL     1     159.735   6.987  34.778  1.00  0.00    -0.292 N 
HETATM   38  C10 UNL     1     160.214   6.033  35.691  1.00  0.00     0.340 C 
HETATM   39  O3  UNL     1     161.347   5.544  35.586  1.00  0.00    -0.245 OA
HETATM   40  N5  UNL     1     159.398   5.611  36.762  1.00  0.00    -0.252 N 
ATOM     41  H5  UNL     1     158.459   5.996  36.866  1.00  0.00     0.191 HD
ATOM     42  H4  UNL     1     158.794   7.362  34.898  1.00  0.00     0.172 HD
BRANCH  40  43
HETATM   43  N6  UNL     1     159.861   4.681  37.671  1.00  0.00    -0.305 N 
HETATM   44  C11 UNL     1     159.613   3.434  37.527  1.00  0.00     0.145 C 
ATOM     45  H6  UNL     1     160.411   4.993  38.472  1.00  0.00     0.186 HD
BRANCH  44  46
HETATM   46  C12 UNL     1     160.112   2.468  38.498  1.00  0.00     0.129 C 
HETATM   47  N7  UNL     1     159.684   1.118  38.420  1.00  0.00    -0.088 NA
HETATM   48  S1  UNL     1     161.149   2.967  39.644  1.00  0.00    -0.062 SA
ENDBRANCH  44  46
ENDBRANCH  40  43
ENDBRANCH   1  37
TORSDOF 11
ENDMDL
MODEL 5
REMARK VINA RESULT: -7.573781297      5.196      8.418
REMARK  11 active torsions:
REMARK  status: ('A' for Active; 'I' for Inactive)
REMARK    1  A    between atoms: O1_2  and  C2_3 
REMARK    2  A    between atoms: C2_3  and  C3_5 
REMARK    3  A    between atoms: C3_5  and  N1_6 
REMARK    4  A    between atoms: C3_5  and  C15_31 
REMARK    5  A    between atoms: N1_6  and  C4_8 
REMARK    6  A    between atoms: C7_11  and  C8_12 
REMARK    7  A    between atoms: C8_12  and  N4_17 
REMARK       I    between atoms: N4_17  and  C10_19 
REMARK       I    between atoms: C10_19  and  N5_21 
REMARK    8  A    between atoms: N5_21  and  N6_23 
REMARK    9  A    between atoms: C11_25  and  C12_26 
REMARK   10  A    between atoms: N10_36  and  C16_37 
REMARK   11  A    between atoms: C17_43  and  N13_44 
ROOT
HETATM    1  C8  UNL     1     161.926   3.131  28.737  1.00  0.00     0.128 C 
HETATM    2  N2  UNL     1     160.909   2.965  27.922  1.00  0.00    -0.279 N 
ATOM      3  H2  UNL     1     160.944   2.232  27.213  1.00  0.00     0.179 HD
HETATM    4  C9  UNL     1     159.779   3.780  28.014  1.00  0.00     0.183 C 
HETATM    5  N3  UNL     1     158.859   4.462  28.102  1.00  0.00    -0.172 NA
ENDROOT
BRANCH   1   6
HETATM    6  C7  UNL     1     161.887   4.172  29.749  1.00  0.00     0.009 A 
HETATM    7  C6  UNL     1     161.925   5.513  29.424  1.00  0.00     0.017 A 
HETATM    8  C5  UNL     1     161.868   6.508  30.403  1.00  0.00     0.030 A 
HETATM    9  C4  UNL     1     161.771   6.223  31.739  1.00  0.00     0.029 A 
HETATM   10  C14 UNL     1     161.732   4.858  32.053  1.00  0.00     0.030 A 
HETATM   11  C13 UNL     1     161.787   3.869  31.101  1.00  0.00     0.017 A 
BRANCH   9  12
HETATM   12  N1  UNL     1     161.710   7.173  32.782  1.00  0.00    -0.370 N 
ATOM     13  H1  UNL     1     162.600   7.374  33.238  1.00  0.00     0.161 HD
BRANCH  12  14
HETATM   14  C3  UNL     1     160.599   7.888  33.291  1.00  0.00     0.253 C 
BRANCH  14  15
HETATM   15  C2  UNL     1     160.844   9.338  33.498  1.00  0.00     0.289 C 
HETATM   16  O2  UNL     1     161.587   9.738  34.431  1.00  0.00    -0.262 OA
BRANCH  15  17
HETATM   17  O1  UNL     1     160.286  10.309  32.700  1.00  0.00    -0.325 OA
HETATM   18  C1  UNL     1     159.991  10.115  31.314  1.00  0.00     0.213 C 
ENDBRANCH  15  17
ENDBRANCH  14  15
BRANCH  14  19
HETATM   19  C15 UNL     1     159.866   7.306  34.415  1.00  0.00     0.146 A 
HETATM   20  N8  UNL     1     159.990   7.549  35.708  1.00  0.00    -0.269 N 
HETATM   21  N9  UNL     1     159.156   6.824  36.373  1.00  0.00    -0.218 N 
ATOM     22  H8  UNL     1     160.647   8.212  36.120  1.00  0.00     0.190 HD
HETATM   23  N10 UNL     1     158.454   6.078  35.541  1.00  0.00    -0.158 N 
ATOM     24  H9  UNL     1     159.054   6.826  37.389  1.00  0.00     0.210 HD
HETATM   25  N14 UNL     1     158.880   6.364  34.324  1.00  0.00    -0.261 N 
ATOM     26  H14 UNL     1     158.531   5.949  33.460  1.00  0.00     0.190 HD
BRANCH  23  27
HETATM   27  C16 UNL     1     157.432   5.147  35.931  1.00  0.00     0.214 A 
HETATM   28  N11 UNL     1     156.097   5.265  35.760  1.00  0.00    -0.219 N 
HETATM   29  O4  UNL     1     155.492   4.213  36.247  1.00  0.00    -0.153 OA
ATOM     30  H11 UNL     1     155.631   6.056  35.317  1.00  0.00     0.198 HD
HETATM   31  N12 UNL     1     156.361   3.387  36.741  1.00  0.00    -0.222 N 
HETATM   32  C17 UNL     1     157.594   3.935  36.563  1.00  0.00     0.171 A 
ATOM     33  H12 UNL     1     156.158   2.491  37.182  1.00  0.00     0.198 HD
BRANCH  32  34
HETATM   34  N13 UNL     1     158.739   3.413  36.922  1.00  0.00    -0.381 N 
ATOM     35 2H13 UNL     1     159.535   3.217  36.317  1.00  0.00     0.157 HD
ATOM     36 1H13 UNL     1     158.989   3.130  37.870  1.00  0.00     0.157 HD
ENDBRANCH  32  34
ENDBRANCH  23  27
ENDBRANCH  14  19
ENDBRANCH  12  14
ENDBRANCH   9  12
ENDBRANCH   1   6
BRANCH   1  37
HETATM   37  N4  UNL     1     163.040   2.281  28.596  1.00  0.00    -0.292 N 
HETATM   38  C10 UNL     1     164.072   2.561  27.687  1.00  0.00     0.340 C 
HETATM   39  O3  UNL     1     164.046   3.567  26.964  1.00  0.00    -0.245 OA
HETATM   40  N5  UNL     1     165.175   1.688  27.581  1.00  0.00    -0.252 N 
ATOM     41  H5  UNL     1     165.216   0.850  28.162  1.00  0.00     0.191 HD
ATOM     42  H4  UNL     1     163.097   1.439  29.171  1.00  0.00     0.172 HD
BRANCH  40  43
HETATM   43  N6  UNL     1     166.200   1.958  26.697  1.00  0.00    -0.305 N 
HETATM   44  C11 UNL     1     167.324   2.414  27.105  1.00  0.00     0.145 C 
ATOM     45  H6  UNL     1     166.059   1.792  25.700  1.00  0.00     0.186 HD
BRANCH  44  46
HETATM   46  C12 UNL     1     168.393   2.693  26.155  1.00  0.00     0.129 C 
HETATM   47  N7  UNL     1     168.088   3.356  24.938  1.00  0.00    -0.088 NA
HETATM   48  S1  UNL     1     169.910   2.238  26.519  1.00  0.00    -0.062 SA
ENDBRANCH  44  46
ENDBRANCH  40  43
ENDBRANCH   1  37
TORSDOF 11
ENDMDL
