MODEL 1
REMARK VINA RESULT: -9.296443824      0.000      0.000
REMARK  12 active torsions:
REMARK  status: ('A' for Active; 'I' for Inactive)
REMARK    1  A    between atoms: C4_9  and  C5_10 
REMARK    2  A    between atoms: C5_10  and  O4_12 
REMARK    3  A    between atoms: O4_12  and  C6_13 
REMARK    4  A    between atoms: C6_13  and  C7_14 
REMARK    5  A    between atoms: C9_16  and  C10_17 
REMARK       I    between atoms: C10_17  and  N2_19 
REMARK    6  A    between atoms: N2_19  and  C11_21 
REMARK    7  A    between atoms: C11_21  and  O6_22 
REMARK    8  A    between atoms: C11_21  and  C12_24 
REMARK    9  A    between atoms: C12_24  and  C13_25 
REMARK   10  A    between atoms: C12_24  and  N3_27 
REMARK   11  A    between atoms: N3_27  and  C14_29 
REMARK   12  A    between atoms: C17_35  and  N6_36 
ROOT
HETATM    1  C10 UNL     1     160.679   9.333  30.238  1.00  0.00     0.275 C 
HETATM    2  O5  UNL     1     160.402   9.633  29.070  1.00  0.00    -0.266 OA
HETATM    3  N2  UNL     1     161.158   8.092  30.651  1.00  0.00    -0.304 N 
ATOM      4  H2  UNL     1     161.339   7.993  31.650  1.00  0.00     0.171 HD
ENDROOT
BRANCH   3   5
HETATM    5  C11 UNL     1     161.420   6.969  29.869  1.00  0.00     0.142 C 
BRANCH   5   6
HETATM    6  O6  UNL     1     161.952   7.126  28.692  1.00  0.00    -0.348 OA
ATOM      7  H6  UNL     1     161.843   6.444  28.040  1.00  0.00     0.219 HD
ENDBRANCH   5   6
BRANCH   5   8
HETATM    8  C12 UNL     1     161.165   5.535  30.202  1.00  0.00     0.166 C 
BRANCH   8   9
HETATM    9  C13 UNL     1     161.963   5.178  31.477  1.00  0.00     0.119 C 
HETATM   10  S1  UNL     1     163.717   4.979  31.165  1.00  0.00    -0.095 SA
ENDBRANCH   8   9
BRANCH   8  11
HETATM   11  N3  UNL     1     161.688   4.778  29.110  1.00  0.00    -0.372 N 
ATOM     12  H3  UNL     1     162.697   4.880  28.997  1.00  0.00     0.160 HD
BRANCH  11  13
HETATM   13  C14 UNL     1     161.173   4.017  28.264  1.00  0.00     0.101 C 
HETATM   14  C15 UNL     1     160.785   2.734  28.707  1.00  0.00     0.080 C 
HETATM   15  C16 UNL     1     159.798   1.924  28.202  1.00  0.00     0.134 C 
HETATM   16  N4  UNL     1     159.580   0.698  28.902  1.00  0.00    -0.082 NA
HETATM   17  N5  UNL     1     158.997   2.109  27.135  1.00  0.00    -0.179 N 
HETATM   18  C17 UNL     1     158.981   3.173  26.286  1.00  0.00     0.680 C 
ATOM     19  H5  UNL     1     158.325   1.367  26.941  1.00  0.00     0.185 HD
HETATM   20  N7  UNL     1     159.906   4.144  26.180  1.00  0.00    -0.154 N 
HETATM   21  C18 UNL     1     160.992   4.417  26.955  1.00  0.00     0.286 C 
ATOM     22  H7  UNL     1     159.772   4.777  25.392  1.00  0.00     0.187 HD
HETATM   23  O7  UNL     1     161.911   5.092  26.436  1.00  0.00    -0.265 OA
BRANCH  18  24
HETATM   24  N6  UNL     1     157.953   3.237  25.506  1.00  0.00    -0.234 N 
ATOM     25  H62 UNL     1     157.064   2.888  25.866  1.00  0.00     0.174 HD
ATOM     26  H61 UNL     1     158.132   3.638  24.585  1.00  0.00     0.174 HD
ENDBRANCH  18  24
ENDBRANCH  11  13
ENDBRANCH   8  11
ENDBRANCH   5   8
ENDBRANCH   3   5
BRANCH   1  27
HETATM   27  C9  UNL     1     160.487  10.374  31.279  1.00  0.00     0.125 A 
HETATM   28  C8  UNL     1     161.444  11.220  31.784  1.00  0.00     0.074 A 
HETATM   29  C7  UNL     1     160.826  12.032  32.741  1.00  0.00     0.103 A 
HETATM   30  O8  UNL     1     159.573  11.649  32.767  1.00  0.00    -0.239 OA
HETATM   31  N8  UNL     1     159.354  10.685  31.924  1.00  0.00    -0.256 N 
ATOM     32  H8  UNL     1     158.453  10.231  31.775  1.00  0.00     0.195 HD
BRANCH  29  33
HETATM   33  C6  UNL     1     161.487  13.088  33.533  1.00  0.00     0.246 C 
BRANCH  33  34
HETATM   34  O4  UNL     1     161.823  14.187  32.749  1.00  0.00    -0.309 OA
BRANCH  34  35
HETATM   35  C5  UNL     1     163.080  14.550  32.358  1.00  0.00     0.320 C 
HETATM   36  O3  UNL     1     163.975  13.667  32.303  1.00  0.00    -0.257 OA
BRANCH  35  37
HETATM   37  C4  UNL     1     163.464  15.910  31.993  1.00  0.00     0.184 A 
HETATM   38  C2  UNL     1     164.456  16.704  32.469  1.00  0.00     0.093 A 
HETATM   39  C1  UNL     1     165.407  16.297  33.539  1.00  0.00     0.080 C 
HETATM   40  O1  UNL     1     164.380  17.830  31.814  1.00  0.00    -0.276 OA
HETATM   41  C3  UNL     1     163.398  17.802  30.945  1.00  0.00     0.268 A 
HETATM   42  N1  UNL     1     163.037  18.754  30.122  1.00  0.00    -0.359 N 
HETATM   43  O2  UNL     1     162.847  16.614  31.068  1.00  0.00    -0.265 OA
ATOM     44  H12 UNL     1     163.465  19.674  30.025  1.00  0.00     0.160 HD
ATOM     45  H11 UNL     1     162.273  18.732  29.446  1.00  0.00     0.160 HD
ENDBRANCH  35  37
ENDBRANCH  34  35
ENDBRANCH  33  34
ENDBRANCH  29  33
ENDBRANCH   1  27
TORSDOF 12
ENDMDL
MODEL 2
REMARK VINA RESULT: -8.546551312      2.538     11.543
REMARK  12 active torsions:
REMARK  status: ('A' for Active; 'I' for Inactive)
REMARK    1  A    between atoms: C4_9  and  C5_10 
REMARK    2  A    between atoms: C5_10  and  O4_12 
REMARK    3  A    between atoms: O4_12  and  C6_13 
REMARK    4  A    between atoms: C6_13  and  C7_14 
REMARK    5  A    between atoms: C9_16  and  C10_17 
REMARK       I    between atoms: C10_17  and  N2_19 
REMARK    6  A    between atoms: N2_19  and  C11_21 
REMARK    7  A    between atoms: C11_21  and  O6_22 
REMARK    8  A    between atoms: C11_21  and  C12_24 
REMARK    9  A    between atoms: C12_24  and  C13_25 
REMARK   10  A    between atoms: C12_24  and  N3_27 
REMARK   11  A    between atoms: N3_27  and  C14_29 
REMARK   12  A    between atoms: C17_35  and  N6_36 
ROOT
HETATM    1  C10 UNL     1     160.325  10.598  31.663  1.00  0.00     0.275 C 
HETATM    2  O5  UNL     1     159.194  11.016  31.945  1.00  0.00    -0.266 OA
HETATM    3  N2  UNL     1     161.519  11.192  32.064  1.00  0.00    -0.304 N 
ATOM      4  H2  UNL     1     162.374  10.734  31.750  1.00  0.00     0.171 HD
ENDROOT
BRANCH   3   5
HETATM    5  C11 UNL     1     161.689  12.337  32.840  1.00  0.00     0.142 C 
BRANCH   5   6
HETATM    6  O6  UNL     1     160.647  12.898  33.380  1.00  0.00    -0.348 OA
ATOM      7  H6  UNL     1     160.376  12.630  34.250  1.00  0.00     0.219 HD
ENDBRANCH   5   6
BRANCH   5   8
HETATM    8  C12 UNL     1     162.962  13.052  33.158  1.00  0.00     0.166 C 
BRANCH   8   9
HETATM    9  C13 UNL     1     163.319  12.785  34.639  1.00  0.00     0.119 C 
HETATM   10  S1  UNL     1     165.053  13.068  34.997  1.00  0.00    -0.095 SA
ENDBRANCH   8   9
BRANCH   8  11
HETATM   11  N3  UNL     1     162.682  14.444  33.001  1.00  0.00    -0.372 N 
ATOM     12  H3  UNL     1     161.921  14.770  33.597  1.00  0.00     0.160 HD
BRANCH  11  13
HETATM   13  C14 UNL     1     163.170  15.346  32.288  1.00  0.00     0.101 C 
HETATM   14  C15 UNL     1     163.914  16.350  32.944  1.00  0.00     0.080 C 
HETATM   15  C16 UNL     1     164.932  17.120  32.438  1.00  0.00     0.134 C 
HETATM   16  N4  UNL     1     165.554  18.015  33.361  1.00  0.00    -0.082 NA
HETATM   17  N5  UNL     1     165.438  17.162  31.190  1.00  0.00    -0.179 N 
HETATM   18  C17 UNL     1     165.045  16.430  30.112  1.00  0.00     0.680 C 
ATOM     19  H5  UNL     1     166.203  17.818  31.036  1.00  0.00     0.185 HD
HETATM   20  N7  UNL     1     163.927  15.693  29.992  1.00  0.00    -0.154 N 
HETATM   21  C18 UNL     1     162.988  15.356  30.919  1.00  0.00     0.286 C 
ATOM     22  H7  UNL     1     163.754  15.327  29.056  1.00  0.00     0.187 HD
HETATM   23  O7  UNL     1     161.856  15.025  30.496  1.00  0.00    -0.265 OA
BRANCH  18  24
HETATM   24  N6  UNL     1     165.854  16.461  29.104  1.00  0.00    -0.234 N 
ATOM     25  H62 UNL     1     165.444  16.504  28.171  1.00  0.00     0.174 HD
ATOM     26  H61 UNL     1     166.845  16.441  29.344  1.00  0.00     0.174 HD
ENDBRANCH  18  24
ENDBRANCH  11  13
ENDBRANCH   8  11
ENDBRANCH   5   8
ENDBRANCH   3   5
BRANCH   1  27
HETATM   27  C9  UNL     1     160.417   9.369  30.834  1.00  0.00     0.125 A 
HETATM   28  C8  UNL     1     161.362   8.378  30.932  1.00  0.00     0.074 A 
HETATM   29  C7  UNL     1     161.068   7.417  29.960  1.00  0.00     0.103 A 
HETATM   30  O8  UNL     1     159.999   7.859  29.344  1.00  0.00    -0.239 OA
HETATM   31  N8  UNL     1     159.603   8.994  29.837  1.00  0.00    -0.256 N 
ATOM     32  H8  UNL     1     158.793   9.522  29.513  1.00  0.00     0.195 HD
BRANCH  29  33
HETATM   33  C6  UNL     1     161.831   6.176  29.714  1.00  0.00     0.246 C 
BRANCH  33  34
HETATM   34  O4  UNL     1     162.142   6.022  28.367  1.00  0.00    -0.309 OA
BRANCH  34  35
HETATM   35  C5  UNL     1     162.071   4.864  27.646  1.00  0.00     0.320 C 
HETATM   36  O3  UNL     1     163.135   4.369  27.192  1.00  0.00    -0.257 OA
BRANCH  35  37
HETATM   37  C4  UNL     1     160.831   4.150  27.362  1.00  0.00     0.184 A 
HETATM   38  C2  UNL     1     160.315   3.023  27.915  1.00  0.00     0.093 A 
HETATM   39  C1  UNL     1     160.978   2.250  29.001  1.00  0.00     0.080 C 
HETATM   40  O1  UNL     1     159.182   2.796  27.310  1.00  0.00    -0.276 OA
HETATM   41  C3  UNL     1     158.942   3.711  26.402  1.00  0.00     0.268 A 
HETATM   42  N1  UNL     1     157.902   3.794  25.612  1.00  0.00    -0.359 N 
HETATM   43  O2  UNL     1     159.966   4.535  26.448  1.00  0.00    -0.265 OA
ATOM     44  H12 UNL     1     157.108   3.155  25.576  1.00  0.00     0.160 HD
ATOM     45  H11 UNL     1     157.715   4.506  24.905  1.00  0.00     0.160 HD
ENDBRANCH  35  37
ENDBRANCH  34  35
ENDBRANCH  33  34
ENDBRANCH  29  33
ENDBRANCH   1  27
TORSDOF 12
ENDMDL
MODEL 3
REMARK VINA RESULT: -8.276964281      2.665     11.666
REMARK  12 active torsions:
REMARK  status: ('A' for Active; 'I' for Inactive)
REMARK    1  A    between atoms: C4_9  and  C5_10 
REMARK    2  A    between atoms: C5_10  and  O4_12 
REMARK    3  A    between atoms: O4_12  and  C6_13 
REMARK    4  A    between atoms: C6_13  and  C7_14 
REMARK    5  A    between atoms: C9_16  and  C10_17 
REMARK       I    between atoms: C10_17  and  N2_19 
REMARK    6  A    between atoms: N2_19  and  C11_21 
REMARK    7  A    between atoms: C11_21  and  O6_22 
REMARK    8  A    between atoms: C11_21  and  C12_24 
REMARK    9  A    between atoms: C12_24  and  C13_25 
REMARK   10  A    between atoms: C12_24  and  N3_27 
REMARK   11  A    between atoms: N3_27  and  C14_29 
REMARK   12  A    between atoms: C17_35  and  N6_36 
ROOT
HETATM    1  C10 UNL     1     160.634  10.850  32.643  1.00  0.00     0.275 C 
HETATM    2  O5  UNL     1     159.565  11.387  32.961  1.00  0.00    -0.266 OA
HETATM    3  N2  UNL     1     161.805  11.531  32.319  1.00  0.00    -0.304 N 
ATOM      4  H2  UNL     1     162.607  10.951  32.073  1.00  0.00     0.171 HD
ENDROOT
BRANCH   3   5
HETATM    5  C11 UNL     1     162.016  12.908  32.289  1.00  0.00     0.142 C 
BRANCH   5   6
HETATM    6  O6  UNL     1     160.997  13.709  32.401  1.00  0.00    -0.348 OA
ATOM      7  H6  UNL     1     161.003  14.374  33.080  1.00  0.00     0.219 HD
ENDBRANCH   5   6
BRANCH   5   8
HETATM    8  C12 UNL     1     163.311  13.637  32.136  1.00  0.00     0.166 C 
BRANCH   8   9
HETATM    9  C13 UNL     1     163.842  13.996  33.543  1.00  0.00     0.119 C 
HETATM   10  S1  UNL     1     165.627  13.866  33.666  1.00  0.00    -0.095 SA
ENDBRANCH   8   9
BRANCH   8  11
HETATM   11  N3  UNL     1     163.002  14.848  31.443  1.00  0.00    -0.372 N 
ATOM     12  H3  UNL     1     162.055  14.864  31.066  1.00  0.00     0.160 HD
BRANCH  11  13
HETATM   13  C14 UNL     1     163.647  15.891  31.201  1.00  0.00     0.101 C 
HETATM   14  C15 UNL     1     164.823  15.753  30.434  1.00  0.00     0.080 C 
HETATM   15  C16 UNL     1     165.420  16.685  29.621  1.00  0.00     0.134 C 
HETATM   16  N4  UNL     1     166.574  16.240  28.907  1.00  0.00    -0.082 NA
HETATM   17  N5  UNL     1     165.081  17.968  29.392  1.00  0.00    -0.179 N 
HETATM   18  C17 UNL     1     164.038  18.658  29.930  1.00  0.00     0.680 C 
ATOM     19  H5  UNL     1     165.673  18.482  28.741  1.00  0.00     0.185 HD
HETATM   20  N7  UNL     1     163.273  18.293  30.975  1.00  0.00    -0.154 N 
HETATM   21  C18 UNL     1     163.222  17.120  31.664  1.00  0.00     0.286 C 
ATOM     22  H7  UNL     1     162.629  19.012  31.304  1.00  0.00     0.187 HD
HETATM   23  O7  UNL     1     162.748  17.156  32.824  1.00  0.00    -0.265 OA
BRANCH  18  24
HETATM   24  N6  UNL     1     163.771  19.785  29.357  1.00  0.00    -0.234 N 
ATOM     25  H62 UNL     1     163.794  20.626  29.933  1.00  0.00     0.174 HD
ATOM     26  H61 UNL     1     163.559  19.724  28.360  1.00  0.00     0.174 HD
ENDBRANCH  18  24
ENDBRANCH  11  13
ENDBRANCH   8  11
ENDBRANCH   5   8
ENDBRANCH   3   5
BRANCH   1  27
HETATM   27  C9  UNL     1     160.673   9.366  32.603  1.00  0.00     0.125 A 
HETATM   28  C8  UNL     1     161.336   8.584  31.690  1.00  0.00     0.074 A 
HETATM   29  C7  UNL     1     161.099   7.247  32.029  1.00  0.00     0.103 A 
HETATM   30  O8  UNL     1     160.332   7.287  33.091  1.00  0.00    -0.239 OA
HETATM   31  N8  UNL     1     160.071   8.511  33.441  1.00  0.00    -0.256 N 
ATOM     32  H8  UNL     1     159.494   8.781  34.238  1.00  0.00     0.195 HD
BRANCH  29  33
HETATM   33  C6  UNL     1     161.625   6.069  31.311  1.00  0.00     0.246 C 
BRANCH  33  34
HETATM   34  O4  UNL     1     160.795   5.693  30.259  1.00  0.00    -0.309 OA
BRANCH  34  35
HETATM   35  C5  UNL     1     160.814   4.498  29.599  1.00  0.00     0.320 C 
HETATM   36  O3  UNL     1     161.172   3.467  30.225  1.00  0.00    -0.257 OA
BRANCH  35  37
HETATM   37  C4  UNL     1     160.442   4.330  28.198  1.00  0.00     0.184 A 
HETATM   38  C2  UNL     1     161.192   4.413  27.070  1.00  0.00     0.093 A 
HETATM   39  C1  UNL     1     162.649   4.716  27.060  1.00  0.00     0.080 C 
HETATM   40  O1  UNL     1     160.387   4.181  26.069  1.00  0.00    -0.276 OA
HETATM   41  C3  UNL     1     159.167   3.954  26.491  1.00  0.00     0.268 A 
HETATM   42  N1  UNL     1     158.111   3.687  25.764  1.00  0.00    -0.359 N 
HETATM   43  O2  UNL     1     159.219   4.049  27.801  1.00  0.00    -0.265 OA
ATOM     44  H12 UNL     1     158.070   3.613  24.748  1.00  0.00     0.160 HD
ATOM     45  H11 UNL     1     157.161   3.510  26.092  1.00  0.00     0.160 HD
ENDBRANCH  35  37
ENDBRANCH  34  35
ENDBRANCH  33  34
ENDBRANCH  29  33
ENDBRANCH   1  27
TORSDOF 12
ENDMDL
MODEL 4
REMARK VINA RESULT: -8.260465063      2.633      4.087
REMARK  12 active torsions:
REMARK  status: ('A' for Active; 'I' for Inactive)
REMARK    1  A    between atoms: C4_9  and  C5_10 
REMARK    2  A    between atoms: C5_10  and  O4_12 
REMARK    3  A    between atoms: O4_12  and  C6_13 
REMARK    4  A    between atoms: C6_13  and  C7_14 
REMARK    5  A    between atoms: C9_16  and  C10_17 
REMARK       I    between atoms: C10_17  and  N2_19 
REMARK    6  A    between atoms: N2_19  and  C11_21 
REMARK    7  A    between atoms: C11_21  and  O6_22 
REMARK    8  A    between atoms: C11_21  and  C12_24 
REMARK    9  A    between atoms: C12_24  and  C13_25 
REMARK   10  A    between atoms: C12_24  and  N3_27 
REMARK   11  A    between atoms: N3_27  and  C14_29 
REMARK   12  A    between atoms: C17_35  and  N6_36 
ROOT
HETATM    1  C10 UNL     1     160.698   9.410  30.377  1.00  0.00     0.275 C 
HETATM    2  O5  UNL     1     160.306   9.701  29.239  1.00  0.00    -0.266 OA
HETATM    3  N2  UNL     1     161.250   8.185  30.742  1.00  0.00    -0.304 N 
ATOM      4  H2  UNL     1     161.524   8.091  31.720  1.00  0.00     0.171 HD
ENDROOT
BRANCH   3   5
HETATM    5  C11 UNL     1     161.475   7.070  29.936  1.00  0.00     0.142 C 
BRANCH   5   6
HETATM    6  O6  UNL     1     161.798   7.244  28.688  1.00  0.00    -0.348 OA
ATOM      7  H6  UNL     1     162.603   6.862  28.360  1.00  0.00     0.219 HD
ENDBRANCH   5   6
BRANCH   5   8
HETATM    8  C12 UNL     1     161.391   5.628  30.316  1.00  0.00     0.166 C 
BRANCH   8   9
HETATM    9  C13 UNL     1     162.329   5.383  31.521  1.00  0.00     0.119 C 
HETATM   10  S1  UNL     1     161.890   3.917  32.457  1.00  0.00    -0.095 SA
ENDBRANCH   8   9
BRANCH   8  11
HETATM   11  N3  UNL     1     161.889   4.895  29.195  1.00  0.00    -0.372 N 
ATOM     12  H3  UNL     1     162.887   5.033  29.037  1.00  0.00     0.160 HD
BRANCH  11  13
HETATM   13  C14 UNL     1     161.361   4.123  28.367  1.00  0.00     0.101 C 
HETATM   14  C15 UNL     1     160.960   2.855  28.840  1.00  0.00     0.080 C 
HETATM   15  C16 UNL     1     159.962   2.045  28.356  1.00  0.00     0.134 C 
HETATM   16  N4  UNL     1     159.732   0.837  29.083  1.00  0.00    -0.082 NA
HETATM   17  N5  UNL     1     159.158   2.217  27.289  1.00  0.00    -0.179 N 
HETATM   18  C17 UNL     1     159.151   3.264  26.418  1.00  0.00     0.680 C 
ATOM     19  H5  UNL     1     158.477   1.479  27.113  1.00  0.00     0.185 HD
HETATM   20  N7  UNL     1     160.087   4.221  26.287  1.00  0.00    -0.154 N 
HETATM   21  C18 UNL     1     161.179   4.497  27.051  1.00  0.00     0.286 C 
ATOM     22  H7  UNL     1     159.957   4.839  25.486  1.00  0.00     0.187 HD
HETATM   23  O7  UNL     1     162.104   5.150  26.515  1.00  0.00    -0.265 OA
BRANCH  18  24
HETATM   24  N6  UNL     1     158.120   3.322  25.640  1.00  0.00    -0.234 N 
ATOM     25  H62 UNL     1     158.065   4.103  24.986  1.00  0.00     0.174 HD
ATOM     26  H61 UNL     1     157.445   2.566  25.759  1.00  0.00     0.174 HD
ENDBRANCH  18  24
ENDBRANCH  11  13
ENDBRANCH   8  11
ENDBRANCH   5   8
ENDBRANCH   3   5
BRANCH   1  27
HETATM   27  C9  UNL     1     160.570  10.445  31.434  1.00  0.00     0.125 A 
HETATM   28  C8  UNL     1     161.429  11.489  31.673  1.00  0.00     0.074 A 
HETATM   29  C7  UNL     1     160.924  12.210  32.759  1.00  0.00     0.103 A 
HETATM   30  O8  UNL     1     159.825  11.589  33.110  1.00  0.00    -0.239 OA
HETATM   31  N8  UNL     1     159.600  10.558  32.352  1.00  0.00    -0.256 N 
ATOM     32  H8  UNL     1     158.803   9.928  32.442  1.00  0.00     0.195 HD
BRANCH  29  33
HETATM   33  C6  UNL     1     161.535  13.416  33.354  1.00  0.00     0.246 C 
BRANCH  33  34
HETATM   34  O4  UNL     1     162.255  13.114  34.505  1.00  0.00    -0.309 OA
BRANCH  34  35
HETATM   35  C5  UNL     1     163.351  12.303  34.587  1.00  0.00     0.320 C 
HETATM   36  O3  UNL     1     164.389  12.624  33.952  1.00  0.00    -0.257 OA
BRANCH  35  37
HETATM   37  C4  UNL     1     163.404  11.073  35.369  1.00  0.00     0.184 A 
HETATM   38  C2  UNL     1     163.463   9.777  34.972  1.00  0.00     0.093 A 
HETATM   39  C1  UNL     1     163.485   9.342  33.549  1.00  0.00     0.080 C 
HETATM   40  O1  UNL     1     163.491   9.055  36.059  1.00  0.00    -0.276 OA
HETATM   41  C3  UNL     1     163.455   9.813  37.128  1.00  0.00     0.268 A 
HETATM   42  N1  UNL     1     163.470   9.426  38.378  1.00  0.00    -0.359 N 
HETATM   43  O2  UNL     1     163.402  11.050  36.685  1.00  0.00    -0.265 OA
ATOM     44  H12 UNL     1     163.511   8.467  38.722  1.00  0.00     0.160 HD
ATOM     45  H11 UNL     1     163.442  10.016  39.210  1.00  0.00     0.160 HD
ENDBRANCH  35  37
ENDBRANCH  34  35
ENDBRANCH  33  34
ENDBRANCH  29  33
ENDBRANCH   1  27
TORSDOF 12
ENDMDL
MODEL 5
REMARK VINA RESULT: -8.235246999      1.596      2.165
REMARK  12 active torsions:
REMARK  status: ('A' for Active; 'I' for Inactive)
REMARK    1  A    between atoms: C4_9  and  C5_10 
REMARK    2  A    between atoms: C5_10  and  O4_12 
REMARK    3  A    between atoms: O4_12  and  C6_13 
REMARK    4  A    between atoms: C6_13  and  C7_14 
REMARK    5  A    between atoms: C9_16  and  C10_17 
REMARK       I    between atoms: C10_17  and  N2_19 
REMARK    6  A    between atoms: N2_19  and  C11_21 
REMARK    7  A    between atoms: C11_21  and  O6_22 
REMARK    8  A    between atoms: C11_21  and  C12_24 
REMARK    9  A    between atoms: C12_24  and  C13_25 
REMARK   10  A    between atoms: C12_24  and  N3_27 
REMARK   11  A    between atoms: N3_27  and  C14_29 
REMARK   12  A    between atoms: C17_35  and  N6_36 
ROOT
HETATM    1  C10 UNL     1     161.331   6.923  29.991  1.00  0.00     0.275 C 
HETATM    2  O5  UNL     1     160.635   6.172  29.296  1.00  0.00    -0.266 OA
HETATM    3  N2  UNL     1     162.594   6.609  30.488  1.00  0.00    -0.304 N 
ATOM      4  H2  UNL     1     163.045   7.331  31.050  1.00  0.00     0.171 HD
ENDROOT
BRANCH   3   5
HETATM    5  C11 UNL     1     163.317   5.431  30.313  1.00  0.00     0.142 C 
BRANCH   5   6
HETATM    6  O6  UNL     1     164.434   5.465  29.646  1.00  0.00    -0.348 OA
ATOM      7  H6  UNL     1     164.427   5.770  28.746  1.00  0.00     0.219 HD
ENDBRANCH   5   6
BRANCH   5   8
HETATM    8  C12 UNL     1     162.977   4.061  30.803  1.00  0.00     0.166 C 
BRANCH   8   9
HETATM    9  C13 UNL     1     164.084   3.600  31.778  1.00  0.00     0.119 C 
HETATM   10  S1  UNL     1     164.943   2.132  31.208  1.00  0.00    -0.095 SA
ENDBRANCH   8   9
BRANCH   8  11
HETATM   11  N3  UNL     1     163.000   3.214  29.653  1.00  0.00    -0.372 N 
ATOM     12  H3  UNL     1     163.897   2.748  29.516  1.00  0.00     0.160 HD
BRANCH  11  13
HETATM   13  C14 UNL     1     162.156   2.923  28.780  1.00  0.00     0.101 C 
HETATM   14  C15 UNL     1     161.304   1.831  29.051  1.00  0.00     0.080 C 
HETATM   15  C16 UNL     1     160.036   1.605  28.573  1.00  0.00     0.134 C 
HETATM   16  N4  UNL     1     159.379   0.441  29.078  1.00  0.00    -0.082 NA
HETATM   17  N5  UNL     1     159.309   2.320  27.694  1.00  0.00    -0.179 N 
HETATM   18  C17 UNL     1     159.675   3.465  27.054  1.00  0.00     0.680 C 
ATOM     19  H5  UNL     1     158.378   1.963  27.482  1.00  0.00     0.185 HD
HETATM   20  N7  UNL     1     160.909   3.994  26.973  1.00  0.00    -0.154 N 
HETATM   21  C18 UNL     1     162.063   3.642  27.604  1.00  0.00     0.286 C 
ATOM     22  H7  UNL     1     160.994   4.786  26.337  1.00  0.00     0.187 HD
HETATM   23  O7  UNL     1     163.140   3.999  27.072  1.00  0.00    -0.265 OA
BRANCH  18  24
HETATM   24  N6  UNL     1     158.712   4.097  26.467  1.00  0.00    -0.234 N 
ATOM     25  H62 UNL     1     157.977   3.540  26.032  1.00  0.00     0.174 HD
ATOM     26  H61 UNL     1     158.782   5.115  26.496  1.00  0.00     0.174 HD
ENDBRANCH  18  24
ENDBRANCH  11  13
ENDBRANCH   8  11
ENDBRANCH   5   8
ENDBRANCH   3   5
BRANCH   1  27
HETATM   27  C9  UNL     1     160.779   8.261  30.321  1.00  0.00     0.125 A 
HETATM   28  C8  UNL     1     161.079   9.028  31.421  1.00  0.00     0.074 A 
HETATM   29  C7  UNL     1     160.332  10.207  31.329  1.00  0.00     0.103 A 
HETATM   30  O8  UNL     1     159.643  10.098  30.219  1.00  0.00    -0.239 OA
HETATM   31  N8  UNL     1     159.888   8.973  29.617  1.00  0.00    -0.256 N 
ATOM     32  H8  UNL     1     159.464   8.676  28.739  1.00  0.00     0.195 HD
BRANCH  29  33
HETATM   33  C6  UNL     1     160.348  11.317  32.303  1.00  0.00     0.246 C 
BRANCH  33  34
HETATM   34  O4  UNL     1     161.085  12.401  31.837  1.00  0.00    -0.309 OA
BRANCH  34  35
HETATM   35  C5  UNL     1     161.486  13.483  32.567  1.00  0.00     0.320 C 
HETATM   36  O3  UNL     1     161.079  13.597  33.752  1.00  0.00    -0.257 OA
BRANCH  35  37
HETATM   37  C4  UNL     1     162.367  14.531  32.063  1.00  0.00     0.184 A 
HETATM   38  C2  UNL     1     163.700  14.719  32.230  1.00  0.00     0.093 A 
HETATM   39  C1  UNL     1     164.576  13.813  33.023  1.00  0.00     0.080 C 
HETATM   40  O1  UNL     1     164.009  15.805  31.577  1.00  0.00    -0.276 OA
HETATM   41  C3  UNL     1     162.951  16.324  31.002  1.00  0.00     0.268 A 
HETATM   42  N1  UNL     1     162.895  17.408  30.270  1.00  0.00    -0.359 N 
HETATM   43  O2  UNL     1     161.951  15.528  31.311  1.00  0.00    -0.265 OA
ATOM     44  H12 UNL     1     163.670  18.025  30.029  1.00  0.00     0.160 HD
ATOM     45  H11 UNL     1     162.072  17.812  29.821  1.00  0.00     0.160 HD
ENDBRANCH  35  37
ENDBRANCH  34  35
ENDBRANCH  33  34
ENDBRANCH  29  33
ENDBRANCH   1  27
TORSDOF 12
ENDMDL
