MODEL 1
REMARK VINA RESULT: -7.958955614      0.000      0.000
REMARK  14 active torsions:
REMARK  status: ('A' for Active; 'I' for Inactive)
REMARK    1  A    between atoms: C2_2  and  C4_4 
REMARK    2  A    between atoms: C4_4  and  N1_5 
REMARK    3  A    between atoms: C4_4  and  C5_9 
REMARK    4  A    between atoms: C5_9  and  O1_10 
REMARK    5  A    between atoms: C5_9  and  N2_12 
REMARK    6  A    between atoms: N2_12  and  C6_14 
REMARK    7  A    between atoms: C7_17  and  C8_18 
REMARK    8  A    between atoms: C8_18  and  O2_19 
REMARK    9  A    between atoms: C8_18  and  N4_21 
REMARK   10  A    between atoms: N5_24  and  C11_25 
REMARK   11  A    between atoms: C12_28  and  N7_29 
REMARK   12  A    between atoms: N10_37  and  C14_38 
REMARK   13  A    between atoms: C15_39  and  C16_40 
REMARK   14  A    between atoms: C16_40  and  O3_41 
ROOT
HETATM    1  N4  UNL     1     160.798   9.975  32.109  1.00  0.00    -0.380 N 
HETATM    2  C9  UNL     1     160.521   8.814  32.874  1.00  0.00     0.140 C 
HETATM    3  C10 UNL     1     161.163   7.595  32.282  1.00  0.00     0.160 C 
HETATM    4  N5  UNL     1     161.133   7.669  30.845  1.00  0.00    -0.214 N 
HETATM    5  C18 UNL     1     160.413   8.643  30.071  1.00  0.00     0.160 C 
HETATM    6  C19 UNL     1     160.264   9.954  30.756  1.00  0.00     0.140 C 
ENDROOT
BRANCH   1   7
HETATM    7  C8  UNL     1     160.616  11.232  32.732  1.00  0.00     0.267 C 
BRANCH   7   8
HETATM    8  C7  UNL     1     161.863  12.096  32.695  1.00  0.00     0.066 A 
HETATM    9  N3  UNL     1     161.999  13.069  31.827  1.00  0.00    -0.336 N 
HETATM   10  C6  UNL     1     163.121  13.769  31.805  1.00  0.00     0.146 A 
ATOM     11  H3  UNL     1     161.246  13.284  31.175  1.00  0.00     0.168 HD
HETATM   12  S1  UNL     1     164.043  13.034  33.064  1.00  0.00    -0.064 SA
HETATM   13  C20 UNL     1     162.905  11.855  33.544  1.00  0.00     0.082 A 
BRANCH  10  14
HETATM   14  N2  UNL     1     163.470  14.758  31.037  1.00  0.00    -0.342 N 
ATOM     15  H2  UNL     1     164.339  14.694  30.508  1.00  0.00     0.164 HD
BRANCH  14  16
HETATM   16  C5  UNL     1     162.670  15.926  30.919  1.00  0.00     0.250 C 
BRANCH  16  17
HETATM   17  C4  UNL     1     163.486  16.966  30.183  1.00  0.00     0.235 C 
BRANCH  17  18
HETATM   18  C2  UNL     1     164.933  16.879  30.563  1.00  0.00     0.012 C 
HETATM   19  C1  UNL     1     165.878  17.023  29.403  1.00  0.00     0.012 C 
HETATM   20  C3  UNL     1     165.267  17.898  31.607  1.00  0.00     0.012 C 
ENDBRANCH  17  18
BRANCH  17  21
HETATM   21  N1  UNL     1     162.949  18.278  30.408  1.00  0.00    -0.070 N 
ATOM     22  H13 UNL     1     163.357  18.960  29.767  1.00  0.00     0.274 HD
ATOM     23  H12 UNL     1     161.976  18.337  30.106  1.00  0.00     0.274 HD
ATOM     24  H11 UNL     1     163.054  18.574  31.378  1.00  0.00     0.274 HD
ENDBRANCH  17  21
ENDBRANCH  16  17
BRANCH  16  25
HETATM   25  O1  UNL     1     161.511  15.610  30.183  1.00  0.00    -0.375 OA
ATOM     26  H1  UNL     1     160.776  15.480  30.771  1.00  0.00     0.212 HD
ENDBRANCH  16  25
ENDBRANCH  14  16
ENDBRANCH  10  14
ENDBRANCH   7   8
BRANCH   7  27
HETATM   27  O2  UNL     1     159.531  11.928  32.215  1.00  0.00    -0.371 OA
ATOM     28  H2  UNL     1     159.759  12.322  31.381  1.00  0.00     0.212 HD
ENDBRANCH   7  27
ENDBRANCH   1   7
BRANCH   4  29
HETATM   29  C11 UNL     1     161.891   6.668  30.152  1.00  0.00     0.683 A 
HETATM   30  N6  UNL     1     163.159   6.417  30.571  1.00  0.00    -0.175 N 
HETATM   31  C12 UNL     1     163.904   5.508  29.944  1.00  0.00     0.147 A 
ATOM     32  H6  UNL     1     163.541   6.926  31.367  1.00  0.00     0.186 HD
HETATM   33  C13 UNL     1     163.370   4.834  28.871  1.00  0.00     0.140 A 
HETATM   34  N8  UNL     1     163.829   3.894  28.037  1.00  0.00    -0.279 N 
HETATM   35  C17 UNL     1     162.058   5.088  28.431  1.00  0.00     0.175 A 
HETATM   36  N9  UNL     1     162.901   3.590  27.163  1.00  0.00    -0.234 N 
ATOM     37  H8  UNL     1     164.759   3.477  28.075  1.00  0.00     0.189 HD
HETATM   38  N10 UNL     1     161.778   4.324  27.384  1.00  0.00    -0.234 N 
ATOM     39  H9  UNL     1     163.007   2.900  26.420  1.00  0.00     0.209 HD
HETATM   40  N11 UNL     1     161.379   6.014  29.114  1.00  0.00    -0.172 N 
ATOM     41  H11 UNL     1     160.424   6.228  28.827  1.00  0.00     0.186 HD
BRANCH  31  42
HETATM   42  N7  UNL     1     165.125   5.233  30.308  1.00  0.00    -0.383 N 
ATOM     43  H72 UNL     1     165.877   5.843  29.991  1.00  0.00     0.157 HD
ATOM     44  H71 UNL     1     165.353   4.431  30.898  1.00  0.00     0.157 HD
ENDBRANCH  31  42
BRANCH  38  45
HETATM   45  C14 UNL     1     160.638   4.222  26.594  1.00  0.00     0.118 C 
HETATM   46  C15 UNL     1     159.429   3.843  26.817  1.00  0.00     0.018 C 
BRANCH  46  47
HETATM   47  C16 UNL     1     158.450   3.886  25.641  1.00  0.00     0.192 C 
BRANCH  47  48
HETATM   48  O3  UNL     1     158.538   2.749  24.876  1.00  0.00    -0.397 OA
ATOM     49  H3  UNL     1     158.198   1.992  25.340  1.00  0.00     0.209 HD
ENDBRANCH  47  48
ENDBRANCH  46  47
ENDBRANCH  38  45
ENDBRANCH   4  29
TORSDOF 14
ENDMDL
MODEL 2
REMARK VINA RESULT: -7.222943274      2.351      3.501
REMARK  14 active torsions:
REMARK  status: ('A' for Active; 'I' for Inactive)
REMARK    1  A    between atoms: C2_2  and  C4_4 
REMARK    2  A    between atoms: C4_4  and  N1_5 
REMARK    3  A    between atoms: C4_4  and  C5_9 
REMARK    4  A    between atoms: C5_9  and  O1_10 
REMARK    5  A    between atoms: C5_9  and  N2_12 
REMARK    6  A    between atoms: N2_12  and  C6_14 
REMARK    7  A    between atoms: C7_17  and  C8_18 
REMARK    8  A    between atoms: C8_18  and  O2_19 
REMARK    9  A    between atoms: C8_18  and  N4_21 
REMARK   10  A    between atoms: N5_24  and  C11_25 
REMARK   11  A    between atoms: C12_28  and  N7_29 
REMARK   12  A    between atoms: N10_37  and  C14_38 
REMARK   13  A    between atoms: C15_39  and  C16_40 
REMARK   14  A    between atoms: C16_40  and  O3_41 
ROOT
HETATM    1  N4  UNL     1     160.647   9.434  32.242  1.00  0.00    -0.380 N 
HETATM    2  C9  UNL     1     160.554   9.873  30.897  1.00  0.00     0.140 C 
HETATM    3  C10 UNL     1     160.542   8.721  29.937  1.00  0.00     0.160 C 
HETATM    4  N5  UNL     1     161.411   7.675  30.410  1.00  0.00    -0.214 N 
HETATM    5  C18 UNL     1     162.324   7.779  31.515  1.00  0.00     0.160 C 
HETATM    6  C19 UNL     1     161.877   8.729  32.568  1.00  0.00     0.140 C 
ENDROOT
BRANCH   1   7
HETATM    7  C8  UNL     1     160.270  10.341  33.258  1.00  0.00     0.267 C 
BRANCH   7   8
HETATM    8  C7  UNL     1     161.315  11.412  33.514  1.00  0.00     0.066 A 
HETATM    9  N3  UNL     1     161.155  12.642  33.092  1.00  0.00    -0.336 N 
HETATM   10  C6  UNL     1     162.111  13.531  33.301  1.00  0.00     0.146 A 
ATOM     11  H3  UNL     1     160.300  12.911  32.606  1.00  0.00     0.168 HD
HETATM   12  S1  UNL     1     163.305  12.605  34.133  1.00  0.00    -0.064 SA
HETATM   13  C20 UNL     1     162.480  11.110  34.158  1.00  0.00     0.082 A 
BRANCH  10  14
HETATM   14  N2  UNL     1     162.168  14.787  32.969  1.00  0.00    -0.342 N 
ATOM     15  H2  UNL     1     162.132  15.497  33.700  1.00  0.00     0.164 HD
BRANCH  14  16
HETATM   16  C5  UNL     1     162.278  15.193  31.613  1.00  0.00     0.250 C 
BRANCH  16  17
HETATM   17  C4  UNL     1     163.631  15.848  31.441  1.00  0.00     0.235 C 
BRANCH  17  18
HETATM   18  C2  UNL     1     163.530  17.335  31.596  1.00  0.00     0.012 C 
HETATM   19  C1  UNL     1     164.683  17.951  32.337  1.00  0.00     0.012 C 
HETATM   20  C3  UNL     1     163.387  17.996  30.260  1.00  0.00     0.012 C 
ENDBRANCH  17  18
BRANCH  17  21
HETATM   21  N1  UNL     1     164.214  15.476  30.182  1.00  0.00    -0.070 N 
ATOM     22  H13 UNL     1     163.824  16.026  29.417  1.00  0.00     0.274 HD
ATOM     23  H12 UNL     1     165.185  15.782  30.120  1.00  0.00     0.274 HD
ATOM     24  H11 UNL     1     164.129  14.477  30.002  1.00  0.00     0.274 HD
ENDBRANCH  17  21
ENDBRANCH  16  17
BRANCH  16  25
HETATM   25  O1  UNL     1     162.183  14.055  30.788  1.00  0.00    -0.375 OA
ATOM     26  H1  UNL     1     162.636  14.208  29.966  1.00  0.00     0.212 HD
ENDBRANCH  16  25
ENDBRANCH  14  16
ENDBRANCH  10  14
ENDBRANCH   7   8
BRANCH   7  27
HETATM   27  O2  UNL     1     159.032  10.923  33.017  1.00  0.00    -0.371 OA
ATOM     28  H2  UNL     1     159.011  11.303  32.147  1.00  0.00     0.212 HD
ENDBRANCH   7  27
ENDBRANCH   1   7
BRANCH   4  29
HETATM   29  C11 UNL     1     161.340   6.433  29.696  1.00  0.00     0.683 A 
HETATM   30  N6  UNL     1     160.113   5.954  29.358  1.00  0.00    -0.175 N 
HETATM   31  C12 UNL     1     160.002   4.797  28.710  1.00  0.00     0.147 A 
ATOM     32  H6  UNL     1     159.277   6.483  29.603  1.00  0.00     0.186 HD
HETATM   33  C13 UNL     1     161.143   4.099  28.391  1.00  0.00     0.140 A 
HETATM   34  N8  UNL     1     161.385   2.938  27.770  1.00  0.00    -0.279 N 
HETATM   35  C17 UNL     1     162.416   4.587  28.737  1.00  0.00     0.175 A 
HETATM   36  N9  UNL     1     162.677   2.721  27.731  1.00  0.00    -0.234 N 
ATOM     37  H8  UNL     1     160.673   2.317  27.386  1.00  0.00     0.189 HD
HETATM   38  N10 UNL     1     163.350   3.738  28.331  1.00  0.00    -0.234 N 
ATOM     39  H9  UNL     1     163.115   1.902  27.311  1.00  0.00     0.209 HD
HETATM   40  N11 UNL     1     162.440   5.755  29.385  1.00  0.00    -0.172 N 
ATOM     41  H11 UNL     1     163.343   6.144  29.655  1.00  0.00     0.186 HD
BRANCH  31  42
HETATM   42  N7  UNL     1     158.849   4.296  28.365  1.00  0.00    -0.383 N 
ATOM     43  H72 UNL     1     158.108   4.935  28.075  1.00  0.00     0.157 HD
ATOM     44  H71 UNL     1     158.662   3.293  28.373  1.00  0.00     0.157 HD
ENDBRANCH  31  42
BRANCH  38  45
HETATM   45  C14 UNL     1     164.736   3.763  28.452  1.00  0.00     0.118 C 
HETATM   46  C15 UNL     1     165.545   3.756  29.453  1.00  0.00     0.018 C 
BRANCH  46  47
HETATM   47  C16 UNL     1     167.043   3.788  29.147  1.00  0.00     0.192 C 
BRANCH  47  48
HETATM   48  O3  UNL     1     167.522   5.076  29.124  1.00  0.00    -0.397 OA
ATOM     49  H3  UNL     1     166.813   5.708  29.107  1.00  0.00     0.209 HD
ENDBRANCH  47  48
ENDBRANCH  46  47
ENDBRANCH  38  45
ENDBRANCH   4  29
TORSDOF 14
ENDMDL
MODEL 3
REMARK VINA RESULT: -7.090690357      1.639      1.697
REMARK  14 active torsions:
REMARK  status: ('A' for Active; 'I' for Inactive)
REMARK    1  A    between atoms: C2_2  and  C4_4 
REMARK    2  A    between atoms: C4_4  and  N1_5 
REMARK    3  A    between atoms: C4_4  and  C5_9 
REMARK    4  A    between atoms: C5_9  and  O1_10 
REMARK    5  A    between atoms: C5_9  and  N2_12 
REMARK    6  A    between atoms: N2_12  and  C6_14 
REMARK    7  A    between atoms: C7_17  and  C8_18 
REMARK    8  A    between atoms: C8_18  and  O2_19 
REMARK    9  A    between atoms: C8_18  and  N4_21 
REMARK   10  A    between atoms: N5_24  and  C11_25 
REMARK   11  A    between atoms: C12_28  and  N7_29 
REMARK   12  A    between atoms: N10_37  and  C14_38 
REMARK   13  A    between atoms: C15_39  and  C16_40 
REMARK   14  A    between atoms: C16_40  and  O3_41 
ROOT
HETATM    1  N4  UNL     1     160.708   9.845  32.321  1.00  0.00    -0.380 N 
HETATM    2  C9  UNL     1     160.366   8.701  33.086  1.00  0.00     0.140 C 
HETATM    3  C10 UNL     1     161.175   7.504  32.685  1.00  0.00     0.160 C 
HETATM    4  N5  UNL     1     161.401   7.514  31.264  1.00  0.00    -0.214 N 
HETATM    5  C18 UNL     1     160.778   8.404  30.322  1.00  0.00     0.160 C 
HETATM    6  C19 UNL     1     160.431   9.730  30.898  1.00  0.00     0.140 C 
ENDROOT
BRANCH   1   7
HETATM    7  C8  UNL     1     160.343  11.111  32.832  1.00  0.00     0.267 C 
BRANCH   7   8
HETATM    8  C7  UNL     1     161.429  12.157  32.655  1.00  0.00     0.066 A 
HETATM    9  N3  UNL     1     161.170  13.336  32.145  1.00  0.00    -0.336 N 
HETATM   10  C6  UNL     1     162.156  14.200  31.970  1.00  0.00     0.146 A 
ATOM     11  H3  UNL     1     160.216  13.585  31.885  1.00  0.00     0.168 HD
HETATM   12  S1  UNL     1     163.525  13.324  32.547  1.00  0.00    -0.064 SA
HETATM   13  C20 UNL     1     162.725  11.880  32.984  1.00  0.00     0.082 A 
BRANCH  10  14
HETATM   14  N2  UNL     1     162.130  15.405  31.483  1.00  0.00    -0.342 N 
ATOM     15  H2  UNL     1     161.272  15.750  31.055  1.00  0.00     0.164 HD
BRANCH  14  16
HETATM   16  C5  UNL     1     163.270  16.251  31.532  1.00  0.00     0.250 C 
BRANCH  16  17
HETATM   17  C4  UNL     1     163.348  16.989  30.214  1.00  0.00     0.235 C 
BRANCH  17  18
HETATM   18  C2  UNL     1     164.709  16.848  29.600  1.00  0.00     0.012 C 
HETATM   19  C1  UNL     1     165.487  18.133  29.542  1.00  0.00     0.012 C 
HETATM   20  C3  UNL     1     165.510  15.813  30.325  1.00  0.00     0.012 C 
ENDBRANCH  17  18
BRANCH  17  21
HETATM   21  N1  UNL     1     162.974  18.365  30.383  1.00  0.00    -0.070 N 
ATOM     22  H13 UNL     1     162.916  18.846  29.486  1.00  0.00     0.274 HD
ATOM     23  H12 UNL     1     162.000  18.450  30.675  1.00  0.00     0.274 HD
ATOM     24  H11 UNL     1     163.597  18.854  31.026  1.00  0.00     0.274 HD
ENDBRANCH  17  21
ENDBRANCH  16  17
BRANCH  16  25
HETATM   25  O1  UNL     1     163.111  17.167  32.590  1.00  0.00    -0.375 OA
ATOM     26  H1  UNL     1     162.681  16.745  33.326  1.00  0.00     0.212 HD
ENDBRANCH  16  25
ENDBRANCH  14  16
ENDBRANCH  10  14
ENDBRANCH   7   8
BRANCH   7  27
HETATM   27  O2  UNL     1     159.142  11.570  32.308  1.00  0.00    -0.371 OA
ATOM     28  H2  UNL     1     159.251  11.807  31.394  1.00  0.00     0.212 HD
ENDBRANCH   7  27
ENDBRANCH   1   7
BRANCH   4  29
HETATM   29  C11 UNL     1     162.330   6.538  30.772  1.00  0.00     0.683 A 
HETATM   30  N6  UNL     1     163.656   6.832  30.818  1.00  0.00    -0.175 N 
HETATM   31  C12 UNL     1     164.552   5.961  30.356  1.00  0.00     0.147 A 
ATOM     32  H6  UNL     1     163.966   7.722  31.207  1.00  0.00     0.186 HD
HETATM   33  C13 UNL     1     164.112   4.767  29.834  1.00  0.00     0.140 A 
HETATM   34  N8  UNL     1     164.719   3.704  29.294  1.00  0.00    -0.279 N 
HETATM   35  C17 UNL     1     162.741   4.455  29.782  1.00  0.00     0.175 A 
HETATM   36  N9  UNL     1     163.822   2.818  28.940  1.00  0.00    -0.234 N 
ATOM     37  H8  UNL     1     165.727   3.600  29.176  1.00  0.00     0.189 HD
HETATM   38  N10 UNL     1     162.571   3.261  29.233  1.00  0.00    -0.234 N 
ATOM     39  H9  UNL     1     164.033   1.920  28.505  1.00  0.00     0.209 HD
HETATM   40  N11 UNL     1     161.910   5.383  30.267  1.00  0.00    -0.172 N 
ATOM     41  H11 UNL     1     160.907   5.196  30.247  1.00  0.00     0.186 HD
BRANCH  31  42
HETATM   42  N7  UNL     1     165.833   6.197  30.378  1.00  0.00    -0.383 N 
ATOM     43  H72 UNL     1     166.170   7.006  30.900  1.00  0.00     0.157 HD
ATOM     44  H71 UNL     1     166.508   5.604  29.894  1.00  0.00     0.157 HD
ENDBRANCH  31  42
BRANCH  38  45
HETATM   45  C14 UNL     1     161.422   2.531  28.949  1.00  0.00     0.118 C 
HETATM   46  C15 UNL     1     161.074   1.305  29.134  1.00  0.00     0.018 C 
BRANCH  46  47
HETATM   47  C16 UNL     1     159.678   0.892  28.664  1.00  0.00     0.192 C 
BRANCH  47  48
HETATM   48  O3  UNL     1     159.339   1.520  27.491  1.00  0.00    -0.397 OA
ATOM     49  H3  UNL     1     158.970   0.907  26.864  1.00  0.00     0.209 HD
ENDBRANCH  47  48
ENDBRANCH  46  47
ENDBRANCH  38  45
ENDBRANCH   4  29
TORSDOF 14
ENDMDL
MODEL 4
REMARK VINA RESULT: -6.982913124      2.043      2.552
REMARK  14 active torsions:
REMARK  status: ('A' for Active; 'I' for Inactive)
REMARK    1  A    between atoms: C2_2  and  C4_4 
REMARK    2  A    between atoms: C4_4  and  N1_5 
REMARK    3  A    between atoms: C4_4  and  C5_9 
REMARK    4  A    between atoms: C5_9  and  O1_10 
REMARK    5  A    between atoms: C5_9  and  N2_12 
REMARK    6  A    between atoms: N2_12  and  C6_14 
REMARK    7  A    between atoms: C7_17  and  C8_18 
REMARK    8  A    between atoms: C8_18  and  O2_19 
REMARK    9  A    between atoms: C8_18  and  N4_21 
REMARK   10  A    between atoms: N5_24  and  C11_25 
REMARK   11  A    between atoms: C12_28  and  N7_29 
REMARK   12  A    between atoms: N10_37  and  C14_38 
REMARK   13  A    between atoms: C15_39  and  C16_40 
REMARK   14  A    between atoms: C16_40  and  O3_41 
ROOT
HETATM    1  N4  UNL     1     160.805   9.742  32.436  1.00  0.00    -0.380 N 
HETATM    2  C9  UNL     1     160.484   8.525  33.089  1.00  0.00     0.140 C 
HETATM    3  C10 UNL     1     161.105   7.346  32.402  1.00  0.00     0.160 C 
HETATM    4  N5  UNL     1     161.104   7.549  30.976  1.00  0.00    -0.214 N 
HETATM    5  C18 UNL     1     160.425   8.607  30.281  1.00  0.00     0.160 C 
HETATM    6  C19 UNL     1     160.297   9.856  31.078  1.00  0.00     0.140 C 
ENDROOT
BRANCH   1   7
HETATM    7  C8  UNL     1     160.643  10.942  33.165  1.00  0.00     0.267 C 
BRANCH   7   8
HETATM    8  C7  UNL     1     161.587  12.041  32.713  1.00  0.00     0.066 A 
HETATM    9  N3  UNL     1     162.885  11.860  32.675  1.00  0.00    -0.336 N 
HETATM   10  C6  UNL     1     163.672  12.859  32.314  1.00  0.00     0.146 A 
ATOM     11  H3  UNL     1     163.284  10.954  32.922  1.00  0.00     0.168 HD
HETATM   12  S1  UNL     1     162.544  14.128  32.009  1.00  0.00    -0.064 SA
HETATM   13  C20 UNL     1     161.111  13.274  32.371  1.00  0.00     0.082 A 
BRANCH  10  14
HETATM   14  N2  UNL     1     164.967  12.905  32.213  1.00  0.00    -0.342 N 
ATOM     15  H2  UNL     1     165.391  13.001  31.291  1.00  0.00     0.164 HD
BRANCH  14  16
HETATM   16  C5  UNL     1     165.805  12.824  33.357  1.00  0.00     0.250 C 
BRANCH  16  17
HETATM   17  C4  UNL     1     165.623  14.101  34.147  1.00  0.00     0.235 C 
BRANCH  17  18
HETATM   18  C2  UNL     1     166.279  15.258  33.457  1.00  0.00     0.012 C 
HETATM   19  C1  UNL     1     165.435  16.500  33.409  1.00  0.00     0.012 C 
HETATM   20  C3  UNL     1     167.596  15.575  34.095  1.00  0.00     0.012 C 
ENDBRANCH  17  18
BRANCH  17  21
HETATM   21  N1  UNL     1     166.101  13.934  35.491  1.00  0.00    -0.070 N 
ATOM     22  H13 UNL     1     165.394  14.209  36.173  1.00  0.00     0.274 HD
ATOM     23  H12 UNL     1     166.185  12.947  35.734  1.00  0.00     0.274 HD
ATOM     24  H11 UNL     1     166.978  14.429  35.648  1.00  0.00     0.274 HD
ENDBRANCH  17  21
ENDBRANCH  16  17
BRANCH  16  25
HETATM   25  O1  UNL     1     165.412  11.715  34.132  1.00  0.00    -0.375 OA
ATOM     26  H1  UNL     1     165.122  12.002  34.990  1.00  0.00     0.212 HD
ENDBRANCH  16  25
ENDBRANCH  14  16
ENDBRANCH  10  14
ENDBRANCH   7   8
BRANCH   7  27
HETATM   27  O2  UNL     1     159.332  11.398  33.154  1.00  0.00    -0.371 OA
ATOM     28  H2  UNL     1     158.913  11.218  33.987  1.00  0.00     0.212 HD
ENDBRANCH   7  27
ENDBRANCH   1   7
BRANCH   4  29
HETATM   29  C11 UNL     1     161.850   6.593  30.209  1.00  0.00     0.683 A 
HETATM   30  N6  UNL     1     163.179   6.462  30.462  1.00  0.00    -0.175 N 
HETATM   31  C12 UNL     1     163.912   5.599  29.761  1.00  0.00     0.147 A 
ATOM     32  H6  UNL     1     163.616   7.026  31.190  1.00  0.00     0.186 HD
HETATM   33  C13 UNL     1     163.303   4.849  28.782  1.00  0.00     0.140 A 
HETATM   34  N8  UNL     1     163.730   3.924  27.914  1.00  0.00    -0.279 N 
HETATM   35  C17 UNL     1     161.928   4.979  28.514  1.00  0.00     0.175 A 
HETATM   36  N9  UNL     1     162.726   3.518  27.177  1.00  0.00    -0.234 N 
ATOM     37  H8  UNL     1     164.690   3.588  27.837  1.00  0.00     0.189 HD
HETATM   38  N10 UNL     1     161.582   4.162  27.529  1.00  0.00    -0.234 N 
ATOM     39  H9  UNL     1     162.794   2.815  26.440  1.00  0.00     0.209 HD
HETATM   40  N11 UNL     1     161.266   5.866  29.262  1.00  0.00    -0.172 N 
ATOM     41  H11 UNL     1     160.267   5.991  29.099  1.00  0.00     0.186 HD
BRANCH  31  42
HETATM   42  N7  UNL     1     165.189   5.438  29.966  1.00  0.00    -0.383 N 
ATOM     43  H72 UNL     1     165.494   5.056  30.861  1.00  0.00     0.157 HD
ATOM     44  H71 UNL     1     165.891   5.678  29.265  1.00  0.00     0.157 HD
ENDBRANCH  31  42
BRANCH  38  45
HETATM   45  C14 UNL     1     160.362   3.940  26.899  1.00  0.00     0.118 C 
HETATM   46  C15 UNL     1     159.881   4.256  25.748  1.00  0.00     0.018 C 
BRANCH  46  47
HETATM   47  C16 UNL     1     158.454   3.804  25.433  1.00  0.00     0.192 C 
BRANCH  47  48
HETATM   48  O3  UNL     1     158.438   2.545  24.885  1.00  0.00    -0.397 OA
ATOM     49  H3  UNL     1     157.858   2.502  24.133  1.00  0.00     0.209 HD
ENDBRANCH  47  48
ENDBRANCH  46  47
ENDBRANCH  38  45
ENDBRANCH   4  29
TORSDOF 14
ENDMDL
MODEL 5
REMARK VINA RESULT: -6.954150210      3.256     10.955
REMARK  14 active torsions:
REMARK  status: ('A' for Active; 'I' for Inactive)
REMARK    1  A    between atoms: C2_2  and  C4_4 
REMARK    2  A    between atoms: C4_4  and  N1_5 
REMARK    3  A    between atoms: C4_4  and  C5_9 
REMARK    4  A    between atoms: C5_9  and  O1_10 
REMARK    5  A    between atoms: C5_9  and  N2_12 
REMARK    6  A    between atoms: N2_12  and  C6_14 
REMARK    7  A    between atoms: C7_17  and  C8_18 
REMARK    8  A    between atoms: C8_18  and  O2_19 
REMARK    9  A    between atoms: C8_18  and  N4_21 
REMARK   10  A    between atoms: N5_24  and  C11_25 
REMARK   11  A    between atoms: C12_28  and  N7_29 
REMARK   12  A    between atoms: N10_37  and  C14_38 
REMARK   13  A    between atoms: C15_39  and  C16_40 
REMARK   14  A    between atoms: C16_40  and  O3_41 
ROOT
HETATM    1  N4  UNL     1     161.367   8.384  32.805  1.00  0.00    -0.380 N 
HETATM    2  C9  UNL     1     160.402   9.099  32.051  1.00  0.00     0.140 C 
HETATM    3  C10 UNL     1     160.824  10.518  31.813  1.00  0.00     0.160 C 
HETATM    4  N5  UNL     1     161.519  11.026  32.967  1.00  0.00    -0.214 N 
HETATM    5  C18 UNL     1     161.617  10.371  34.243  1.00  0.00     0.160 C 
HETATM    6  C19 UNL     1     161.581   8.887  34.153  1.00  0.00     0.140 C 
ENDROOT
BRANCH   1   7
HETATM    7  C8  UNL     1     161.318   6.972  32.768  1.00  0.00     0.267 C 
BRANCH   7   8
HETATM    8  C7  UNL     1     161.802   6.397  31.449  1.00  0.00     0.066 A 
HETATM    9  N3  UNL     1     161.089   5.527  30.776  1.00  0.00    -0.336 N 
HETATM   10  C6  UNL     1     161.570   5.022  29.653  1.00  0.00     0.146 A 
ATOM     11  H3  UNL     1     160.171   5.243  31.116  1.00  0.00     0.168 HD
HETATM   12  S1  UNL     1     163.104   5.800  29.522  1.00  0.00    -0.064 SA
HETATM   13  C20 UNL     1     163.023   6.740  30.944  1.00  0.00     0.082 A 
BRANCH  10  14
HETATM   14  N2  UNL     1     161.046   4.154  28.839  1.00  0.00    -0.342 N 
ATOM     15  H2  UNL     1     161.462   3.225  28.767  1.00  0.00     0.164 HD
BRANCH  14  16
HETATM   16  C5  UNL     1     159.909   4.468  28.048  1.00  0.00     0.250 C 
BRANCH  16  17
HETATM   17  C4  UNL     1     159.735   3.355  27.038  1.00  0.00     0.235 C 
BRANCH  17  18
HETATM   18  C2  UNL     1     158.796   3.766  25.944  1.00  0.00     0.012 C 
HETATM   19  C1  UNL     1     159.450   4.547  24.839  1.00  0.00     0.012 C 
HETATM   20  C3  UNL     1     158.103   2.571  25.367  1.00  0.00     0.012 C 
ENDBRANCH  17  18
BRANCH  17  21
HETATM   21  N1  UNL     1     159.309   2.147  27.687  1.00  0.00    -0.070 N 
ATOM     22  H13 UNL     1     158.291   2.090  27.731  1.00  0.00     0.274 HD
ATOM     23  H12 UNL     1     159.490   1.330  27.104  1.00  0.00     0.274 HD
ATOM     24  H11 UNL     1     159.726   2.043  28.611  1.00  0.00     0.274 HD
ENDBRANCH  17  21
ENDBRANCH  16  17
BRANCH  16  25
HETATM   25  O1  UNL     1     158.779   4.543  28.885  1.00  0.00    -0.375 OA
ATOM     26  H1  UNL     1     159.003   4.982  29.698  1.00  0.00     0.212 HD
ENDBRANCH  16  25
ENDBRANCH  14  16
ENDBRANCH  10  14
ENDBRANCH   7   8
BRANCH   7  27
HETATM   27  O2  UNL     1     161.999   6.388  33.827  1.00  0.00    -0.371 OA
ATOM     28  H2  UNL     1     162.332   5.534  33.576  1.00  0.00     0.212 HD
ENDBRANCH   7  27
ENDBRANCH   1   7
BRANCH   4  29
HETATM   29  C11 UNL     1     162.154  12.301  32.802  1.00  0.00     0.683 A 
HETATM   30  N6  UNL     1     161.599  13.189  31.936  1.00  0.00    -0.175 N 
HETATM   31  C12 UNL     1     162.167  14.378  31.739  1.00  0.00     0.147 A 
ATOM     32  H6  UNL     1     160.746  12.945  31.435  1.00  0.00     0.186 HD
HETATM   33  C13 UNL     1     163.319  14.687  32.424  1.00  0.00     0.140 A 
HETATM   34  N8  UNL     1     164.127  15.753  32.458  1.00  0.00    -0.279 N 
HETATM   35  C17 UNL     1     163.900  13.774  33.323  1.00  0.00     0.175 A 
HETATM   36  N9  UNL     1     165.114  15.530  33.291  1.00  0.00    -0.234 N 
ATOM     37  H8  UNL     1     163.996  16.608  31.918  1.00  0.00     0.189 HD
HETATM   38  N10 UNL     1     164.999  14.296  33.848  1.00  0.00    -0.234 N 
ATOM     39  H9  UNL     1     165.865  16.191  33.492  1.00  0.00     0.209 HD
HETATM   40  N11 UNL     1     163.267  12.605  33.462  1.00  0.00    -0.172 N 
ATOM     41  H11 UNL     1     163.657  11.914  34.103  1.00  0.00     0.186 HD
BRANCH  31  42
HETATM   42  N7  UNL     1     161.673  15.262  30.920  1.00  0.00    -0.383 N 
ATOM     43  H72 UNL     1     160.659  15.342  30.843  1.00  0.00     0.157 HD
ATOM     44  H71 UNL     1     162.262  15.875  30.355  1.00  0.00     0.157 HD
ENDBRANCH  31  42
BRANCH  38  45
HETATM   45  C14 UNL     1     165.921  13.786  34.757  1.00  0.00     0.118 C 
HETATM   46  C15 UNL     1     166.061  13.878  36.033  1.00  0.00     0.018 C 
BRANCH  46  47
HETATM   47  C16 UNL     1     167.242  13.141  36.666  1.00  0.00     0.192 C 
BRANCH  47  48
HETATM   48  O3  UNL     1     167.942  13.957  37.521  1.00  0.00    -0.397 OA
ATOM     49  H3  UNL     1     167.380  14.622  37.902  1.00  0.00     0.209 HD
ENDBRANCH  47  48
ENDBRANCH  46  47
ENDBRANCH  38  45
ENDBRANCH   4  29
TORSDOF 14
ENDMDL
