MODEL 1
REMARK VINA RESULT: -8.218838052      0.000      0.000
REMARK  11 active torsions:
REMARK  status: ('A' for Active; 'I' for Inactive)
REMARK    1  A    between atoms: N1_1  and  C1_4 
REMARK    2  A    between atoms: C2_10  and  C3_11 
REMARK    3  A    between atoms: C4_16  and  C5_17 
REMARK    4  A    between atoms: C5_17  and  N6_18 
REMARK    5  A    between atoms: N6_18  and  O2_19 
REMARK    6  A    between atoms: N6_18  and  C6_21 
REMARK    7  A    between atoms: C11_26  and  N7_27 
REMARK    8  A    between atoms: N7_27  and  C12_29 
REMARK    9  A    between atoms: C14_33  and  C15_34 
REMARK   10  A    between atoms: C15_34  and  N9_35 
REMARK   11  A    between atoms: C15_34  and  C16_39 
REMARK       I    between atoms: C16_39  and  N10_41 
ROOT
HETATM    1  C6  UNL     1     160.860   7.880  33.643  1.00  0.00     0.083 A 
HETATM    2  C7  UNL     1     159.827   8.202  34.501  1.00  0.00     0.034 A 
HETATM    3  C8  UNL     1     159.311   7.261  35.358  1.00  0.00     0.002 A 
HETATM    4  C9  UNL     1     159.832   5.978  35.360  1.00  0.00     0.002 A 
HETATM    5  C10 UNL     1     160.883   5.685  34.474  1.00  0.00     0.031 A 
HETATM    6  C11 UNL     1     161.408   6.620  33.612  1.00  0.00     0.057 A 
ENDROOT
BRANCH   1   7
HETATM    7  N6  UNL     1     161.305   8.885  32.788  1.00  0.00    -0.251 N 
BRANCH   7   8
HETATM    8  C5  UNL     1     160.524   9.698  31.898  1.00  0.00     0.242 C 
BRANCH   8   9
HETATM    9  C4  UNL     1     160.837  11.158  32.081  1.00  0.00     0.161 A 
HETATM   10  N5  UNL     1     160.123  12.009  32.837  1.00  0.00    -0.280 N 
HETATM   11  N4  UNL     1     160.704  13.205  32.754  1.00  0.00    -0.276 N 
ATOM     12  H5  UNL     1     159.287  11.781  33.376  1.00  0.00     0.189 HD
HETATM   13  C3  UNL     1     161.780  13.113  31.950  1.00  0.00     0.197 A 
ATOM     14  H4  UNL     1     160.385  14.053  33.224  1.00  0.00     0.189 HD
HETATM   15  O4  UNL     1     161.811  11.851  31.572  1.00  0.00    -0.274 OA
BRANCH  13  16
HETATM   16  C2  UNL     1     162.710  14.184  31.579  1.00  0.00     0.154 A 
HETATM   17  C1  UNL     1     162.471  15.343  30.902  1.00  0.00     0.154 A 
HETATM   18  N2  UNL     1     163.670  15.958  30.836  1.00  0.00    -0.224 N 
HETATM   19  O1  UNL     1     164.586  15.250  31.419  1.00  0.00    -0.155 OA
ATOM     20  H2  UNL     1     163.834  16.859  30.387  1.00  0.00     0.198 HD
HETATM   21  N3  UNL     1     164.018  14.179  31.871  1.00  0.00    -0.234 N 
ATOM     22  H3  UNL     1     164.498  13.436  32.378  1.00  0.00     0.197 HD
BRANCH  17  23
HETATM   23  N1  UNL     1     161.324  15.730  30.439  1.00  0.00    -0.382 N 
ATOM     24  H12 UNL     1     161.043  15.726  29.459  1.00  0.00     0.157 HD
ATOM     25  H11 UNL     1     160.517  16.099  30.942  1.00  0.00     0.157 HD
ENDBRANCH  17  23
ENDBRANCH  13  16
ENDBRANCH   8   9
ENDBRANCH   7   8
BRANCH   7  26
HETATM   26  O2  UNL     1     162.657   9.141  32.792  1.00  0.00    -0.287 OA
ATOM     27  H2  UNL     1     163.127   8.871  32.012  1.00  0.00     0.244 HD
ENDBRANCH   7  26
ENDBRANCH   1   7
BRANCH   6  28
HETATM   28  N7  UNL     1     162.467   6.338  32.745  1.00  0.00    -0.378 N 
ATOM     29  H7  UNL     1     163.351   6.810  32.937  1.00  0.00     0.160 HD
BRANCH  28  30
HETATM   30  C12 UNL     1     162.443   5.441  31.595  1.00  0.00     0.129 C 
HETATM   31  C13 UNL     1     161.838   6.113  30.448  1.00  0.00     0.082 C 
HETATM   32  N8  UNL     1     162.062   5.884  29.246  1.00  0.00    -0.385 N 
HETATM   33  C14 UNL     1     162.930   4.945  28.650  1.00  0.00     0.182 C 
ATOM     34  H8  UNL     1     161.537   6.463  28.591  1.00  0.00     0.160 HD
HETATM   35  S1  UNL     1     164.338   4.643  29.733  1.00  0.00    -0.139 SA
HETATM   36  C18 UNL     1     163.822   4.893  31.438  1.00  0.00     0.106 C 
BRANCH  33  37
HETATM   37  C15 UNL     1     162.254   3.652  28.225  1.00  0.00     0.307 C 
BRANCH  37  38
HETATM   38  N9  UNL     1     162.967   2.934  27.208  1.00  0.00    -0.064 N 
ATOM     39  H93 UNL     1     163.254   2.016  27.550  1.00  0.00     0.275 HD
ATOM     40  H92 UNL     1     162.335   2.648  26.460  1.00  0.00     0.275 HD
ATOM     41  H91 UNL     1     163.766   3.442  26.829  1.00  0.00     0.275 HD
ENDBRANCH  37  38
BRANCH  37  42
HETATM   42  C16 UNL     1     160.911   4.013  27.716  1.00  0.00     0.257 C 
HETATM   43  O3  UNL     1     159.922   3.942  28.482  1.00  0.00    -0.271 OA
HETATM   44  N10 UNL     1     160.816   4.428  26.361  1.00  0.00    -0.302 N 
HETATM   45  C17 UNL     1     159.764   4.149  25.695  1.00  0.00     0.203 C 
ATOM     46  H10 UNL     1     161.580   4.945  25.926  1.00  0.00     0.171 HD
HETATM   47  N11 UNL     1     158.706   3.436  26.293  1.00  0.00    -0.066 NA
HETATM   48  N12 UNL     1     159.665   4.561  24.347  1.00  0.00    -0.066 NA
ENDBRANCH  37  42
ENDBRANCH  33  37
ENDBRANCH  28  30
ENDBRANCH   6  28
TORSDOF 11
ENDMDL
MODEL 2
REMARK VINA RESULT: -8.115826320      2.504      9.312
REMARK  11 active torsions:
REMARK  status: ('A' for Active; 'I' for Inactive)
REMARK    1  A    between atoms: N1_1  and  C1_4 
REMARK    2  A    between atoms: C2_10  and  C3_11 
REMARK    3  A    between atoms: C4_16  and  C5_17 
REMARK    4  A    between atoms: C5_17  and  N6_18 
REMARK    5  A    between atoms: N6_18  and  O2_19 
REMARK    6  A    between atoms: N6_18  and  C6_21 
REMARK    7  A    between atoms: C11_26  and  N7_27 
REMARK    8  A    between atoms: N7_27  and  C12_29 
REMARK    9  A    between atoms: C14_33  and  C15_34 
REMARK   10  A    between atoms: C15_34  and  N9_35 
REMARK   11  A    between atoms: C15_34  and  C16_39 
REMARK       I    between atoms: C16_39  and  N10_41 
ROOT
HETATM    1  C6  UNL     1     161.665   7.079  34.915  1.00  0.00     0.083 A 
HETATM    2  C7  UNL     1     162.178   6.247  35.891  1.00  0.00     0.034 A 
HETATM    3  C8  UNL     1     162.576   6.754  37.104  1.00  0.00     0.002 A 
HETATM    4  C9  UNL     1     162.461   8.113  37.349  1.00  0.00     0.002 A 
HETATM    5  C10 UNL     1     161.934   8.929  36.334  1.00  0.00     0.031 A 
HETATM    6  C11 UNL     1     161.532   8.432  35.116  1.00  0.00     0.057 A 
ENDROOT
BRANCH   1   7
HETATM    7  N6  UNL     1     161.312   6.487  33.705  1.00  0.00    -0.251 N 
BRANCH   7   8
HETATM    8  C5  UNL     1     162.108   5.622  32.879  1.00  0.00     0.242 C 
BRANCH   8   9
HETATM    9  C4  UNL     1     161.724   5.752  31.430  1.00  0.00     0.161 A 
HETATM   10  N5  UNL     1     161.973   6.826  30.661  1.00  0.00    -0.280 N 
HETATM   11  N4  UNL     1     161.488   6.571  29.447  1.00  0.00    -0.276 N 
ATOM     12  H5  UNL     1     162.447   7.680  30.954  1.00  0.00     0.189 HD
HETATM   13  C3  UNL     1     160.934   5.344  29.446  1.00  0.00     0.197 A 
ATOM     14  H4  UNL     1     161.530   7.203  28.647  1.00  0.00     0.189 HD
HETATM   15  O4  UNL     1     161.106   4.895  30.673  1.00  0.00    -0.274 OA
BRANCH  13  16
HETATM   16  C2  UNL     1     160.283   4.661  28.325  1.00  0.00     0.154 A 
HETATM   17  C1  UNL     1     160.836   4.093  27.216  1.00  0.00     0.154 A 
HETATM   18  N2  UNL     1     159.790   3.610  26.515  1.00  0.00    -0.224 N 
HETATM   19  O1  UNL     1     158.672   3.851  27.126  1.00  0.00    -0.155 OA
ATOM     20  H2  UNL     1     159.867   3.120  25.624  1.00  0.00     0.198 HD
HETATM   21  N3  UNL     1     158.958   4.483  28.218  1.00  0.00    -0.234 N 
ATOM     22  H3  UNL     1     158.272   4.802  28.902  1.00  0.00     0.197 HD
BRANCH  17  23
HETATM   23  N1  UNL     1     162.100   4.050  26.935  1.00  0.00    -0.382 N 
ATOM     24  H12 UNL     1     162.544   4.458  26.113  1.00  0.00     0.157 HD
ATOM     25  H11 UNL     1     162.863   3.619  27.457  1.00  0.00     0.157 HD
ENDBRANCH  17  23
ENDBRANCH  13  16
ENDBRANCH   8   9
ENDBRANCH   7   8
BRANCH   7  26
HETATM   26  O2  UNL     1     160.047   6.755  33.236  1.00  0.00    -0.287 OA
ATOM     27  H2  UNL     1     159.334   6.494  33.808  1.00  0.00     0.244 HD
ENDBRANCH   7  26
ENDBRANCH   1   7
BRANCH   6  28
HETATM   28  N7  UNL     1     160.987   9.238  34.113  1.00  0.00    -0.378 N 
ATOM     29  H7  UNL     1     160.044   9.004  33.802  1.00  0.00     0.160 HD
BRANCH  28  30
HETATM   30  C12 UNL     1     161.625  10.379  33.464  1.00  0.00     0.129 C 
HETATM   31  C13 UNL     1     160.618  11.366  33.084  1.00  0.00     0.082 C 
HETATM   32  N8  UNL     1     160.783  12.593  32.965  1.00  0.00    -0.385 N 
HETATM   33  C14 UNL     1     161.944  13.372  33.153  1.00  0.00     0.182 C 
ATOM     34  H8  UNL     1     159.952  13.116  32.690  1.00  0.00     0.160 HD
HETATM   35  S1  UNL     1     163.002  12.601  34.392  1.00  0.00    -0.139 SA
HETATM   36  C18 UNL     1     162.738  10.823  34.353  1.00  0.00     0.106 C 
BRANCH  33  37
HETATM   37  C15 UNL     1     162.702  13.680  31.872  1.00  0.00     0.307 C 
BRANCH  37  38
HETATM   38  N9  UNL     1     164.120  13.481  31.977  1.00  0.00    -0.064 N 
ATOM     39  H93 UNL     1     164.343  12.486  31.984  1.00  0.00     0.275 HD
ATOM     40  H92 UNL     1     164.586  13.755  31.112  1.00  0.00     0.275 HD
ATOM     41  H91 UNL     1     164.543  13.951  32.778  1.00  0.00     0.275 HD
ENDBRANCH  37  38
BRANCH  37  42
HETATM   42  C16 UNL     1     162.433  15.098  31.541  1.00  0.00     0.257 C 
HETATM   43  O3  UNL     1     161.663  15.373  30.591  1.00  0.00    -0.271 OA
HETATM   44  N10 UNL     1     163.074  16.087  32.332  1.00  0.00    -0.302 N 
HETATM   45  C17 UNL     1     163.419  17.192  31.793  1.00  0.00     0.203 C 
ATOM     46  H10 UNL     1     163.256  15.918  33.321  1.00  0.00     0.171 HD
HETATM   47  N11 UNL     1     163.169  17.430  30.427  1.00  0.00    -0.066 NA
HETATM   48  N12 UNL     1     164.056  18.179  32.577  1.00  0.00    -0.066 NA
ENDBRANCH  37  42
ENDBRANCH  33  37
ENDBRANCH  28  30
ENDBRANCH   6  28
TORSDOF 11
ENDMDL
MODEL 3
REMARK VINA RESULT: -8.047850387      3.004      8.611
REMARK  11 active torsions:
REMARK  status: ('A' for Active; 'I' for Inactive)
REMARK    1  A    between atoms: N1_1  and  C1_4 
REMARK    2  A    between atoms: C2_10  and  C3_11 
REMARK    3  A    between atoms: C4_16  and  C5_17 
REMARK    4  A    between atoms: C5_17  and  N6_18 
REMARK    5  A    between atoms: N6_18  and  O2_19 
REMARK    6  A    between atoms: N6_18  and  C6_21 
REMARK    7  A    between atoms: C11_26  and  N7_27 
REMARK    8  A    between atoms: N7_27  and  C12_29 
REMARK    9  A    between atoms: C14_33  and  C15_34 
REMARK   10  A    between atoms: C15_34  and  N9_35 
REMARK   11  A    between atoms: C15_34  and  C16_39 
REMARK       I    between atoms: C16_39  and  N10_41 
ROOT
HETATM    1  C6  UNL     1     164.944   5.656  31.003  1.00  0.00     0.083 A 
HETATM    2  C7  UNL     1     165.924   5.142  30.177  1.00  0.00     0.034 A 
HETATM    3  C8  UNL     1     167.253   5.296  30.488  1.00  0.00     0.002 A 
HETATM    4  C9  UNL     1     167.612   5.974  31.641  1.00  0.00     0.002 A 
HETATM    5  C10 UNL     1     166.590   6.483  32.459  1.00  0.00     0.031 A 
HETATM    6  C11 UNL     1     165.255   6.334  32.158  1.00  0.00     0.057 A 
ENDROOT
BRANCH   1   7
HETATM    7  N6  UNL     1     163.623   5.480  30.600  1.00  0.00    -0.251 N 
BRANCH   7   8
HETATM    8  C5  UNL     1     162.888   6.237  29.625  1.00  0.00     0.242 C 
BRANCH   8   9
HETATM    9  C4  UNL     1     162.324   5.341  28.556  1.00  0.00     0.161 A 
HETATM   10  N5  UNL     1     162.981   4.319  27.982  1.00  0.00    -0.280 N 
HETATM   11  N4  UNL     1     162.162   3.765  27.089  1.00  0.00    -0.276 N 
ATOM     12  H5  UNL     1     163.933   4.022  28.192  1.00  0.00     0.189 HD
HETATM   13  C3  UNL     1     160.992   4.434  27.096  1.00  0.00     0.197 A 
ATOM     14  H4  UNL     1     162.384   2.966  26.497  1.00  0.00     0.189 HD
HETATM   15  O4  UNL     1     161.148   5.377  28.003  1.00  0.00    -0.274 OA
BRANCH  13  16
HETATM   16  C2  UNL     1     159.809   4.167  26.273  1.00  0.00     0.154 A 
HETATM   17  C1  UNL     1     159.577   4.471  24.965  1.00  0.00     0.154 A 
HETATM   18  N2  UNL     1     158.336   4.002  24.716  1.00  0.00    -0.224 N 
HETATM   19  O1  UNL     1     157.828   3.451  25.773  1.00  0.00    -0.155 OA
ATOM     20  H2  UNL     1     157.862   4.071  23.816  1.00  0.00     0.198 HD
HETATM   21  N3  UNL     1     158.708   3.544  26.718  1.00  0.00    -0.234 N 
ATOM     22  H3  UNL     1     158.581   3.193  27.667  1.00  0.00     0.197 HD
BRANCH  17  23
HETATM   23  N1  UNL     1     160.398   5.080  24.169  1.00  0.00    -0.382 N 
ATOM     24  H12 UNL     1     160.139   5.715  23.415  1.00  0.00     0.157 HD
ATOM     25  H11 UNL     1     161.416   5.044  24.142  1.00  0.00     0.157 HD
ENDBRANCH  17  23
ENDBRANCH  13  16
ENDBRANCH   8   9
ENDBRANCH   7   8
BRANCH   7  26
HETATM   26  O2  UNL     1     162.929   4.455  31.200  1.00  0.00    -0.287 OA
ATOM     27  H2  UNL     1     163.457   3.724  31.501  1.00  0.00     0.244 HD
ENDBRANCH   7  26
ENDBRANCH   1   7
BRANCH   6  28
HETATM   28  N7  UNL     1     164.236   6.821  32.980  1.00  0.00    -0.378 N 
ATOM     29  H7  UNL     1     163.877   6.181  33.689  1.00  0.00     0.160 HD
BRANCH  28  30
HETATM   30  C12 UNL     1     163.630   8.148  32.932  1.00  0.00     0.129 C 
HETATM   31  C13 UNL     1     162.180   8.042  33.069  1.00  0.00     0.082 C 
HETATM   32  N8  UNL     1     161.409   8.900  33.535  1.00  0.00    -0.385 N 
HETATM   33  C14 UNL     1     161.690  10.182  34.052  1.00  0.00     0.182 C 
ATOM     34  H8  UNL     1     160.424   8.635  33.545  1.00  0.00     0.160 HD
HETATM   35  S1  UNL     1     163.341  10.201  34.775  1.00  0.00    -0.139 SA
HETATM   36  C18 UNL     1     164.365   9.000  33.913  1.00  0.00     0.106 C 
BRANCH  33  37
HETATM   37  C15 UNL     1     161.495  11.313  33.055  1.00  0.00     0.307 C 
BRANCH  37  38
HETATM   38  N9  UNL     1     161.152  12.567  33.663  1.00  0.00    -0.064 N 
ATOM     39  H93 UNL     1     161.741  12.745  34.476  1.00  0.00     0.275 HD
ATOM     40  H92 UNL     1     161.440  13.345  33.068  1.00  0.00     0.275 HD
ATOM     41  H91 UNL     1     160.165  12.649  33.908  1.00  0.00     0.275 HD
ENDBRANCH  37  38
BRANCH  37  42
HETATM   42  C16 UNL     1     160.405  10.900  32.141  1.00  0.00     0.257 C 
HETATM   43  O3  UNL     1     159.254  10.713  32.600  1.00  0.00    -0.271 OA
HETATM   44  N10 UNL     1     160.730  10.736  30.769  1.00  0.00    -0.302 N 
HETATM   45  C17 UNL     1     160.125   9.843  30.086  1.00  0.00     0.203 C 
ATOM     46  H10 UNL     1     161.439  11.325  30.333  1.00  0.00     0.171 HD
HETATM   47  N11 UNL     1     159.145   9.026  30.684  1.00  0.00    -0.066 NA
HETATM   48  N12 UNL     1     160.446   9.677  28.719  1.00  0.00    -0.066 NA
ENDBRANCH  37  42
ENDBRANCH  33  37
ENDBRANCH  28  30
ENDBRANCH   6  28
TORSDOF 11
ENDMDL
MODEL 4
REMARK VINA RESULT: -7.933491520      5.064      8.924
REMARK  11 active torsions:
REMARK  status: ('A' for Active; 'I' for Inactive)
REMARK    1  A    between atoms: N1_1  and  C1_4 
REMARK    2  A    between atoms: C2_10  and  C3_11 
REMARK    3  A    between atoms: C4_16  and  C5_17 
REMARK    4  A    between atoms: C5_17  and  N6_18 
REMARK    5  A    between atoms: N6_18  and  O2_19 
REMARK    6  A    between atoms: N6_18  and  C6_21 
REMARK    7  A    between atoms: C11_26  and  N7_27 
REMARK    8  A    between atoms: N7_27  and  C12_29 
REMARK    9  A    between atoms: C14_33  and  C15_34 
REMARK   10  A    between atoms: C15_34  and  N9_35 
REMARK   11  A    between atoms: C15_34  and  C16_39 
REMARK       I    between atoms: C16_39  and  N10_41 
ROOT
HETATM    1  C6  UNL     1     157.843   3.997  36.434  1.00  0.00     0.083 A 
HETATM    2  C7  UNL     1     156.500   3.696  36.322  1.00  0.00     0.034 A 
HETATM    3  C8  UNL     1     155.547   4.664  36.531  1.00  0.00     0.002 A 
HETATM    4  C9  UNL     1     155.939   5.951  36.858  1.00  0.00     0.002 A 
HETATM    5  C10 UNL     1     157.314   6.222  36.963  1.00  0.00     0.031 A 
HETATM    6  C11 UNL     1     158.277   5.261  36.754  1.00  0.00     0.057 A 
ENDROOT
BRANCH   1   7
HETATM    7  N6  UNL     1     158.741   2.952  36.232  1.00  0.00    -0.251 N 
BRANCH   7   8
HETATM    8  C5  UNL     1     159.019   1.845  37.105  1.00  0.00     0.242 C 
BRANCH   8   9
HETATM    9  C4  UNL     1     159.903   2.266  38.248  1.00  0.00     0.161 A 
HETATM   10  N5  UNL     1     159.702   1.939  39.536  1.00  0.00    -0.280 N 
HETATM   11  N4  UNL     1     160.685   2.489  40.248  1.00  0.00    -0.276 N 
ATOM     12  H5  UNL     1     158.936   1.373  39.902  1.00  0.00     0.189 HD
HETATM   13  C3  UNL     1     161.503   3.161  39.416  1.00  0.00     0.197 A 
ATOM     14  H4  UNL     1     160.799   2.413  41.259  1.00  0.00     0.189 HD
HETATM   15  O4  UNL     1     160.980   2.991  38.218  1.00  0.00    -0.274 OA
BRANCH  13  16
HETATM   16  C2  UNL     1     162.709   3.915  39.769  1.00  0.00     0.154 A 
HETATM   17  C1  UNL     1     163.644   4.487  38.958  1.00  0.00     0.154 A 
HETATM   18  N2  UNL     1     164.535   5.050  39.800  1.00  0.00    -0.224 N 
HETATM   19  O1  UNL     1     164.195   4.852  41.035  1.00  0.00    -0.155 OA
ATOM     20  H2  UNL     1     165.365   5.563  39.504  1.00  0.00     0.198 HD
HETATM   21  N3  UNL     1     163.095   4.170  41.028  1.00  0.00    -0.234 N 
ATOM     22  H3  UNL     1     162.593   3.868  41.863  1.00  0.00     0.197 HD
BRANCH  17  23
HETATM   23  N1  UNL     1     163.638   4.468  37.662  1.00  0.00    -0.382 N 
ATOM     24  H12 UNL     1     163.053   5.045  37.059  1.00  0.00     0.157 HD
ATOM     25  H11 UNL     1     164.191   3.897  37.023  1.00  0.00     0.157 HD
ENDBRANCH  17  23
ENDBRANCH  13  16
ENDBRANCH   8   9
ENDBRANCH   7   8
BRANCH   7  26
HETATM   26  O2  UNL     1     159.452   2.971  35.055  1.00  0.00    -0.287 OA
ATOM     27  H2  UNL     1     159.495   3.813  34.616  1.00  0.00     0.244 HD
ENDBRANCH   7  26
ENDBRANCH   1   7
BRANCH   6  28
HETATM   28  N7  UNL     1     159.645   5.532  36.836  1.00  0.00    -0.378 N 
ATOM     29  H7  UNL     1     160.129   5.186  37.665  1.00  0.00     0.160 HD
BRANCH  28  30
HETATM   30  C12 UNL     1     160.455   6.257  35.863  1.00  0.00     0.129 C 
HETATM   31  C13 UNL     1     159.592   6.947  34.908  1.00  0.00     0.082 C 
HETATM   32  N8  UNL     1     159.857   7.985  34.276  1.00  0.00    -0.385 N 
HETATM   33  C14 UNL     1     161.024   8.778  34.289  1.00  0.00     0.182 C 
ATOM     34  H8  UNL     1     159.119   8.312  33.653  1.00  0.00     0.160 HD
HETATM   35  S1  UNL     1     161.814   8.675  35.906  1.00  0.00    -0.139 SA
HETATM   36  C18 UNL     1     161.438   7.073  36.633  1.00  0.00     0.106 C 
BRANCH  33  37
HETATM   37  C15 UNL     1     161.997   8.475  33.162  1.00  0.00     0.307 C 
BRANCH  37  38
HETATM   38  N9  UNL     1     162.825   9.589  32.797  1.00  0.00    -0.064 N 
ATOM     39  H93 UNL     1     163.353   9.382  31.950  1.00  0.00     0.275 HD
ATOM     40  H92 UNL     1     162.254  10.365  32.458  1.00  0.00     0.275 HD
ATOM     41  H91 UNL     1     163.447   9.901  33.543  1.00  0.00     0.275 HD
ENDBRANCH  37  38
BRANCH  37  42
HETATM   42  C16 UNL     1     161.189   8.064  31.992  1.00  0.00     0.257 C 
HETATM   43  O3  UNL     1     160.942   6.850  31.809  1.00  0.00    -0.271 OA
HETATM   44  N10 UNL     1     160.729   9.090  31.123  1.00  0.00    -0.302 N 
HETATM   45  C17 UNL     1     160.617   8.847  29.875  1.00  0.00     0.203 C 
ATOM     46  H10 UNL     1     160.490  10.009  31.492  1.00  0.00     0.171 HD
HETATM   47  N11 UNL     1     160.946   7.577  29.360  1.00  0.00    -0.066 NA
HETATM   48  N12 UNL     1     160.159   9.864  29.007  1.00  0.00    -0.066 NA
ENDBRANCH  37  42
ENDBRANCH  33  37
ENDBRANCH  28  30
ENDBRANCH   6  28
TORSDOF 11
ENDMDL
MODEL 5
REMARK VINA RESULT: -7.923842040      3.512      6.742
REMARK  11 active torsions:
REMARK  status: ('A' for Active; 'I' for Inactive)
REMARK    1  A    between atoms: N1_1  and  C1_4 
REMARK    2  A    between atoms: C2_10  and  C3_11 
REMARK    3  A    between atoms: C4_16  and  C5_17 
REMARK    4  A    between atoms: C5_17  and  N6_18 
REMARK    5  A    between atoms: N6_18  and  O2_19 
REMARK    6  A    between atoms: N6_18  and  C6_21 
REMARK    7  A    between atoms: C11_26  and  N7_27 
REMARK    8  A    between atoms: N7_27  and  C12_29 
REMARK    9  A    between atoms: C14_33  and  C15_34 
REMARK   10  A    between atoms: C15_34  and  N9_35 
REMARK   11  A    between atoms: C15_34  and  C16_39 
REMARK       I    between atoms: C16_39  and  N10_41 
ROOT
HETATM    1  C6  UNL     1     161.096   9.097  33.357  1.00  0.00     0.083 A 
HETATM    2  C7  UNL     1     160.363  10.233  33.641  1.00  0.00     0.034 A 
HETATM    3  C8  UNL     1     159.720  10.919  32.639  1.00  0.00     0.002 A 
HETATM    4  C9  UNL     1     159.810  10.467  31.333  1.00  0.00     0.002 A 
HETATM    5  C10 UNL     1     160.564   9.309  31.080  1.00  0.00     0.031 A 
HETATM    6  C11 UNL     1     161.211   8.613  32.076  1.00  0.00     0.057 A 
ENDROOT
BRANCH   1   7
HETATM    7  N6  UNL     1     161.739   8.478  34.426  1.00  0.00    -0.251 N 
BRANCH   7   8
HETATM    8  C5  UNL     1     161.177   8.095  35.692  1.00  0.00     0.242 C 
BRANCH   8   9
HETATM    9  C4  UNL     1     160.346   6.848  35.561  1.00  0.00     0.161 A 
HETATM   10  N5  UNL     1     160.671   5.782  34.809  1.00  0.00    -0.280 N 
HETATM   11  N4  UNL     1     159.699   4.882  34.946  1.00  0.00    -0.276 N 
ATOM     12  H5  UNL     1     161.509   5.682  34.236  1.00  0.00     0.189 HD
HETATM   13  C3  UNL     1     158.762   5.374  35.780  1.00  0.00     0.197 A 
ATOM     14  H4  UNL     1     159.668   3.969  34.494  1.00  0.00     0.189 HD
HETATM   15  O4  UNL     1     159.207   6.567  36.120  1.00  0.00    -0.274 OA
BRANCH  13  16
HETATM   16  C2  UNL     1     157.522   4.723  36.211  1.00  0.00     0.154 A 
HETATM   17  C1  UNL     1     156.444   5.252  36.855  1.00  0.00     0.154 A 
HETATM   18  N2  UNL     1     155.590   4.218  37.007  1.00  0.00    -0.224 N 
HETATM   19  O1  UNL     1     156.085   3.131  36.505  1.00  0.00    -0.155 OA
ATOM     20  H2  UNL     1     154.677   4.284  37.458  1.00  0.00     0.198 HD
HETATM   21  N3  UNL     1     157.249   3.424  36.021  1.00  0.00    -0.234 N 
ATOM     22  H3  UNL     1     157.871   2.760  35.560  1.00  0.00     0.197 HD
BRANCH  17  23
HETATM   23  N1  UNL     1     156.309   6.487  37.223  1.00  0.00    -0.382 N 
ATOM     24  H12 UNL     1     156.388   6.839  38.177  1.00  0.00     0.157 HD
ATOM     25  H11 UNL     1     156.106   7.311  36.657  1.00  0.00     0.157 HD
ENDBRANCH  17  23
ENDBRANCH  13  16
ENDBRANCH   8   9
ENDBRANCH   7   8
BRANCH   7  26
HETATM   26  O2  UNL     1     163.073   8.191  34.258  1.00  0.00    -0.287 OA
ATOM     27  H2  UNL     1     163.313   7.837  33.409  1.00  0.00     0.244 HD
ENDBRANCH   7  26
ENDBRANCH   1   7
BRANCH   6  28
HETATM   28  N7  UNL     1     161.944   7.449  31.830  1.00  0.00    -0.378 N 
ATOM     29  H7  UNL     1     162.881   7.408  32.230  1.00  0.00     0.160 HD
BRANCH  28  30
HETATM   30  C12 UNL     1     161.510   6.286  31.063  1.00  0.00     0.129 C 
HETATM   31  C13 UNL     1     161.486   6.606  29.639  1.00  0.00     0.082 C 
HETATM   32  N8  UNL     1     161.638   5.812  28.693  1.00  0.00    -0.385 N 
HETATM   33  C14 UNL     1     161.869   4.421  28.708  1.00  0.00     0.182 C 
ATOM     34  H8  UNL     1     161.587   6.232  27.765  1.00  0.00     0.160 HD
HETATM   35  S1  UNL     1     162.767   3.967  30.203  1.00  0.00    -0.139 SA
HETATM   36  C18 UNL     1     162.346   5.132  31.507  1.00  0.00     0.106 C 
BRANCH  33  37
HETATM   37  C15 UNL     1     160.618   3.579  28.521  1.00  0.00     0.307 C 
BRANCH  37  38
HETATM   38  N9  UNL     1     160.795   2.196  28.863  1.00  0.00    -0.064 N 
ATOM     39  H93 UNL     1     161.137   2.104  29.820  1.00  0.00     0.275 HD
ATOM     40  H92 UNL     1     159.891   1.731  28.959  1.00  0.00     0.275 HD
ATOM     41  H91 UNL     1     161.395   1.686  28.216  1.00  0.00     0.275 HD
ENDBRANCH  37  38
BRANCH  37  42
HETATM   42  C16 UNL     1     160.236   3.682  27.094  1.00  0.00     0.257 C 
HETATM   43  O3  UNL     1     160.813   4.519  26.361  1.00  0.00    -0.271 OA
HETATM   44  N10 UNL     1     159.218   2.810  26.625  1.00  0.00    -0.302 N 
HETATM   45  C17 UNL     1     158.425   3.212  25.709  1.00  0.00     0.203 C 
ATOM     46  H10 UNL     1     159.121   1.873  27.015  1.00  0.00     0.171 HD
HETATM   47  N11 UNL     1     158.555   4.506  25.166  1.00  0.00    -0.066 NA
HETATM   48  N12 UNL     1     157.411   2.347  25.239  1.00  0.00    -0.066 NA
ENDBRANCH  37  42
ENDBRANCH  33  37
ENDBRANCH  28  30
ENDBRANCH   6  28
TORSDOF 11
ENDMDL
