MODEL 1
REMARK VINA RESULT: -7.761575620      0.000      0.000
REMARK  11 active torsions:
REMARK  status: ('A' for Active; 'I' for Inactive)
REMARK    1  A    between atoms: O1_2  and  C2_3 
REMARK    2  A    between atoms: C2_3  and  C3_5 
REMARK    3  A    between atoms: C3_5  and  S1_6 
REMARK    4  A    between atoms: S1_6  and  C4_7 
REMARK    5  A    between atoms: C4_7  and  C5_8 
REMARK    6  A    between atoms: N5_21  and  N6_23 
REMARK       I    between atoms: N6_23  and  C11_25 
REMARK       I    between atoms: C11_25  and  N7_27 
REMARK    7  A    between atoms: N7_27  and  C12_29 
REMARK    8  A    between atoms: C12_29  and  C13_30 
REMARK       I    between atoms: C13_30  and  N8_32 
REMARK    9  A    between atoms: N8_32  and  O5_34 
REMARK   10  A    between atoms: O5_34  and  C14_35 
REMARK   11  A    between atoms: C16_41  and  O6_42 
ROOT
HETATM    1  C5  UNL     1     161.529   7.963  34.649  1.00  0.00     0.069 A 
HETATM    2  N1  UNL     1     160.706   8.375  35.617  1.00  0.00    -0.300 N 
ATOM      3  H1  UNL     1     160.696   9.355  35.902  1.00  0.00     0.186 HD
HETATM    4  N2  UNL     1     159.913   7.506  36.195  1.00  0.00    -0.293 N 
ATOM      5  H2  UNL     1     159.290   7.839  36.931  1.00  0.00     0.187 HD
HETATM    6  C6  UNL     1     159.874   6.188  35.867  1.00  0.00     0.106 A 
HETATM    7  S2  UNL     1     158.836   5.070  36.629  1.00  0.00    -0.054 SA
HETATM    8  C7  UNL     1     159.006   3.498  36.014  1.00  0.00     0.112 A 
HETATM    9  N3  UNL     1     158.232   2.397  36.506  1.00  0.00    -0.093 NA
HETATM   10  C8  UNL     1     159.950   3.353  34.997  1.00  0.00     0.104 A 
HETATM   11  C9  UNL     1     160.047   1.971  34.507  1.00  0.00     0.104 C 
HETATM   12  N4  UNL     1     160.102   0.856  34.135  1.00  0.00    -0.191 NA
HETATM   13  C10 UNL     1     160.725   4.341  34.471  1.00  0.00     0.087 A 
HETATM   14  N5  UNL     1     161.566   4.126  33.545  1.00  0.00    -0.294 N 
ATOM     15  H5  UNL     1     162.060   4.975  33.270  1.00  0.00     0.187 HD
HETATM   16  C15 UNL     1     160.681   5.690  34.892  1.00  0.00     0.064 A 
HETATM   17  C16 UNL     1     161.522   6.637  34.286  1.00  0.00     0.105 A 
ENDROOT
BRANCH  14  18
HETATM   18  N6  UNL     1     161.966   3.060  32.840  1.00  0.00    -0.251 N 
HETATM   19  C11 UNL     1     161.919   2.961  31.406  1.00  0.00     0.335 C 
HETATM   20  O3  UNL     1     161.482   3.916  30.729  1.00  0.00    -0.246 OA
HETATM   21  N7  UNL     1     162.359   1.795  30.701  1.00  0.00    -0.333 N 
ATOM     22  H7  UNL     1     162.721   1.005  31.236  1.00  0.00     0.164 HD
ATOM     23  H6  UNL     1     162.332   2.260  33.358  1.00  0.00     0.191 HD
BRANCH  21  24
HETATM   24  C12 UNL     1     162.311   1.697  29.280  1.00  0.00     0.229 C 
BRANCH  24  25
HETATM   25  C13 UNL     1     160.970   1.955  28.747  1.00  0.00     0.259 C 
HETATM   26  O4  UNL     1     159.998   1.152  29.047  1.00  0.00    -0.270 OA
HETATM   27  N8  UNL     1     160.603   3.021  27.908  1.00  0.00    -0.225 N 
ATOM     28  H8  UNL     1     161.307   3.701  27.621  1.00  0.00     0.198 HD
BRANCH  27  29
HETATM   29  O5  UNL     1     159.281   3.163  27.460  1.00  0.00    -0.202 OA
BRANCH  29  30
HETATM   30  C14 UNL     1     159.060   3.670  26.166  1.00  0.00     0.249 C 
HETATM   31  N9  UNL     1     160.078   4.158  25.561  1.00  0.00    -0.366 N 
ATOM     32  H92 UNL     1     161.007   4.183  25.983  1.00  0.00     0.159 HD
ATOM     33  H91 UNL     1     159.919   4.525  24.622  1.00  0.00     0.159 HD
HETATM   34  N10 UNL     1     157.764   3.634  25.576  1.00  0.00    -0.055 NA
ENDBRANCH  29  30
ENDBRANCH  27  29
ENDBRANCH  24  25
ENDBRANCH  21  24
ENDBRANCH  14  18
BRANCH  17  35
HETATM   35  O6  UNL     1     162.379   6.187  33.273  1.00  0.00    -0.358 OA
ATOM     36  H6  UNL     1     163.308   6.090  33.448  1.00  0.00     0.217 HD
ENDBRANCH  17  35
BRANCH   1  37
HETATM   37  C4  UNL     1     162.456   8.907  33.947  1.00  0.00     0.135 C 
BRANCH  37  38
HETATM   38  S1  UNL     1     161.674  10.499  33.680  1.00  0.00    -0.153 SA
BRANCH  38  39
HETATM   39  C3  UNL     1     161.331  10.780  31.924  1.00  0.00     0.185 C 
BRANCH  39  40
HETATM   40  C2  UNL     1     159.873  10.653  31.699  1.00  0.00     0.267 C 
HETATM   41  O2  UNL     1     159.056  11.301  32.392  1.00  0.00    -0.264 OA
BRANCH  40  42
HETATM   42  O1  UNL     1     159.340   9.819  30.719  1.00  0.00    -0.326 OA
HETATM   43  C1  UNL     1     160.169   9.117  29.820  1.00  0.00     0.213 C 
ENDBRANCH  40  42
ENDBRANCH  39  40
ENDBRANCH  38  39
ENDBRANCH  37  38
ENDBRANCH   1  37
TORSDOF 11
ENDMDL
MODEL 2
REMARK VINA RESULT: -7.749561584      5.977      9.226
REMARK  11 active torsions:
REMARK  status: ('A' for Active; 'I' for Inactive)
REMARK    1  A    between atoms: O1_2  and  C2_3 
REMARK    2  A    between atoms: C2_3  and  C3_5 
REMARK    3  A    between atoms: C3_5  and  S1_6 
REMARK    4  A    between atoms: S1_6  and  C4_7 
REMARK    5  A    between atoms: C4_7  and  C5_8 
REMARK    6  A    between atoms: N5_21  and  N6_23 
REMARK       I    between atoms: N6_23  and  C11_25 
REMARK       I    between atoms: C11_25  and  N7_27 
REMARK    7  A    between atoms: N7_27  and  C12_29 
REMARK    8  A    between atoms: C12_29  and  C13_30 
REMARK       I    between atoms: C13_30  and  N8_32 
REMARK    9  A    between atoms: N8_32  and  O5_34 
REMARK   10  A    between atoms: O5_34  and  C14_35 
REMARK   11  A    between atoms: C16_41  and  O6_42 
ROOT
HETATM    1  C5  UNL     1     164.495  16.783  32.528  1.00  0.00     0.069 A 
HETATM    2  N1  UNL     1     165.679  17.241  32.943  1.00  0.00    -0.300 N 
ATOM      3  H1  UNL     1     165.970  18.194  32.725  1.00  0.00     0.186 HD
HETATM    4  N2  UNL     1     166.463  16.450  33.634  1.00  0.00    -0.293 N 
ATOM      5  H2  UNL     1     167.364  16.815  33.944  1.00  0.00     0.187 HD
HETATM    6  C6  UNL     1     166.144  15.170  33.961  1.00  0.00     0.106 A 
HETATM    7  S2  UNL     1     167.175  14.152  34.860  1.00  0.00    -0.054 SA
HETATM    8  C7  UNL     1     166.512  12.613  35.115  1.00  0.00     0.112 A 
HETATM    9  N3  UNL     1     167.205  11.594  35.847  1.00  0.00    -0.093 NA
HETATM   10  C8  UNL     1     165.248  12.407  34.563  1.00  0.00     0.104 A 
HETATM   11  C9  UNL     1     164.729  11.056  34.820  1.00  0.00     0.104 C 
HETATM   12  N4  UNL     1     164.340   9.968  35.043  1.00  0.00    -0.191 NA
HETATM   13  C10 UNL     1     164.520  13.315  33.857  1.00  0.00     0.087 A 
HETATM   14  N5  UNL     1     163.373  13.048  33.383  1.00  0.00    -0.294 N 
ATOM     15  H5  UNL     1     162.971  13.841  32.883  1.00  0.00     0.187 HD
HETATM   16  C15 UNL     1     164.956  14.630  33.575  1.00  0.00     0.064 A 
HETATM   17  C16 UNL     1     164.131  15.495  32.836  1.00  0.00     0.105 A 
ENDROOT
BRANCH  14  18
HETATM   18  N6  UNL     1     162.561  11.983  33.377  1.00  0.00    -0.251 N 
HETATM   19  C11 UNL     1     161.594  11.696  32.351  1.00  0.00     0.335 C 
HETATM   20  O3  UNL     1     161.471  12.468  31.376  1.00  0.00    -0.246 OA
HETATM   21  N7  UNL     1     160.748  10.542  32.395  1.00  0.00    -0.333 N 
ATOM     22  H7  UNL     1     160.834   9.899  33.182  1.00  0.00     0.164 HD
ATOM     23  H6  UNL     1     162.634  11.329  34.156  1.00  0.00     0.191 HD
BRANCH  21  24
HETATM   24  C12 UNL     1     159.789  10.259  31.379  1.00  0.00     0.229 C 
BRANCH  24  25
HETATM   25  C13 UNL     1     160.335   9.410  30.315  1.00  0.00     0.259 C 
HETATM   26  O4  UNL     1     160.254   9.800  29.082  1.00  0.00    -0.270 OA
HETATM   27  N8  UNL     1     160.964   8.166  30.489  1.00  0.00    -0.225 N 
ATOM     28  H8  UNL     1     161.070   7.782  31.429  1.00  0.00     0.198 HD
BRANCH  27  29
HETATM   29  O5  UNL     1     161.448   7.443  29.388  1.00  0.00    -0.202 OA
BRANCH  29  30
HETATM   30  C14 UNL     1     161.272   6.047  29.369  1.00  0.00     0.249 C 
HETATM   31  N9  UNL     1     161.205   5.463  30.508  1.00  0.00    -0.366 N 
ATOM     32  H92 UNL     1     161.275   5.972  31.390  1.00  0.00     0.159 HD
ATOM     33  H91 UNL     1     161.077   4.451  30.494  1.00  0.00     0.159 HD
HETATM   34  N10 UNL     1     161.174   5.337  28.138  1.00  0.00    -0.055 NA
ENDBRANCH  29  30
ENDBRANCH  27  29
ENDBRANCH  24  25
ENDBRANCH  21  24
ENDBRANCH  14  18
BRANCH  17  35
HETATM   35  O6  UNL     1     162.893  14.999  32.408  1.00  0.00    -0.358 OA
ATOM     36  H6  UNL     1     162.468  14.304  32.897  1.00  0.00     0.217 HD
ENDBRANCH  17  35
BRANCH   1  37
HETATM   37  C4  UNL     1     163.552  17.640  31.739  1.00  0.00     0.135 C 
BRANCH  37  38
HETATM   38  S1  UNL     1     163.757  17.370  29.977  1.00  0.00    -0.153 SA
BRANCH  38  39
HETATM   39  C3  UNL     1     165.476  17.627  29.467  1.00  0.00     0.185 C 
BRANCH  39  40
HETATM   40  C2  UNL     1     166.174  16.321  29.477  1.00  0.00     0.267 C 
HETATM   41  O2  UNL     1     165.977  15.479  28.571  1.00  0.00    -0.264 OA
BRANCH  40  42
HETATM   42  O1  UNL     1     167.073  15.964  30.479  1.00  0.00    -0.326 OA
HETATM   43  C1  UNL     1     167.562  14.647  30.593  1.00  0.00     0.213 C 
ENDBRANCH  40  42
ENDBRANCH  39  40
ENDBRANCH  38  39
ENDBRANCH  37  38
ENDBRANCH   1  37
TORSDOF 11
ENDMDL
MODEL 3
REMARK VINA RESULT: -7.732623431      3.157      5.596
REMARK  11 active torsions:
REMARK  status: ('A' for Active; 'I' for Inactive)
REMARK    1  A    between atoms: O1_2  and  C2_3 
REMARK    2  A    between atoms: C2_3  and  C3_5 
REMARK    3  A    between atoms: C3_5  and  S1_6 
REMARK    4  A    between atoms: S1_6  and  C4_7 
REMARK    5  A    between atoms: C4_7  and  C5_8 
REMARK    6  A    between atoms: N5_21  and  N6_23 
REMARK       I    between atoms: N6_23  and  C11_25 
REMARK       I    between atoms: C11_25  and  N7_27 
REMARK    7  A    between atoms: N7_27  and  C12_29 
REMARK    8  A    between atoms: C12_29  and  C13_30 
REMARK       I    between atoms: C13_30  and  N8_32 
REMARK    9  A    between atoms: N8_32  and  O5_34 
REMARK   10  A    between atoms: O5_34  and  C14_35 
REMARK   11  A    between atoms: C16_41  and  O6_42 
ROOT
HETATM    1  C5  UNL     1     160.402   7.512  35.083  1.00  0.00     0.069 A 
HETATM    2  N1  UNL     1     160.871   8.266  36.080  1.00  0.00    -0.300 N 
ATOM      3  H1  UNL     1     160.294   8.456  36.900  1.00  0.00     0.186 HD
HETATM    4  N2  UNL     1     162.083   8.761  35.993  1.00  0.00    -0.293 N 
ATOM      5  H2  UNL     1     162.426   9.334  36.763  1.00  0.00     0.187 HD
HETATM    6  C6  UNL     1     162.906   8.551  34.932  1.00  0.00     0.106 A 
HETATM    7  S2  UNL     1     164.479   9.202  34.832  1.00  0.00    -0.054 SA
HETATM    8  C7  UNL     1     165.273   8.773  33.396  1.00  0.00     0.112 A 
HETATM    9  N3  UNL     1     166.605   9.208  33.100  1.00  0.00    -0.093 NA
HETATM   10  C8  UNL     1     164.538   7.969  32.524  1.00  0.00     0.104 A 
HETATM   11  C9  UNL     1     165.280   7.632  31.302  1.00  0.00     0.104 C 
HETATM   12  N4  UNL     1     165.900   7.378  30.334  1.00  0.00    -0.191 NA
HETATM   13  C10 UNL     1     163.272   7.511  32.725  1.00  0.00     0.087 A 
HETATM   14  N5  UNL     1     162.668   6.783  31.878  1.00  0.00    -0.294 N 
ATOM     15  H5  UNL     1     161.730   6.531  32.188  1.00  0.00     0.187 HD
HETATM   16  C15 UNL     1     162.502   7.794  33.877  1.00  0.00     0.064 A 
HETATM   17  C16 UNL     1     161.202   7.274  33.992  1.00  0.00     0.105 A 
ENDROOT
BRANCH  14  18
HETATM   18  N6  UNL     1     162.959   6.265  30.678  1.00  0.00    -0.251 N 
HETATM   19  C11 UNL     1     162.267   5.158  30.075  1.00  0.00     0.335 C 
HETATM   20  O3  UNL     1     161.319   4.611  30.677  1.00  0.00    -0.246 OA
HETATM   21  N7  UNL     1     162.620   4.640  28.787  1.00  0.00    -0.333 N 
ATOM     22  H7  UNL     1     163.391   5.074  28.278  1.00  0.00     0.164 HD
ATOM     23  H6  UNL     1     163.727   6.686  30.154  1.00  0.00     0.191 HD
BRANCH  21  24
HETATM   24  C12 UNL     1     161.935   3.543  28.190  1.00  0.00     0.229 C 
BRANCH  24  25
HETATM   25  C13 UNL     1     160.794   3.971  27.376  1.00  0.00     0.259 C 
HETATM   26  O4  UNL     1     160.981   4.802  26.400  1.00  0.00    -0.270 OA
HETATM   27  N8  UNL     1     159.458   3.567  27.544  1.00  0.00    -0.225 N 
ATOM     28  H8  UNL     1     159.221   2.914  28.291  1.00  0.00     0.198 HD
BRANCH  27  29
HETATM   29  O5  UNL     1     158.448   4.049  26.698  1.00  0.00    -0.202 OA
BRANCH  29  30
HETATM   30  C14 UNL     1     158.437   3.628  25.356  1.00  0.00     0.249 C 
HETATM   31  N9  UNL     1     158.732   4.511  24.476  1.00  0.00    -0.366 N 
ATOM     32  H92 UNL     1     158.965   5.474  24.722  1.00  0.00     0.159 HD
ATOM     33  H91 UNL     1     158.725   4.206  23.502  1.00  0.00     0.159 HD
HETATM   34  N10 UNL     1     158.113   2.284  25.012  1.00  0.00    -0.055 NA
ENDBRANCH  29  30
ENDBRANCH  27  29
ENDBRANCH  24  25
ENDBRANCH  21  24
ENDBRANCH  14  18
BRANCH  17  35
HETATM   35  O6  UNL     1     160.726   6.485  32.937  1.00  0.00    -0.358 OA
ATOM     36  H6  UNL     1     160.327   6.898  32.180  1.00  0.00     0.217 HD
ENDBRANCH  17  35
BRANCH   1  37
HETATM   37  C4  UNL     1     159.029   6.914  35.126  1.00  0.00     0.135 C 
BRANCH  37  38
HETATM   38  S1  UNL     1     159.079   5.227  35.733  1.00  0.00    -0.153 SA
BRANCH  38  39
HETATM   39  C3  UNL     1     157.708   4.894  36.870  1.00  0.00     0.185 C 
BRANCH  39  40
HETATM   40  C2  UNL     1     156.961   3.713  36.379  1.00  0.00     0.267 C 
HETATM   41  O2  UNL     1     157.516   2.594  36.286  1.00  0.00    -0.264 OA
BRANCH  40  42
HETATM   42  O1  UNL     1     155.623   3.783  36.000  1.00  0.00    -0.326 OA
HETATM   43  C1  UNL     1     154.975   5.021  35.814  1.00  0.00     0.213 C 
ENDBRANCH  40  42
ENDBRANCH  39  40
ENDBRANCH  38  39
ENDBRANCH  37  38
ENDBRANCH   1  37
TORSDOF 11
ENDMDL
MODEL 4
REMARK VINA RESULT: -7.658939702      2.885      5.464
REMARK  11 active torsions:
REMARK  status: ('A' for Active; 'I' for Inactive)
REMARK    1  A    between atoms: O1_2  and  C2_3 
REMARK    2  A    between atoms: C2_3  and  C3_5 
REMARK    3  A    between atoms: C3_5  and  S1_6 
REMARK    4  A    between atoms: S1_6  and  C4_7 
REMARK    5  A    between atoms: C4_7  and  C5_8 
REMARK    6  A    between atoms: N5_21  and  N6_23 
REMARK       I    between atoms: N6_23  and  C11_25 
REMARK       I    between atoms: C11_25  and  N7_27 
REMARK    7  A    between atoms: N7_27  and  C12_29 
REMARK    8  A    between atoms: C12_29  and  C13_30 
REMARK       I    between atoms: C13_30  and  N8_32 
REMARK    9  A    between atoms: N8_32  and  O5_34 
REMARK   10  A    between atoms: O5_34  and  C14_35 
REMARK   11  A    between atoms: C16_41  and  O6_42 
ROOT
HETATM    1  C5  UNL     1     160.112   7.050  35.177  1.00  0.00     0.069 A 
HETATM    2  N1  UNL     1     160.488   7.846  36.181  1.00  0.00    -0.300 N 
ATOM      3  H1  UNL     1     159.881   7.979  36.990  1.00  0.00     0.186 HD
HETATM    4  N2  UNL     1     161.648   8.455  36.114  1.00  0.00    -0.293 N 
ATOM      5  H2  UNL     1     161.920   9.059  36.890  1.00  0.00     0.187 HD
HETATM    6  C6  UNL     1     162.506   8.327  35.069  1.00  0.00     0.106 A 
HETATM    7  S2  UNL     1     164.011   9.126  34.995  1.00  0.00    -0.054 SA
HETATM    8  C7  UNL     1     164.868   8.776  33.574  1.00  0.00     0.112 A 
HETATM    9  N3  UNL     1     166.157   9.338  33.301  1.00  0.00    -0.093 NA
HETATM   10  C8  UNL     1     164.230   7.905  32.691  1.00  0.00     0.104 A 
HETATM   11  C9  UNL     1     165.022   7.641  31.482  1.00  0.00     0.104 C 
HETATM   12  N4  UNL     1     165.681   7.449  30.526  1.00  0.00    -0.191 NA
HETATM   13  C10 UNL     1     163.010   7.327  32.870  1.00  0.00     0.087 A 
HETATM   14  N5  UNL     1     162.495   6.544  32.014  1.00  0.00    -0.294 N 
ATOM     15  H5  UNL     1     161.580   6.202  32.307  1.00  0.00     0.187 HD
HETATM   16  C15 UNL     1     162.196   7.534  34.008  1.00  0.00     0.064 A 
HETATM   17  C16 UNL     1     160.951   6.891  34.100  1.00  0.00     0.105 A 
ENDROOT
BRANCH  14  18
HETATM   18  N6  UNL     1     162.856   6.057  30.819  1.00  0.00    -0.251 N 
HETATM   19  C11 UNL     1     162.183   4.986  30.135  1.00  0.00     0.335 C 
HETATM   20  O3  UNL     1     161.184   4.444  30.654  1.00  0.00    -0.246 OA
HETATM   21  N7  UNL     1     162.612   4.500  28.858  1.00  0.00    -0.333 N 
ATOM     22  H7  UNL     1     163.425   4.931  28.416  1.00  0.00     0.164 HD
ATOM     23  H6  UNL     1     163.666   6.475  30.363  1.00  0.00     0.191 HD
BRANCH  21  24
HETATM   24  C12 UNL     1     161.946   3.438  28.180  1.00  0.00     0.229 C 
BRANCH  24  25
HETATM   25  C13 UNL     1     160.817   3.911  27.373  1.00  0.00     0.259 C 
HETATM   26  O4  UNL     1     161.023   4.776  26.431  1.00  0.00    -0.270 OA
HETATM   27  N8  UNL     1     159.476   3.515  27.514  1.00  0.00    -0.225 N 
ATOM     28  H8  UNL     1     159.224   2.837  28.232  1.00  0.00     0.198 HD
BRANCH  27  29
HETATM   29  O5  UNL     1     158.479   4.040  26.677  1.00  0.00    -0.202 OA
BRANCH  29  30
HETATM   30  C14 UNL     1     158.438   3.623  25.335  1.00  0.00     0.249 C 
HETATM   31  N9  UNL     1     158.735   4.503  24.452  1.00  0.00    -0.366 N 
ATOM     32  H92 UNL     1     158.990   5.460  24.696  1.00  0.00     0.159 HD
ATOM     33  H91 UNL     1     158.707   4.200  23.478  1.00  0.00     0.159 HD
HETATM   34  N10 UNL     1     158.084   2.286  24.993  1.00  0.00    -0.055 NA
ENDBRANCH  29  30
ENDBRANCH  27  29
ENDBRANCH  24  25
ENDBRANCH  21  24
ENDBRANCH  14  18
BRANCH  17  35
HETATM   35  O6  UNL     1     160.572   6.060  33.038  1.00  0.00    -0.358 OA
ATOM     36  H6  UNL     1     160.757   6.321  32.143  1.00  0.00     0.217 HD
ENDBRANCH  17  35
BRANCH   1  37
HETATM   37  C4  UNL     1     158.803   6.323  35.196  1.00  0.00     0.135 C 
BRANCH  37  38
HETATM   38  S1  UNL     1     158.824   4.988  36.395  1.00  0.00    -0.153 SA
BRANCH  38  39
HETATM   39  C3  UNL     1     160.286   3.938  36.186  1.00  0.00     0.185 C 
BRANCH  39  40
HETATM   40  C2  UNL     1     160.092   3.087  34.989  1.00  0.00     0.267 C 
HETATM   41  O2  UNL     1     160.736   3.300  33.937  1.00  0.00    -0.264 OA
BRANCH  40  42
HETATM   42  O1  UNL     1     159.194   2.022  34.970  1.00  0.00    -0.326 OA
HETATM   43  C1  UNL     1     159.093   1.126  36.054  1.00  0.00     0.213 C 
ENDBRANCH  40  42
ENDBRANCH  39  40
ENDBRANCH  38  39
ENDBRANCH  37  38
ENDBRANCH   1  37
TORSDOF 11
ENDMDL
MODEL 5
REMARK VINA RESULT: -7.658552353      4.355      7.054
REMARK  11 active torsions:
REMARK  status: ('A' for Active; 'I' for Inactive)
REMARK    1  A    between atoms: O1_2  and  C2_3 
REMARK    2  A    between atoms: C2_3  and  C3_5 
REMARK    3  A    between atoms: C3_5  and  S1_6 
REMARK    4  A    between atoms: S1_6  and  C4_7 
REMARK    5  A    between atoms: C4_7  and  C5_8 
REMARK    6  A    between atoms: N5_21  and  N6_23 
REMARK       I    between atoms: N6_23  and  C11_25 
REMARK       I    between atoms: C11_25  and  N7_27 
REMARK    7  A    between atoms: N7_27  and  C12_29 
REMARK    8  A    between atoms: C12_29  and  C13_30 
REMARK       I    between atoms: C13_30  and  N8_32 
REMARK    9  A    between atoms: N8_32  and  O5_34 
REMARK   10  A    between atoms: O5_34  and  C14_35 
REMARK   11  A    between atoms: C16_41  and  O6_42 
ROOT
HETATM    1  C5  UNL     1     160.787  10.464  32.247  1.00  0.00     0.069 A 
HETATM    2  N1  UNL     1     161.676  11.427  31.992  1.00  0.00    -0.300 N 
ATOM      3  H1  UNL     1     161.587  12.004  31.155  1.00  0.00     0.186 HD
HETATM    4  N2  UNL     1     162.665  11.622  32.830  1.00  0.00    -0.293 N 
ATOM      5  H2  UNL     1     163.335  12.362  32.621  1.00  0.00     0.187 HD
HETATM    6  C6  UNL     1     162.848  10.892  33.962  1.00  0.00     0.106 A 
HETATM    7  S2  UNL     1     164.140  11.157  35.042  1.00  0.00    -0.054 SA
HETATM    8  C7  UNL     1     164.112  10.097  36.366  1.00  0.00     0.112 A 
HETATM    9  N3  UNL     1     165.103  10.140  37.400  1.00  0.00    -0.093 NA
HETATM   10  C8  UNL     1     163.059   9.182  36.377  1.00  0.00     0.104 A 
HETATM   11  C9  UNL     1     163.090   8.296  37.548  1.00  0.00     0.104 C 
HETATM   12  N4  UNL     1     163.141   7.601  38.496  1.00  0.00    -0.191 NA
HETATM   13  C10 UNL     1     162.078   9.073  35.439  1.00  0.00     0.087 A 
HETATM   14  N5  UNL     1     161.152   8.208  35.521  1.00  0.00    -0.294 N 
ATOM     15  H5  UNL     1     160.503   8.266  34.736  1.00  0.00     0.187 HD
HETATM   16  C15 UNL     1     161.986   9.893  34.292  1.00  0.00     0.064 A 
HETATM   17  C16 UNL     1     160.933   9.702  33.381  1.00  0.00     0.105 A 
ENDROOT
BRANCH  14  18
HETATM   18  N6  UNL     1     160.817   7.238  36.382  1.00  0.00    -0.251 N 
HETATM   19  C11 UNL     1     160.569   5.870  36.017  1.00  0.00     0.335 C 
HETATM   20  O3  UNL     1     160.663   5.515  34.823  1.00  0.00    -0.246 OA
HETATM   21  N7  UNL     1     160.211   4.871  36.980  1.00  0.00    -0.333 N 
ATOM     22  H7  UNL     1     160.131   5.140  37.960  1.00  0.00     0.164 HD
ATOM     23  H6  UNL     1     160.733   7.489  37.367  1.00  0.00     0.191 HD
BRANCH  21  24
HETATM   24  C12 UNL     1     159.964   3.515  36.618  1.00  0.00     0.229 C 
BRANCH  24  25
HETATM   25  C13 UNL     1     158.534   3.231  36.455  1.00  0.00     0.259 C 
HETATM   26  O4  UNL     1     158.162   2.112  35.920  1.00  0.00    -0.270 OA
HETATM   27  N8  UNL     1     157.475   4.076  36.828  1.00  0.00    -0.225 N 
ATOM     28  H8  UNL     1     157.678   4.978  37.257  1.00  0.00     0.198 HD
BRANCH  27  29
HETATM   29  O5  UNL     1     156.141   3.693  36.620  1.00  0.00    -0.202 OA
BRANCH  29  30
HETATM   30  C14 UNL     1     155.143   4.683  36.662  1.00  0.00     0.249 C 
HETATM   31  N9  UNL     1     154.836   5.235  35.548  1.00  0.00    -0.366 N 
ATOM     32  H92 UNL     1     155.285   4.979  34.668  1.00  0.00     0.159 HD
ATOM     33  H91 UNL     1     154.112   5.953  35.578  1.00  0.00     0.159 HD
HETATM   34  N10 UNL     1     154.516   5.040  37.891  1.00  0.00    -0.055 NA
ENDBRANCH  29  30
ENDBRANCH  27  29
ENDBRANCH  24  25
ENDBRANCH  21  24
ENDBRANCH  14  18
BRANCH  17  35
HETATM   35  O6  UNL     1     160.010   8.687  33.663  1.00  0.00    -0.358 OA
ATOM     36  H6  UNL     1     160.256   7.777  33.542  1.00  0.00     0.217 HD
ENDBRANCH  17  35
BRANCH   1  37
HETATM   37  C4  UNL     1     159.632  10.195  31.331  1.00  0.00     0.135 C 
BRANCH  37  38
HETATM   38  S1  UNL     1     160.138   9.191  29.933  1.00  0.00    -0.153 SA
BRANCH  38  39
HETATM   39  C3  UNL     1     161.251   7.857  30.448  1.00  0.00     0.185 C 
BRANCH  39  40
HETATM   40  C2  UNL     1     161.183   6.769  29.445  1.00  0.00     0.267 C 
HETATM   41  O2  UNL     1     160.125   6.123  29.267  1.00  0.00    -0.264 OA
BRANCH  40  42
HETATM   42  O1  UNL     1     162.276   6.411  28.659  1.00  0.00    -0.326 OA
HETATM   43  C1  UNL     1     162.307   5.190  27.956  1.00  0.00     0.213 C 
ENDBRANCH  40  42
ENDBRANCH  39  40
ENDBRANCH  38  39
ENDBRANCH  37  38
ENDBRANCH   1  37
TORSDOF 11
ENDMDL
