MODEL 1
REMARK VINA RESULT: -9.046913014      0.000      0.000
REMARK  11 active torsions:
REMARK  status: ('A' for Active; 'I' for Inactive)
REMARK    1  A    between atoms: N1_2  and  C3_4 
REMARK    2  A    between atoms: N1_2  and  C12_19 
REMARK    3  A    between atoms: C3_4  and  C4_5 
REMARK    4  A    between atoms: C4_5  and  C5_6 
REMARK    5  A    between atoms: C5_6  and  C6_7 
REMARK    6  A    between atoms: C8_9  and  O1_10 
REMARK    7  A    between atoms: C10_13  and  C11_14 
REMARK    8  A    between atoms: C12_19  and  C13_20 
REMARK       I    between atoms: C13_20  and  N3_22 
REMARK    9  A    between atoms: N3_22  and  C14_24 
REMARK   10  A    between atoms: C14_24  and  C15_25 
REMARK   11  A    between atoms: C15_25  and  C16_26 
ROOT
HETATM    1  C1  UNL     1      29.611  45.765  36.096  1.00  0.00     0.272 C 
HETATM    2  N1  UNL     1      30.495  44.942  35.267  1.00  0.00    -0.066 N 
HETATM    3  C2  UNL     1      30.058  43.575  35.392  1.00  0.00     0.272 C 
ENDROOT
BRANCH   2   4
HETATM    4  C3  UNL     1      31.829  45.202  35.700  1.00  0.00     0.237 C 
BRANCH   4   5
HETATM    5  C4  UNL     1      32.356  46.578  35.524  1.00  0.00     0.030 C 
BRANCH   5   6
HETATM    6  C5  UNL     1      32.934  47.150  36.765  1.00  0.00     0.026 C 
BRANCH   6   7
HETATM    7  C6  UNL     1      34.328  47.753  36.522  1.00  0.00     0.080 C 
HETATM    8  C7  UNL     1      34.561  48.852  37.497  1.00  0.00     0.056 C 
HETATM    9  C8  UNL     1      35.991  49.149  37.795  1.00  0.00     0.122 C 
HETATM   10  C9  UNL     1      36.839  47.910  37.977  1.00  0.00     0.067 C 
HETATM   11  C10 UNL     1      36.622  47.047  36.751  1.00  0.00     0.181 C 
HETATM   12  N2  UNL     1      35.255  46.667  36.586  1.00  0.00    -0.404 N 
ATOM     13  H2  UNL     1      34.962  45.692  36.519  1.00  0.00     0.154 HD
BRANCH   9  14
HETATM   14  O1  UNL     1      36.052  49.912  38.980  1.00  0.00    -0.395 OA
ATOM     15  H1  UNL     1      36.166  50.825  38.745  1.00  0.00     0.210 HD
ENDBRANCH   9  14
BRANCH  11  16
HETATM   16  C11 UNL     1      37.433  45.814  36.932  1.00  0.00     0.196 C 
HETATM   17  O2  UNL     1      37.115  44.723  36.362  1.00  0.00    -0.646 OA
HETATM   18  O3  UNL     1      38.579  45.788  37.728  1.00  0.00    -0.646 OA
ENDBRANCH  11  16
ENDBRANCH   6   7
ENDBRANCH   5   6
ENDBRANCH   4   5
ENDBRANCH   2   4
BRANCH   2  19
HETATM   19  C12 UNL     1      30.276  45.424  33.898  1.00  0.00     0.338 C 
BRANCH  19  20
HETATM   20  C13 UNL     1      30.106  44.336  32.920  1.00  0.00     0.243 C 
HETATM   21  O4  UNL     1      31.074  43.600  32.627  1.00  0.00    -0.272 OA
HETATM   22  N3  UNL     1      28.863  44.094  32.290  1.00  0.00    -0.360 N 
ATOM     23  H3  UNL     1      28.074  44.695  32.528  1.00  0.00     0.162 HD
BRANCH  22  24
HETATM   24  C14 UNL     1      28.655  43.039  31.327  1.00  0.00     0.123 C 
BRANCH  24  25
HETATM   25  C15 UNL     1      28.806  43.576  29.950  1.00  0.00     0.029 C 
BRANCH  25  26
HETATM   26  C16 UNL     1      27.996  42.840  28.956  1.00  0.00    -0.034 C 
HETATM   27  C17 UNL     1      28.204  43.265  27.502  1.00  0.00     0.014 C 
HETATM   28  C18 UNL     1      28.084  41.950  26.781  1.00  0.00    -0.013 C 
HETATM   29  C19 UNL     1      26.698  41.404  27.023  1.00  0.00     0.010 C 
HETATM   30  C23 UNL     1      28.894  41.045  27.725  1.00  0.00     0.010 C 
HETATM   31  C20 UNL     1      26.669  41.296  28.542  1.00  0.00    -0.009 C 
HETATM   32  C21 UNL     1      26.527  42.676  29.205  1.00  0.00     0.015 C 
HETATM   33  C22 UNL     1      28.115  41.344  28.983  1.00  0.00    -0.002 C 
ENDBRANCH  25  26
ENDBRANCH  24  25
ENDBRANCH  22  24
ENDBRANCH  19  20
ENDBRANCH   2  19
TORSDOF 11
ENDMDL
MODEL 2
REMARK VINA RESULT: -8.964466599      0.820      1.533
REMARK  11 active torsions:
REMARK  status: ('A' for Active; 'I' for Inactive)
REMARK    1  A    between atoms: N1_2  and  C3_4 
REMARK    2  A    between atoms: N1_2  and  C12_19 
REMARK    3  A    between atoms: C3_4  and  C4_5 
REMARK    4  A    between atoms: C4_5  and  C5_6 
REMARK    5  A    between atoms: C5_6  and  C6_7 
REMARK    6  A    between atoms: C8_9  and  O1_10 
REMARK    7  A    between atoms: C10_13  and  C11_14 
REMARK    8  A    between atoms: C12_19  and  C13_20 
REMARK       I    between atoms: C13_20  and  N3_22 
REMARK    9  A    between atoms: N3_22  and  C14_24 
REMARK   10  A    between atoms: C14_24  and  C15_25 
REMARK   11  A    between atoms: C15_25  and  C16_26 
ROOT
HETATM    1  C1  UNL     1      31.626  46.169  33.826  1.00  0.00     0.272 C 
HETATM    2  N1  UNL     1      30.484  45.901  34.704  1.00  0.00    -0.066 N 
HETATM    3  C2  UNL     1      29.376  46.687  34.225  1.00  0.00     0.272 C 
ENDROOT
BRANCH   2   4
HETATM    4  C3  UNL     1      30.910  46.187  36.036  1.00  0.00     0.237 C 
BRANCH   4   5
HETATM    5  C4  UNL     1      32.361  46.086  36.333  1.00  0.00     0.030 C 
BRANCH   5   6
HETATM    6  C5  UNL     1      32.842  47.129  37.273  1.00  0.00     0.026 C 
BRANCH   6   7
HETATM    7  C6  UNL     1      34.178  47.738  36.815  1.00  0.00     0.080 C 
HETATM    8  C7  UNL     1      34.543  48.855  37.727  1.00  0.00     0.056 C 
HETATM    9  C8  UNL     1      35.998  49.168  37.805  1.00  0.00     0.122 C 
HETATM   10  C9  UNL     1      36.876  47.939  37.880  1.00  0.00     0.067 C 
HETATM   11  C10 UNL     1      36.488  47.053  36.714  1.00  0.00     0.181 C 
HETATM   12  N2  UNL     1      35.115  46.660  36.759  1.00  0.00    -0.404 N 
ATOM     13  H2  UNL     1      34.825  45.682  36.753  1.00  0.00     0.154 HD
BRANCH   9  14
HETATM   14  O1  UNL     1      36.226  49.953  38.955  1.00  0.00    -0.395 OA
ATOM     15  H1  UNL     1      36.991  49.613  39.404  1.00  0.00     0.210 HD
ENDBRANCH   9  14
BRANCH  11  16
HETATM   16  C11 UNL     1      37.329  45.829  36.793  1.00  0.00     0.196 C 
HETATM   17  O2  UNL     1      37.093  44.816  36.062  1.00  0.00    -0.646 OA
HETATM   18  O3  UNL     1      38.415  45.728  37.663  1.00  0.00    -0.646 OA
ENDBRANCH  11  16
ENDBRANCH   6   7
ENDBRANCH   5   6
ENDBRANCH   4   5
ENDBRANCH   2   4
BRANCH   2  19
HETATM   19  C12 UNL     1      30.209  44.471  34.529  1.00  0.00     0.338 C 
BRANCH  19  20
HETATM   20  C13 UNL     1      30.189  44.053  33.116  1.00  0.00     0.243 C 
HETATM   21  O4  UNL     1      31.186  43.486  32.617  1.00  0.00    -0.272 OA
HETATM   22  N3  UNL     1      29.062  44.278  32.293  1.00  0.00    -0.360 N 
ATOM     23  H3  UNL     1      28.249  44.742  32.700  1.00  0.00     0.162 HD
BRANCH  22  24
HETATM   24  C14 UNL     1      29.002  43.884  30.905  1.00  0.00     0.123 C 
BRANCH  24  25
HETATM   25  C15 UNL     1      28.529  42.479  30.801  1.00  0.00     0.029 C 
BRANCH  25  26
HETATM   26  C16 UNL     1      27.773  42.221  29.556  1.00  0.00    -0.034 C 
HETATM   27  C17 UNL     1      27.944  40.820  28.968  1.00  0.00     0.014 C 
HETATM   28  C18 UNL     1      26.566  40.545  28.431  1.00  0.00    -0.013 C 
HETATM   29  C19 UNL     1      26.259  41.575  27.371  1.00  0.00     0.010 C 
HETATM   30  C23 UNL     1      25.708  41.090  29.586  1.00  0.00     0.010 C 
HETATM   31  C20 UNL     1      26.383  42.875  28.157  1.00  0.00    -0.009 C 
HETATM   32  C21 UNL     1      27.852  43.223  28.445  1.00  0.00     0.015 C 
HETATM   33  C22 UNL     1      26.295  42.480  29.614  1.00  0.00    -0.002 C 
ENDBRANCH  25  26
ENDBRANCH  24  25
ENDBRANCH  22  24
ENDBRANCH  19  20
ENDBRANCH   2  19
TORSDOF 11
ENDMDL
MODEL 3
REMARK VINA RESULT: -8.903073760      0.740      1.085
REMARK  11 active torsions:
REMARK  status: ('A' for Active; 'I' for Inactive)
REMARK    1  A    between atoms: N1_2  and  C3_4 
REMARK    2  A    between atoms: N1_2  and  C12_19 
REMARK    3  A    between atoms: C3_4  and  C4_5 
REMARK    4  A    between atoms: C4_5  and  C5_6 
REMARK    5  A    between atoms: C5_6  and  C6_7 
REMARK    6  A    between atoms: C8_9  and  O1_10 
REMARK    7  A    between atoms: C10_13  and  C11_14 
REMARK    8  A    between atoms: C12_19  and  C13_20 
REMARK       I    between atoms: C13_20  and  N3_22 
REMARK    9  A    between atoms: N3_22  and  C14_24 
REMARK   10  A    between atoms: C14_24  and  C15_25 
REMARK   11  A    between atoms: C15_25  and  C16_26 
ROOT
HETATM    1  C1  UNL     1      31.593  46.131  33.851  1.00  0.00     0.272 C 
HETATM    2  N1  UNL     1      30.462  45.868  34.744  1.00  0.00    -0.066 N 
HETATM    3  C2  UNL     1      29.342  46.635  34.262  1.00  0.00     0.272 C 
ENDROOT
BRANCH   2   4
HETATM    4  C3  UNL     1      30.897  46.182  36.066  1.00  0.00     0.237 C 
BRANCH   4   5
HETATM    5  C4  UNL     1      32.352  46.098  36.352  1.00  0.00     0.030 C 
BRANCH   5   6
HETATM    6  C5  UNL     1      32.829  47.151  37.283  1.00  0.00     0.026 C 
BRANCH   6   7
HETATM    7  C6  UNL     1      34.167  47.755  36.824  1.00  0.00     0.080 C 
HETATM    8  C7  UNL     1      34.533  48.876  37.730  1.00  0.00     0.056 C 
HETATM    9  C8  UNL     1      35.988  49.187  37.808  1.00  0.00     0.122 C 
HETATM   10  C9  UNL     1      36.864  47.956  37.889  1.00  0.00     0.067 C 
HETATM   11  C10 UNL     1      36.476  47.065  36.728  1.00  0.00     0.181 C 
HETATM   12  N2  UNL     1      35.102  46.675  36.774  1.00  0.00    -0.404 N 
ATOM     13  H2  UNL     1      34.810  45.697  36.772  1.00  0.00     0.154 HD
BRANCH   9  14
HETATM   14  O1  UNL     1      36.216  49.977  38.954  1.00  0.00    -0.395 OA
ATOM     15  H1  UNL     1      36.914  49.577  39.461  1.00  0.00     0.210 HD
ENDBRANCH   9  14
BRANCH  11  16
HETATM   16  C11 UNL     1      37.315  45.841  36.814  1.00  0.00     0.196 C 
HETATM   17  O2  UNL     1      37.080  44.825  36.085  1.00  0.00    -0.646 OA
HETATM   18  O3  UNL     1      38.397  45.740  37.688  1.00  0.00    -0.646 OA
ENDBRANCH  11  16
ENDBRANCH   6   7
ENDBRANCH   5   6
ENDBRANCH   4   5
ENDBRANCH   2   4
BRANCH   2  19
HETATM   19  C12 UNL     1      30.199  44.432  34.597  1.00  0.00     0.338 C 
BRANCH  19  20
HETATM   20  C13 UNL     1      30.151  43.992  33.192  1.00  0.00     0.243 C 
HETATM   21  O4  UNL     1      31.162  43.485  32.659  1.00  0.00    -0.272 OA
HETATM   22  N3  UNL     1      28.978  44.130  32.413  1.00  0.00    -0.360 N 
ATOM     23  H3  UNL     1      28.153  44.545  32.847  1.00  0.00     0.162 HD
BRANCH  22  24
HETATM   24  C14 UNL     1      28.889  43.712  31.034  1.00  0.00     0.123 C 
BRANCH  24  25
HETATM   25  C15 UNL     1      28.200  42.398  30.950  1.00  0.00     0.029 C 
BRANCH  25  26
HETATM   26  C16 UNL     1      27.569  42.166  29.633  1.00  0.00    -0.034 C 
HETATM   27  C17 UNL     1      27.737  43.299  28.620  1.00  0.00     0.014 C 
HETATM   28  C18 UNL     1      27.884  42.537  27.331  1.00  0.00    -0.013 C 
HETATM   29  C19 UNL     1      26.616  41.751  27.102  1.00  0.00     0.010 C 
HETATM   30  C23 UNL     1      28.820  41.405  27.788  1.00  0.00     0.010 C 
HETATM   31  C20 UNL     1      26.564  40.877  28.349  1.00  0.00    -0.009 C 
HETATM   32  C21 UNL     1      26.150  41.687  29.589  1.00  0.00     0.015 C 
HETATM   33  C22 UNL     1      27.963  40.902  28.924  1.00  0.00    -0.002 C 
ENDBRANCH  25  26
ENDBRANCH  24  25
ENDBRANCH  22  24
ENDBRANCH  19  20
ENDBRANCH   2  19
TORSDOF 11
ENDMDL
MODEL 4
REMARK VINA RESULT: -8.863060557      4.488     11.084
REMARK  11 active torsions:
REMARK  status: ('A' for Active; 'I' for Inactive)
REMARK    1  A    between atoms: N1_2  and  C3_4 
REMARK    2  A    between atoms: N1_2  and  C12_19 
REMARK    3  A    between atoms: C3_4  and  C4_5 
REMARK    4  A    between atoms: C4_5  and  C5_6 
REMARK    5  A    between atoms: C5_6  and  C6_7 
REMARK    6  A    between atoms: C8_9  and  O1_10 
REMARK    7  A    between atoms: C10_13  and  C11_14 
REMARK    8  A    between atoms: C12_19  and  C13_20 
REMARK       I    between atoms: C13_20  and  N3_22 
REMARK    9  A    between atoms: N3_22  and  C14_24 
REMARK   10  A    between atoms: C14_24  and  C15_25 
REMARK   11  A    between atoms: C15_25  and  C16_26 
ROOT
HETATM    1  C1  UNL     1      26.648  42.364  30.503  1.00  0.00     0.272 C 
HETATM    2  N1  UNL     1      27.454  42.350  29.279  1.00  0.00    -0.066 N 
HETATM    3  C2  UNL     1      26.565  42.592  28.171  1.00  0.00     0.272 C 
ENDROOT
BRANCH   2   4
HETATM    4  C3  UNL     1      28.142  41.100  29.252  1.00  0.00     0.237 C 
BRANCH   4   5
HETATM    5  C4  UNL     1      28.530  40.555  27.927  1.00  0.00     0.030 C 
BRANCH   5   6
HETATM    6  C5  UNL     1      28.724  39.083  27.932  1.00  0.00     0.026 C 
BRANCH   6   7
HETATM    7  C6  UNL     1      29.391  38.592  26.636  1.00  0.00     0.080 C 
HETATM    8  C7  UNL     1      29.650  39.757  25.748  1.00  0.00     0.056 C 
HETATM    9  C8  UNL     1      30.756  39.578  24.765  1.00  0.00     0.122 C 
HETATM   10  C9  UNL     1      31.978  38.906  25.349  1.00  0.00     0.067 C 
HETATM   11  C10 UNL     1      31.505  37.622  25.997  1.00  0.00     0.181 C 
HETATM   12  N2  UNL     1      30.549  37.853  27.033  1.00  0.00    -0.404 N 
ATOM     13  H2  UNL     1      30.683  37.516  27.987  1.00  0.00     0.154 HD
BRANCH   9  14
HETATM   14  O1  UNL     1      31.131  40.848  24.279  1.00  0.00    -0.395 OA
ATOM     15  H1  UNL     1      31.731  41.244  24.901  1.00  0.00     0.210 HD
ENDBRANCH   9  14
BRANCH  11  16
HETATM   16  C11 UNL     1      32.696  36.965  26.596  1.00  0.00     0.196 C 
HETATM   17  O2  UNL     1      33.475  37.595  27.378  1.00  0.00    -0.646 OA
HETATM   18  O3  UNL     1      33.021  35.633  26.335  1.00  0.00    -0.646 OA
ENDBRANCH  11  16
ENDBRANCH   6   7
ENDBRANCH   5   6
ENDBRANCH   4   5
ENDBRANCH   2   4
BRANCH   2  19
HETATM   19  C12 UNL     1      28.389  43.470  29.437  1.00  0.00     0.338 C 
BRANCH  19  20
HETATM   20  C13 UNL     1      29.105  43.450  30.724  1.00  0.00     0.243 C 
HETATM   21  O4  UNL     1      29.806  42.463  31.036  1.00  0.00    -0.272 OA
HETATM   22  N3  UNL     1      29.021  44.529  31.635  1.00  0.00    -0.360 N 
ATOM     23  H3  UNL     1      28.447  45.334  31.382  1.00  0.00     0.162 HD
BRANCH  22  24
HETATM   24  C14 UNL     1      29.706  44.549  32.906  1.00  0.00     0.123 C 
BRANCH  24  25
HETATM   25  C15 UNL     1      29.461  45.845  33.590  1.00  0.00     0.029 C 
BRANCH  25  26
HETATM   26  C16 UNL     1      30.453  46.130  34.648  1.00  0.00    -0.034 C 
HETATM   27  C17 UNL     1      29.998  47.123  35.719  1.00  0.00     0.014 C 
HETATM   28  C18 UNL     1      30.639  46.553  36.954  1.00  0.00    -0.013 C 
HETATM   29  C19 UNL     1      32.136  46.570  36.760  1.00  0.00     0.010 C 
HETATM   30  C23 UNL     1      30.361  45.055  36.741  1.00  0.00     0.010 C 
HETATM   31  C20 UNL     1      32.296  45.710  35.512  1.00  0.00    -0.009 C 
HETATM   32  C21 UNL     1      31.858  46.465  34.246  1.00  0.00     0.015 C 
HETATM   33  C22 UNL     1      31.002  44.939  35.380  1.00  0.00    -0.002 C 
ENDBRANCH  25  26
ENDBRANCH  24  25
ENDBRANCH  22  24
ENDBRANCH  19  20
ENDBRANCH   2  19
TORSDOF 11
ENDMDL
MODEL 5
REMARK VINA RESULT: -8.594808166      4.180      9.972
REMARK  11 active torsions:
REMARK  status: ('A' for Active; 'I' for Inactive)
REMARK    1  A    between atoms: N1_2  and  C3_4 
REMARK    2  A    between atoms: N1_2  and  C12_19 
REMARK    3  A    between atoms: C3_4  and  C4_5 
REMARK    4  A    between atoms: C4_5  and  C5_6 
REMARK    5  A    between atoms: C5_6  and  C6_7 
REMARK    6  A    between atoms: C8_9  and  O1_10 
REMARK    7  A    between atoms: C10_13  and  C11_14 
REMARK    8  A    between atoms: C12_19  and  C13_20 
REMARK       I    between atoms: C13_20  and  N3_22 
REMARK    9  A    between atoms: N3_22  and  C14_24 
REMARK   10  A    between atoms: C14_24  and  C15_25 
REMARK   11  A    between atoms: C15_25  and  C16_26 
ROOT
HETATM    1  C1  UNL     1      26.627  42.493  29.332  1.00  0.00     0.272 C 
HETATM    2  N1  UNL     1      27.660  42.250  30.342  1.00  0.00    -0.066 N 
HETATM    3  C2  UNL     1      28.436  41.117  29.905  1.00  0.00     0.272 C 
ENDROOT
BRANCH   2   4
HETATM    4  C3  UNL     1      26.988  42.089  31.591  1.00  0.00     0.237 C 
BRANCH   4   5
HETATM    5  C4  UNL     1      27.053  40.757  32.242  1.00  0.00     0.030 C 
BRANCH   5   6
HETATM    6  C5  UNL     1      25.717  40.183  32.542  1.00  0.00     0.026 C 
BRANCH   6   7
HETATM    7  C6  UNL     1      25.760  39.240  33.755  1.00  0.00     0.080 C 
HETATM    8  C7  UNL     1      26.623  38.071  33.435  1.00  0.00     0.056 C 
HETATM    9  C8  UNL     1      27.231  37.385  34.610  1.00  0.00     0.122 C 
HETATM   10  C9  UNL     1      27.768  38.339  35.654  1.00  0.00     0.067 C 
HETATM   11  C10 UNL     1      26.641  39.289  36.000  1.00  0.00     0.181 C 
HETATM   12  N2  UNL     1      26.185  40.031  34.867  1.00  0.00    -0.404 N 
ATOM     13  H2  UNL     1      26.165  41.051  34.853  1.00  0.00     0.154 HD
BRANCH   9  14
HETATM   14  O1  UNL     1      28.293  36.575  34.154  1.00  0.00    -0.395 OA
ATOM     15  H1  UNL     1      29.043  37.132  33.980  1.00  0.00     0.210 HD
ENDBRANCH   9  14
BRANCH  11  16
HETATM   16  C11 UNL     1      27.166  40.246  37.008  1.00  0.00     0.196 C 
HETATM   17  O2  UNL     1      27.505  41.428  36.684  1.00  0.00    -0.646 OA
HETATM   18  O3  UNL     1      27.313  39.904  38.353  1.00  0.00    -0.646 OA
ENDBRANCH  11  16
ENDBRANCH   6   7
ENDBRANCH   5   6
ENDBRANCH   4   5
ENDBRANCH   2   4
BRANCH   2  19
HETATM   19  C12 UNL     1      28.482  43.465  30.332  1.00  0.00     0.338 C 
BRANCH  19  20
HETATM   20  C13 UNL     1      29.273  43.639  31.563  1.00  0.00     0.243 C 
HETATM   21  O4  UNL     1      30.308  42.961  31.744  1.00  0.00    -0.272 OA
HETATM   22  N3  UNL     1      28.891  44.563  32.564  1.00  0.00    -0.360 N 
ATOM     23  H3  UNL     1      28.046  45.115  32.417  1.00  0.00     0.162 HD
BRANCH  22  24
HETATM   24  C14 UNL     1      29.638  44.764  33.783  1.00  0.00     0.123 C 
BRANCH  24  25
HETATM   25  C15 UNL     1      30.494  45.972  33.655  1.00  0.00     0.029 C 
BRANCH  25  26
HETATM   26  C16 UNL     1      31.222  46.292  34.902  1.00  0.00    -0.034 C 
HETATM   27  C17 UNL     1      30.477  47.205  35.877  1.00  0.00     0.014 C 
HETATM   28  C18 UNL     1      30.897  46.639  37.206  1.00  0.00    -0.013 C 
HETATM   29  C19 UNL     1      32.395  46.778  37.325  1.00  0.00     0.010 C 
HETATM   30  C23 UNL     1      30.793  45.134  36.907  1.00  0.00     0.010 C 
HETATM   31  C20 UNL     1      32.877  45.981  36.119  1.00  0.00    -0.009 C 
HETATM   32  C21 UNL     1      32.646  46.748  34.807  1.00  0.00     0.015 C 
HETATM   33  C22 UNL     1      31.706  45.119  35.705  1.00  0.00    -0.002 C 
ENDBRANCH  25  26
ENDBRANCH  24  25
ENDBRANCH  22  24
ENDBRANCH  19  20
ENDBRANCH   2  19
TORSDOF 11
ENDMDL
