MODEL 1
REMARK VINA RESULT: -9.597309598      0.000      0.000
REMARK  9 active torsions:
REMARK  status: ('A' for Active; 'I' for Inactive)
REMARK    1  A    between atoms: C2_2  and  C3_3 
REMARK    2  A    between atoms: C5_5  and  C6_6 
REMARK    3  A    between atoms: C6_6  and  N1_7 
REMARK       I    between atoms: N1_7  and  C7_9 
REMARK       I    between atoms: C7_9  and  N2_11 
REMARK    4  A    between atoms: N2_11  and  C8_13 
REMARK    5  A    between atoms: C8_13  and  C9_14 
REMARK    6  A    between atoms: C8_13  and  C13_22 
REMARK    7  A    between atoms: C9_14  and  C10_15 
REMARK    8  A    between atoms: C10_15  and  C11_16 
REMARK    9  A    between atoms: C11_16  and  N3_17 
ROOT
HETATM    1  N1  UNL     1      30.938  46.261  33.374  1.00  0.00    -0.342 N 
ATOM      2  H1  UNL     1      30.121  46.854  33.224  1.00  0.00     0.164 HD
HETATM    3  C7  UNL     1      30.754  44.861  33.480  1.00  0.00     0.316 C 
HETATM    4  O1  UNL     1      31.754  44.126  33.665  1.00  0.00    -0.247 OA
HETATM    5  N2  UNL     1      29.473  44.277  33.384  1.00  0.00    -0.330 N 
ATOM      6  H2  UNL     1      28.659  44.873  33.233  1.00  0.00     0.165 HD
ENDROOT
BRANCH   1   7
HETATM    7  C6  UNL     1      32.235  46.880  33.468  1.00  0.00     0.136 C 
BRANCH   7   8
HETATM    8  C5  UNL     1      32.898  46.629  34.780  1.00  0.00     0.074 C 
HETATM    9  C4  UNL     1      32.063  47.163  35.898  1.00  0.00     0.018 C 
HETATM   10  C3  UNL     1      32.567  46.528  37.179  1.00  0.00    -0.014 C 
HETATM   11  C21 UNL     1      33.669  47.259  37.849  1.00  0.00     0.010 C 
HETATM   12  C20 UNL     1      34.380  48.288  37.047  1.00  0.00    -0.003 C 
HETATM   13  C15 UNL     1      35.121  47.756  35.855  1.00  0.00     0.060 C 
HETATM   14  C19 UNL     1      35.440  48.912  37.967  1.00  0.00     0.005 C 
HETATM   15  C14 UNL     1      34.252  47.256  34.787  1.00  0.00     0.137 C 
HETATM   16  C16 UNL     1      36.115  46.684  36.249  1.00  0.00     0.013 C 
HETATM   17  O3  UNL     1      34.724  47.369  33.670  1.00  0.00    -0.297 OA
HETATM   18  C17 UNL     1      37.085  47.143  37.280  1.00  0.00     0.001 C 
HETATM   19  C18 UNL     1      36.453  47.903  38.417  1.00  0.00     0.000 C 
BRANCH  10  20
HETATM   20  C2  UNL     1      31.336  46.387  38.083  1.00  0.00     0.000 C 
HETATM   21  C1  UNL     1      30.064  46.315  37.303  1.00  0.00     0.005 C 
ENDBRANCH  10  20
ENDBRANCH   7   8
ENDBRANCH   1   7
BRANCH   5  22
HETATM   22  C8  UNL     1      29.292  42.819  33.498  1.00  0.00     0.175 C 
BRANCH  22  23
HETATM   23  C9  UNL     1      28.910  42.556  34.918  1.00  0.00     0.036 C 
BRANCH  23  24
HETATM   24  C10 UNL     1      29.995  42.012  35.794  1.00  0.00     0.022 C 
BRANCH  24  25
HETATM   25  C11 UNL     1      29.530  40.737  36.507  1.00  0.00     0.122 C 
BRANCH  25  26
HETATM   26  N3  UNL     1      28.135  40.572  36.153  1.00  0.00    -0.367 N 
HETATM   27  C12 UNL     1      27.234  40.310  37.054  1.00  0.00     0.196 C 
HETATM   28  N4  UNL     1      27.658  40.191  38.408  1.00  0.00    -0.067 NA
HETATM   29  N5  UNL     1      25.884  40.154  36.690  1.00  0.00    -0.067 NA
ATOM     30  H3  UNL     1      27.854  40.662  35.178  1.00  0.00     0.161 HD
ENDBRANCH  25  26
ENDBRANCH  24  25
ENDBRANCH  23  24
ENDBRANCH  22  23
BRANCH  22  31
HETATM   31  C13 UNL     1      28.199  42.449  32.590  1.00  0.00     0.254 C 
HETATM   32  N6  UNL     1      27.153  41.518  32.922  1.00  0.00    -0.060 NA
HETATM   33  O2  UNL     1      28.161  42.976  31.430  1.00  0.00    -0.275 OA
ENDBRANCH  22  31
ENDBRANCH   5  22
TORSDOF 9
ENDMDL
MODEL 2
REMARK VINA RESULT: -9.503395044      3.926     10.081
REMARK  9 active torsions:
REMARK  status: ('A' for Active; 'I' for Inactive)
REMARK    1  A    between atoms: C2_2  and  C3_3 
REMARK    2  A    between atoms: C5_5  and  C6_6 
REMARK    3  A    between atoms: C6_6  and  N1_7 
REMARK       I    between atoms: N1_7  and  C7_9 
REMARK       I    between atoms: C7_9  and  N2_11 
REMARK    4  A    between atoms: N2_11  and  C8_13 
REMARK    5  A    between atoms: C8_13  and  C9_14 
REMARK    6  A    between atoms: C8_13  and  C13_22 
REMARK    7  A    between atoms: C9_14  and  C10_15 
REMARK    8  A    between atoms: C10_15  and  C11_16 
REMARK    9  A    between atoms: C11_16  and  N3_17 
ROOT
HETATM    1  N1  UNL     1      29.014  44.399  31.328  1.00  0.00    -0.342 N 
ATOM      2  H1  UNL     1      28.381  45.197  31.398  1.00  0.00     0.164 HD
HETATM    3  C7  UNL     1      30.008  44.229  32.323  1.00  0.00     0.316 C 
HETATM    4  O1  UNL     1      30.790  43.251  32.243  1.00  0.00    -0.247 OA
HETATM    5  N2  UNL     1      30.136  45.134  33.399  1.00  0.00    -0.330 N 
ATOM      6  H2  UNL     1      29.500  45.929  33.465  1.00  0.00     0.165 HD
ENDROOT
BRANCH   1   7
HETATM    7  C6  UNL     1      28.864  43.489  30.222  1.00  0.00     0.136 C 
BRANCH   7   8
HETATM    8  C5  UNL     1      27.465  42.998  30.067  1.00  0.00     0.074 C 
HETATM    9  C4  UNL     1      27.284  41.700  30.786  1.00  0.00     0.018 C 
HETATM   10  C3  UNL     1      25.793  41.474  30.940  1.00  0.00    -0.014 C 
HETATM   11  C21 UNL     1      25.147  40.768  29.807  1.00  0.00     0.010 C 
HETATM   12  C20 UNL     1      25.916  40.684  28.539  1.00  0.00    -0.003 C 
HETATM   13  C15 UNL     1      26.196  42.005  27.883  1.00  0.00     0.060 C 
HETATM   14  C19 UNL     1      25.053  39.889  27.549  1.00  0.00     0.005 C 
HETATM   15  C14 UNL     1      27.141  42.847  28.619  1.00  0.00     0.137 C 
HETATM   16  C16 UNL     1      24.920  42.778  27.620  1.00  0.00     0.013 C 
HETATM   17  O3  UNL     1      27.806  43.583  27.910  1.00  0.00    -0.297 OA
HETATM   18  C17 UNL     1      23.935  42.013  26.809  1.00  0.00     0.001 C 
HETATM   19  C18 UNL     1      23.758  40.584  27.253  1.00  0.00     0.000 C 
BRANCH  10  20
HETATM   20  C2  UNL     1      25.623  40.718  32.262  1.00  0.00     0.000 C 
HETATM   21  C1  UNL     1      26.336  39.405  32.261  1.00  0.00     0.005 C 
ENDBRANCH  10  20
ENDBRANCH   7   8
ENDBRANCH   1   7
BRANCH   5  22
HETATM   22  C8  UNL     1      31.174  44.949  34.428  1.00  0.00     0.175 C 
BRANCH  22  23
HETATM   23  C9  UNL     1      31.663  46.316  34.777  1.00  0.00     0.036 C 
BRANCH  23  24
HETATM   24  C10 UNL     1      32.726  46.876  33.884  1.00  0.00     0.022 C 
BRANCH  24  25
HETATM   25  C11 UNL     1      33.816  47.574  34.706  1.00  0.00     0.122 C 
BRANCH  25  26
HETATM   26  N3  UNL     1      34.874  46.598  34.870  1.00  0.00    -0.367 N 
HETATM   27  C12 UNL     1      35.403  46.361  36.034  1.00  0.00     0.196 C 
HETATM   28  N4  UNL     1      34.909  47.092  37.153  1.00  0.00    -0.067 NA
HETATM   29  N5  UNL     1      36.429  45.409  36.173  1.00  0.00    -0.067 NA
ATOM     30  H3  UNL     1      35.211  46.086  34.055  1.00  0.00     0.161 HD
ENDBRANCH  25  26
ENDBRANCH  24  25
ENDBRANCH  23  24
ENDBRANCH  22  23
BRANCH  22  31
HETATM   31  C13 UNL     1      30.525  44.320  35.585  1.00  0.00     0.254 C 
HETATM   32  N6  UNL     1      30.723  42.949  35.975  1.00  0.00    -0.060 NA
HETATM   33  O2  UNL     1      29.733  45.018  36.298  1.00  0.00    -0.275 OA
ENDBRANCH  22  31
ENDBRANCH   5  22
TORSDOF 9
ENDMDL
MODEL 3
REMARK VINA RESULT: -9.390764171      4.646     10.347
REMARK  9 active torsions:
REMARK  status: ('A' for Active; 'I' for Inactive)
REMARK    1  A    between atoms: C2_2  and  C3_3 
REMARK    2  A    between atoms: C5_5  and  C6_6 
REMARK    3  A    between atoms: C6_6  and  N1_7 
REMARK       I    between atoms: N1_7  and  C7_9 
REMARK       I    between atoms: C7_9  and  N2_11 
REMARK    4  A    between atoms: N2_11  and  C8_13 
REMARK    5  A    between atoms: C8_13  and  C9_14 
REMARK    6  A    between atoms: C8_13  and  C13_22 
REMARK    7  A    between atoms: C9_14  and  C10_15 
REMARK    8  A    between atoms: C10_15  and  C11_16 
REMARK    9  A    between atoms: C11_16  and  N3_17 
ROOT
HETATM    1  N1  UNL     1      28.482  43.763  31.247  1.00  0.00    -0.342 N 
ATOM      2  H1  UNL     1      28.486  44.535  30.581  1.00  0.00     0.164 HD
HETATM    3  C7  UNL     1      29.176  43.916  32.472  1.00  0.00     0.316 C 
HETATM    4  O1  UNL     1      29.175  42.970  33.297  1.00  0.00    -0.247 OA
HETATM    5  N2  UNL     1      29.866  45.107  32.785  1.00  0.00    -0.330 N 
ATOM      6  H2  UNL     1      29.866  45.878  32.116  1.00  0.00     0.165 HD
ENDROOT
BRANCH   1   7
HETATM    7  C6  UNL     1      27.770  42.558  30.907  1.00  0.00     0.136 C 
BRANCH   7   8
HETATM    8  C5  UNL     1      27.317  42.538  29.487  1.00  0.00     0.074 C 
HETATM    9  C4  UNL     1      26.138  41.635  29.327  1.00  0.00     0.018 C 
HETATM   10  C3  UNL     1      25.489  41.971  27.999  1.00  0.00    -0.014 C 
HETATM   11  C21 UNL     1      26.029  41.231  26.833  1.00  0.00     0.010 C 
HETATM   12  C20 UNL     1      27.331  40.540  27.018  1.00  0.00    -0.003 C 
HETATM   13  C15 UNL     1      28.493  41.450  27.295  1.00  0.00     0.060 C 
HETATM   14  C19 UNL     1      27.649  39.833  25.693  1.00  0.00     0.005 C 
HETATM   15  C14 UNL     1      28.440  42.101  28.607  1.00  0.00     0.137 C 
HETATM   16  C16 UNL     1      28.653  42.496  26.212  1.00  0.00     0.013 C 
HETATM   17  O3  UNL     1      29.534  42.340  29.086  1.00  0.00    -0.297 OA
HETATM   18  C17 UNL     1      28.790  41.906  24.853  1.00  0.00     0.001 C 
HETATM   19  C18 UNL     1      27.803  40.806  24.563  1.00  0.00     0.000 C 
BRANCH  10  20
HETATM   20  C2  UNL     1      23.989  41.721  28.196  1.00  0.00     0.000 C 
HETATM   21  C1  UNL     1      23.166  42.313  27.099  1.00  0.00     0.005 C 
ENDBRANCH  10  20
ENDBRANCH   7   8
ENDBRANCH   1   7
BRANCH   5  22
HETATM   22  C8  UNL     1      30.586  45.256  34.061  1.00  0.00     0.175 C 
BRANCH  22  23
HETATM   23  C9  UNL     1      31.817  46.046  33.756  1.00  0.00     0.036 C 
BRANCH  23  24
HETATM   24  C10 UNL     1      32.554  46.587  34.940  1.00  0.00     0.022 C 
BRANCH  24  25
HETATM   25  C11 UNL     1      33.996  46.946  34.566  1.00  0.00     0.122 C 
BRANCH  25  26
HETATM   26  N3  UNL     1      34.570  47.564  35.743  1.00  0.00    -0.367 N 
HETATM   27  C12 UNL     1      35.448  46.943  36.475  1.00  0.00     0.196 C 
HETATM   28  N4  UNL     1      35.836  45.630  36.083  1.00  0.00    -0.067 NA
HETATM   29  N5  UNL     1      35.994  47.562  37.615  1.00  0.00    -0.067 NA
ATOM     30  H3  UNL     1      34.279  48.505  36.005  1.00  0.00     0.161 HD
ENDBRANCH  25  26
ENDBRANCH  24  25
ENDBRANCH  23  24
ENDBRANCH  22  23
BRANCH  22  31
HETATM   31  C13 UNL     1      29.704  46.001  34.968  1.00  0.00     0.254 C 
HETATM   32  N6  UNL     1      29.585  45.736  36.378  1.00  0.00    -0.060 NA
HETATM   33  O2  UNL     1      28.990  46.944  34.492  1.00  0.00    -0.275 OA
ENDBRANCH  22  31
ENDBRANCH   5  22
TORSDOF 9
ENDMDL
MODEL 4
REMARK VINA RESULT: -8.890081523      3.922     10.064
REMARK  9 active torsions:
REMARK  status: ('A' for Active; 'I' for Inactive)
REMARK    1  A    between atoms: C2_2  and  C3_3 
REMARK    2  A    between atoms: C5_5  and  C6_6 
REMARK    3  A    between atoms: C6_6  and  N1_7 
REMARK       I    between atoms: N1_7  and  C7_9 
REMARK       I    between atoms: C7_9  and  N2_11 
REMARK    4  A    between atoms: N2_11  and  C8_13 
REMARK    5  A    between atoms: C8_13  and  C9_14 
REMARK    6  A    between atoms: C8_13  and  C13_22 
REMARK    7  A    between atoms: C9_14  and  C10_15 
REMARK    8  A    between atoms: C10_15  and  C11_16 
REMARK    9  A    between atoms: C11_16  and  N3_17 
ROOT
HETATM    1  N1  UNL     1      28.882  44.399  31.373  1.00  0.00    -0.342 N 
ATOM      2  H1  UNL     1      28.207  45.161  31.450  1.00  0.00     0.164 HD
HETATM    3  C7  UNL     1      29.879  44.269  32.370  1.00  0.00     0.316 C 
HETATM    4  O1  UNL     1      30.713  43.334  32.280  1.00  0.00    -0.247 OA
HETATM    5  N2  UNL     1      29.956  45.164  33.458  1.00  0.00    -0.330 N 
ATOM      6  H2  UNL     1      29.278  45.923  33.532  1.00  0.00     0.165 HD
ENDROOT
BRANCH   1   7
HETATM    7  C6  UNL     1      28.783  43.497  30.255  1.00  0.00     0.136 C 
BRANCH   7   8
HETATM    8  C5  UNL     1      27.400  42.977  30.054  1.00  0.00     0.074 C 
HETATM    9  C4  UNL     1      27.230  41.664  30.745  1.00  0.00     0.018 C 
HETATM   10  C3  UNL     1      25.741  41.401  30.855  1.00  0.00    -0.014 C 
HETATM   11  C21 UNL     1      25.141  40.702  29.693  1.00  0.00     0.010 C 
HETATM   12  C20 UNL     1      25.946  40.658  28.444  1.00  0.00    -0.003 C 
HETATM   13  C15 UNL     1      26.212  41.996  27.819  1.00  0.00     0.060 C 
HETATM   14  C19 UNL     1      25.127  39.861  27.418  1.00  0.00     0.005 C 
HETATM   15  C14 UNL     1      27.119  42.846  28.595  1.00  0.00     0.137 C 
HETATM   16  C16 UNL     1      24.926  42.745  27.536  1.00  0.00     0.013 C 
HETATM   17  O3  UNL     1      27.785  43.609  27.917  1.00  0.00    -0.297 OA
HETATM   18  C17 UNL     1      23.980  41.973  26.686  1.00  0.00     0.001 C 
HETATM   19  C18 UNL     1      23.824  40.533  27.101  1.00  0.00     0.000 C 
BRANCH  10  20
HETATM   20  C2  UNL     1      25.554  40.618  32.159  1.00  0.00     0.000 C 
HETATM   21  C1  UNL     1      24.113  40.403  32.491  1.00  0.00     0.005 C 
ENDBRANCH  10  20
ENDBRANCH   7   8
ENDBRANCH   1   7
BRANCH   5  22
HETATM   22  C8  UNL     1      30.998  45.021  34.489  1.00  0.00     0.175 C 
BRANCH  22  23
HETATM   23  C9  UNL     1      31.159  46.370  35.110  1.00  0.00     0.036 C 
BRANCH  23  24
HETATM   24  C10 UNL     1      31.920  46.408  36.398  1.00  0.00     0.022 C 
BRANCH  24  25
HETATM   25  C11 UNL     1      33.083  47.403  36.315  1.00  0.00     0.122 C 
BRANCH  25  26
HETATM   26  N3  UNL     1      34.272  46.652  36.661  1.00  0.00    -0.367 N 
HETATM   27  C12 UNL     1      35.126  46.278  35.754  1.00  0.00     0.196 C 
HETATM   28  N4  UNL     1      34.858  46.630  34.400  1.00  0.00    -0.067 NA
HETATM   29  N5  UNL     1      36.275  45.550  36.111  1.00  0.00    -0.067 NA
ATOM     30  H3  UNL     1      34.444  46.412  37.637  1.00  0.00     0.161 HD
ENDBRANCH  25  26
ENDBRANCH  24  25
ENDBRANCH  23  24
ENDBRANCH  22  23
BRANCH  22  31
HETATM   31  C13 UNL     1      30.499  44.053  35.474  1.00  0.00     0.254 C 
HETATM   32  N6  UNL     1      29.434  44.323  36.404  1.00  0.00    -0.060 NA
HETATM   33  O2  UNL     1      31.035  42.897  35.522  1.00  0.00    -0.275 OA
ENDBRANCH  22  31
ENDBRANCH   5  22
TORSDOF 9
ENDMDL
MODEL 5
REMARK VINA RESULT: -8.840106772      3.953     10.020
REMARK  9 active torsions:
REMARK  status: ('A' for Active; 'I' for Inactive)
REMARK    1  A    between atoms: C2_2  and  C3_3 
REMARK    2  A    between atoms: C5_5  and  C6_6 
REMARK    3  A    between atoms: C6_6  and  N1_7 
REMARK       I    between atoms: N1_7  and  C7_9 
REMARK       I    between atoms: C7_9  and  N2_11 
REMARK    4  A    between atoms: N2_11  and  C8_13 
REMARK    5  A    between atoms: C8_13  and  C9_14 
REMARK    6  A    between atoms: C8_13  and  C13_22 
REMARK    7  A    between atoms: C9_14  and  C10_15 
REMARK    8  A    between atoms: C10_15  and  C11_16 
REMARK    9  A    between atoms: C11_16  and  N3_17 
ROOT
HETATM    1  N1  UNL     1      28.815  44.213  31.577  1.00  0.00    -0.342 N 
ATOM      2  H1  UNL     1      27.997  44.808  31.708  1.00  0.00     0.164 HD
HETATM    3  C7  UNL     1      29.769  44.128  32.620  1.00  0.00     0.316 C 
HETATM    4  O1  UNL     1      30.779  43.398  32.465  1.00  0.00    -0.247 OA
HETATM    5  N2  UNL     1      29.610  44.845  33.825  1.00  0.00    -0.330 N 
ATOM      6  H2  UNL     1      28.789  45.438  33.952  1.00  0.00     0.165 HD
ENDROOT
BRANCH   1   7
HETATM    7  C6  UNL     1      28.956  43.490  30.339  1.00  0.00     0.136 C 
BRANCH   7   8
HETATM    8  C5  UNL     1      27.780  42.624  30.041  1.00  0.00     0.074 C 
HETATM    9  C4  UNL     1      28.069  41.204  30.407  1.00  0.00     0.018 C 
HETATM   10  C3  UNL     1      26.742  40.475  30.473  1.00  0.00    -0.014 C 
HETATM   11  C21 UNL     1      26.282  39.896  29.188  1.00  0.00     0.010 C 
HETATM   12  C20 UNL     1      26.953  40.378  27.953  1.00  0.00    -0.003 C 
HETATM   13  C15 UNL     1      26.752  41.836  27.656  1.00  0.00     0.060 C 
HETATM   14  C19 UNL     1      26.324  39.611  26.780  1.00  0.00     0.005 C 
HETATM   15  C14 UNL     1      27.426  42.734  28.596  1.00  0.00     0.137 C 
HETATM   16  C16 UNL     1      25.282  42.191  27.574  1.00  0.00     0.013 C 
HETATM   17  O3  UNL     1      27.773  43.794  28.107  1.00  0.00    -0.297 OA
HETATM   18  C17 UNL     1      24.541  41.368  26.580  1.00  0.00     0.001 C 
HETATM   19  C18 UNL     1      24.859  39.897  26.647  1.00  0.00     0.000 C 
BRANCH  10  20
HETATM   20  C2  UNL     1      26.910  39.407  31.560  1.00  0.00     0.000 C 
HETATM   21  C1  UNL     1      27.165  38.050  30.988  1.00  0.00     0.005 C 
ENDBRANCH  10  20
ENDBRANCH   7   8
ENDBRANCH   1   7
BRANCH   5  22
HETATM   22  C8  UNL     1      30.609  44.751  34.903  1.00  0.00     0.175 C 
BRANCH  22  23
HETATM   23  C9  UNL     1      30.508  46.024  35.678  1.00  0.00     0.036 C 
BRANCH  23  24
HETATM   24  C10 UNL     1      31.586  46.260  36.689  1.00  0.00     0.022 C 
BRANCH  24  25
HETATM   25  C11 UNL     1      32.746  47.050  36.072  1.00  0.00     0.122 C 
BRANCH  25  26
HETATM   26  N3  UNL     1      33.955  46.386  36.512  1.00  0.00    -0.367 N 
HETATM   27  C12 UNL     1      34.966  46.217  35.711  1.00  0.00     0.196 C 
HETATM   28  N4  UNL     1      34.851  46.707  34.378  1.00  0.00    -0.067 NA
HETATM   29  N5  UNL     1      36.133  45.570  36.158  1.00  0.00    -0.067 NA
ATOM     30  H3  UNL     1      34.017  46.044  37.471  1.00  0.00     0.161 HD
ENDBRANCH  25  26
ENDBRANCH  24  25
ENDBRANCH  23  24
ENDBRANCH  22  23
BRANCH  22  31
HETATM   31  C13 UNL     1      30.235  43.604  35.739  1.00  0.00     0.254 C 
HETATM   32  N6  UNL     1      30.789  42.284  35.594  1.00  0.00    -0.060 NA
HETATM   33  O2  UNL     1      29.363  43.771  36.653  1.00  0.00    -0.275 OA
ENDBRANCH  22  31
ENDBRANCH   5  22
TORSDOF 9
ENDMDL
