MODEL 1
REMARK VINA RESULT: -8.320151245      0.000      0.000
REMARK  9 active torsions:
REMARK  status: ('A' for Active; 'I' for Inactive)
REMARK       I    between atoms: C1_4  and  N2_5 
REMARK       I    between atoms: C1_4  and  N4_18 
REMARK    1  A    between atoms: N2_5  and  C2_7 
REMARK    2  A    between atoms: C2_7  and  C3_8 
REMARK    3  A    between atoms: C3_8  and  C4_9 
REMARK    4  A    between atoms: C4_9  and  C5_10 
REMARK    5  A    between atoms: C5_10  and  C6_11 
REMARK    6  A    between atoms: C6_11  and  C7_12 
REMARK    7  A    between atoms: C7_12  and  N3_13 
REMARK    8  A    between atoms: N4_18  and  S1_20 
REMARK    9  A    between atoms: S1_20  and  N5_23 
REMARK       I    between atoms: N5_23  and  C12_25 
REMARK       I    between atoms: C12_25  and  N6_27 
ROOT
HETATM    1  N1  UNL     1      28.944  42.264  28.987  1.00  0.00    -0.234 N 
ATOM      2  H11 UNL     1      29.586  42.262  29.780  1.00  0.00     0.174 HD
ATOM      3  H12 UNL     1      29.265  41.925  28.080  1.00  0.00     0.174 HD
HETATM    4  C1  UNL     1      27.749  42.690  29.124  1.00  0.00     0.682 C 
HETATM    5  N2  UNL     1      26.861  42.693  28.026  1.00  0.00    -0.226 N 
ATOM      6  H2  UNL     1      26.013  43.256  28.102  1.00  0.00     0.177 HD
HETATM    7  N4  UNL     1      27.304  43.159  30.382  1.00  0.00    -0.100 N 
ATOM      8  H4  UNL     1      26.917  44.100  30.458  1.00  0.00     0.199 HD
ENDROOT
BRANCH   5   9
HETATM    9  C2  UNL     1      27.070  41.961  26.816  1.00  0.00     0.138 C 
BRANCH   9  10
HETATM   10  C3  UNL     1      28.229  42.532  25.976  1.00  0.00     0.020 C 
BRANCH  10  11
HETATM   11  C4  UNL     1      29.018  41.454  25.340  1.00  0.00     0.002 C 
BRANCH  11  12
HETATM   12  C5  UNL     1      29.419  41.587  23.948  1.00  0.00     0.002 C 
BRANCH  12  13
HETATM   13  C6  UNL     1      30.341  40.690  23.247  1.00  0.00     0.030 C 
BRANCH  13  14
HETATM   14  C7  UNL     1      30.272  39.265  23.601  1.00  0.00     0.272 C 
BRANCH  14  15
HETATM   15  N3  UNL     1      31.420  38.805  24.372  1.00  0.00     0.088 N 
HETATM   16  C8  UNL     1      31.155  38.621  25.758  1.00  0.00     0.272 C 
HETATM   17  C9  UNL     1      32.446  38.021  26.272  1.00  0.00     0.032 C 
HETATM   18  C10 UNL     1      32.945  37.240  25.087  1.00  0.00     0.032 C 
HETATM   19  C11 UNL     1      32.020  37.607  23.916  1.00  0.00     0.272 C 
ENDBRANCH  14  15
ENDBRANCH  13  14
ENDBRANCH  12  13
ENDBRANCH  11  12
ENDBRANCH  10  11
ENDBRANCH   9  10
ENDBRANCH   5   9
BRANCH   7  20
HETATM   20  S1  UNL     1      27.402  42.181  31.772  1.00  0.00     0.340 S 
HETATM   21  O1  UNL     1      26.024  41.863  32.335  1.00  0.00    -0.182 OA
HETATM   22  O2  UNL     1      28.044  40.854  31.474  1.00  0.00    -0.182 OA
BRANCH  20  23
HETATM   23  N5  UNL     1      28.256  43.031  33.020  1.00  0.00    -0.218 N 
HETATM   24  C12 UNL     1      29.525  43.579  32.774  1.00  0.00     0.333 C 
HETATM   25  O3  UNL     1      30.063  43.475  31.642  1.00  0.00    -0.246 OA
HETATM   26  N6  UNL     1      30.226  44.261  33.797  1.00  0.00    -0.333 N 
HETATM   27  C13 UNL     1      31.540  44.842  33.531  1.00  0.00     0.127 C 
HETATM   28  C17 UNL     1      29.734  44.423  35.147  1.00  0.00     0.127 C 
HETATM   29  C14 UNL     1      31.538  46.276  33.939  1.00  0.00     0.020 C 
HETATM   30  C15 UNL     1      30.893  46.557  35.256  1.00  0.00     0.003 C 
HETATM   31  C16 UNL     1      29.509  45.915  35.360  1.00  0.00     0.020 C 
ATOM     32  H5  UNL     1      27.832  43.135  33.942  1.00  0.00     0.185 HD
ENDBRANCH  20  23
ENDBRANCH   7  20
TORSDOF 9
ENDMDL
MODEL 2
REMARK VINA RESULT: -8.294522221      0.690      1.027
REMARK  9 active torsions:
REMARK  status: ('A' for Active; 'I' for Inactive)
REMARK       I    between atoms: C1_4  and  N2_5 
REMARK       I    between atoms: C1_4  and  N4_18 
REMARK    1  A    between atoms: N2_5  and  C2_7 
REMARK    2  A    between atoms: C2_7  and  C3_8 
REMARK    3  A    between atoms: C3_8  and  C4_9 
REMARK    4  A    between atoms: C4_9  and  C5_10 
REMARK    5  A    between atoms: C5_10  and  C6_11 
REMARK    6  A    between atoms: C6_11  and  C7_12 
REMARK    7  A    between atoms: C7_12  and  N3_13 
REMARK    8  A    between atoms: N4_18  and  S1_20 
REMARK    9  A    between atoms: S1_20  and  N5_23 
REMARK       I    between atoms: N5_23  and  C12_25 
REMARK       I    between atoms: C12_25  and  N6_27 
ROOT
HETATM    1  N1  UNL     1      28.879  43.935  29.307  1.00  0.00    -0.234 N 
ATOM      2  H11 UNL     1      29.138  44.221  30.251  1.00  0.00     0.174 HD
ATOM      3  H12 UNL     1      29.517  44.121  28.532  1.00  0.00     0.174 HD
HETATM    4  C1  UNL     1      27.765  43.351  29.091  1.00  0.00     0.682 C 
HETATM    5  N2  UNL     1      27.406  42.955  27.784  1.00  0.00    -0.226 N 
ATOM      6  H2  UNL     1      26.429  42.721  27.609  1.00  0.00     0.177 HD
HETATM    7  N4  UNL     1      26.881  43.092  30.165  1.00  0.00    -0.100 N 
ATOM      8  H4  UNL     1      25.923  43.440  30.121  1.00  0.00     0.199 HD
ENDROOT
BRANCH   5   9
HETATM    9  C2  UNL     1      28.322  42.860  26.689  1.00  0.00     0.138 C 
BRANCH   9  10
HETATM   10  C3  UNL     1      28.478  41.416  26.177  1.00  0.00     0.020 C 
BRANCH  10  11
HETATM   11  C4  UNL     1      28.262  41.334  24.715  1.00  0.00     0.002 C 
BRANCH  11  12
HETATM   12  C5  UNL     1      29.385  41.543  23.814  1.00  0.00     0.002 C 
BRANCH  12  13
HETATM   13  C6  UNL     1      30.456  40.574  23.564  1.00  0.00     0.030 C 
BRANCH  13  14
HETATM   14  C7  UNL     1      30.086  39.153  23.618  1.00  0.00     0.272 C 
BRANCH  14  15
HETATM   15  N3  UNL     1      30.917  38.374  24.527  1.00  0.00     0.088 N 
HETATM   16  C8  UNL     1      32.093  37.840  23.930  1.00  0.00     0.272 C 
HETATM   17  C9  UNL     1      32.816  37.217  25.105  1.00  0.00     0.032 C 
HETATM   18  C10 UNL     1      32.414  38.105  26.251  1.00  0.00     0.032 C 
HETATM   19  C11 UNL     1      31.334  39.048  25.700  1.00  0.00     0.272 C 
ENDBRANCH  14  15
ENDBRANCH  13  14
ENDBRANCH  12  13
ENDBRANCH  11  12
ENDBRANCH  10  11
ENDBRANCH   9  10
ENDBRANCH   5   9
BRANCH   7  20
HETATM   20  S1  UNL     1      27.388  42.209  31.530  1.00  0.00     0.340 S 
HETATM   21  O1  UNL     1      26.221  41.514  32.217  1.00  0.00    -0.182 OA
HETATM   22  O2  UNL     1      28.357  41.120  31.159  1.00  0.00    -0.182 OA
BRANCH  20  23
HETATM   23  N5  UNL     1      28.071  43.292  32.700  1.00  0.00    -0.218 N 
HETATM   24  C12 UNL     1      29.435  43.622  32.660  1.00  0.00     0.333 C 
HETATM   25  O3  UNL     1      30.187  43.149  31.770  1.00  0.00    -0.246 OA
HETATM   26  N6  UNL     1      29.993  44.496  33.624  1.00  0.00    -0.333 N 
HETATM   27  C13 UNL     1      31.410  44.847  33.569  1.00  0.00     0.127 C 
HETATM   28  C17 UNL     1      29.247  45.081  34.715  1.00  0.00     0.127 C 
HETATM   29  C14 UNL     1      31.553  46.331  33.588  1.00  0.00     0.020 C 
HETATM   30  C15 UNL     1      30.686  47.036  34.579  1.00  0.00     0.003 C 
HETATM   31  C16 UNL     1      29.227  46.586  34.480  1.00  0.00     0.020 C 
ATOM     32  H5  UNL     1      27.475  43.694  33.424  1.00  0.00     0.185 HD
ENDBRANCH  20  23
ENDBRANCH   7  20
TORSDOF 9
ENDMDL
MODEL 3
REMARK VINA RESULT: -8.012229937      1.423      2.431
REMARK  9 active torsions:
REMARK  status: ('A' for Active; 'I' for Inactive)
REMARK       I    between atoms: C1_4  and  N2_5 
REMARK       I    between atoms: C1_4  and  N4_18 
REMARK    1  A    between atoms: N2_5  and  C2_7 
REMARK    2  A    between atoms: C2_7  and  C3_8 
REMARK    3  A    between atoms: C3_8  and  C4_9 
REMARK    4  A    between atoms: C4_9  and  C5_10 
REMARK    5  A    between atoms: C5_10  and  C6_11 
REMARK    6  A    between atoms: C6_11  and  C7_12 
REMARK    7  A    between atoms: C7_12  and  N3_13 
REMARK    8  A    between atoms: N4_18  and  S1_20 
REMARK    9  A    between atoms: S1_20  and  N5_23 
REMARK       I    between atoms: N5_23  and  C12_25 
REMARK       I    between atoms: C12_25  and  N6_27 
ROOT
HETATM    1  N1  UNL     1      28.906  42.524  28.840  1.00  0.00    -0.234 N 
ATOM      2  H11 UNL     1      29.542  42.604  29.634  1.00  0.00     0.174 HD
ATOM      3  H12 UNL     1      29.270  42.241  27.930  1.00  0.00     0.174 HD
HETATM    4  C1  UNL     1      27.663  42.780  28.979  1.00  0.00     0.682 C 
HETATM    5  N2  UNL     1      26.782  42.670  27.881  1.00  0.00    -0.226 N 
ATOM      6  H2  UNL     1      25.865  43.109  27.960  1.00  0.00     0.177 HD
HETATM    7  N4  UNL     1      27.157  43.172  30.241  1.00  0.00    -0.100 N 
ATOM      8  H4  UNL     1      26.644  44.050  30.324  1.00  0.00     0.199 HD
ENDROOT
BRANCH   5   9
HETATM    9  C2  UNL     1      27.091  41.984  26.664  1.00  0.00     0.138 C 
BRANCH   9  10
HETATM   10  C3  UNL     1      26.479  40.571  26.614  1.00  0.00     0.020 C 
BRANCH  10  11
HETATM   11  C4  UNL     1      27.380  39.569  27.224  1.00  0.00     0.002 C 
BRANCH  11  12
HETATM   12  C5  UNL     1      28.756  39.468  26.760  1.00  0.00     0.002 C 
BRANCH  12  13
HETATM   13  C6  UNL     1      29.309  38.342  26.003  1.00  0.00     0.030 C 
BRANCH  13  14
HETATM   14  C7  UNL     1      29.322  38.474  24.539  1.00  0.00     0.272 C 
BRANCH  14  15
HETATM   15  N3  UNL     1      29.243  39.856  24.084  1.00  0.00     0.088 N 
HETATM   16  C8  UNL     1      30.395  40.304  23.377  1.00  0.00     0.272 C 
HETATM   17  C9  UNL     1      29.991  41.686  22.913  1.00  0.00     0.032 C 
HETATM   18  C10 UNL     1      28.505  41.548  22.713  1.00  0.00     0.032 C 
HETATM   19  C11 UNL     1      28.128  40.166  23.269  1.00  0.00     0.272 C 
ENDBRANCH  14  15
ENDBRANCH  13  14
ENDBRANCH  12  13
ENDBRANCH  11  12
ENDBRANCH  10  11
ENDBRANCH   9  10
ENDBRANCH   5   9
BRANCH   7  20
HETATM   20  S1  UNL     1      27.390  42.205  31.623  1.00  0.00     0.340 S 
HETATM   21  O1  UNL     1      26.067  41.742  32.215  1.00  0.00    -0.182 OA
HETATM   22  O2  UNL     1      28.160  40.953  31.302  1.00  0.00    -0.182 OA
BRANCH  20  23
HETATM   23  N5  UNL     1      28.179  43.135  32.856  1.00  0.00    -0.218 N 
HETATM   24  C12 UNL     1      29.442  43.705  32.625  1.00  0.00     0.333 C 
HETATM   25  O3  UNL     1      30.021  43.561  31.517  1.00  0.00    -0.246 OA
HETATM   26  N6  UNL     1      30.090  44.453  33.636  1.00  0.00    -0.333 N 
HETATM   27  C13 UNL     1      31.398  45.055  33.386  1.00  0.00     0.127 C 
HETATM   28  C17 UNL     1      29.549  44.665  34.960  1.00  0.00     0.127 C 
HETATM   29  C14 UNL     1      31.347  46.506  33.724  1.00  0.00     0.020 C 
HETATM   30  C15 UNL     1      30.651  46.831  35.004  1.00  0.00     0.003 C 
HETATM   31  C16 UNL     1      29.280  46.158  35.094  1.00  0.00     0.020 C 
ATOM     32  H5  UNL     1      27.722  43.271  33.757  1.00  0.00     0.185 HD
ENDBRANCH  20  23
ENDBRANCH   7  20
TORSDOF 9
ENDMDL
MODEL 4
REMARK VINA RESULT: -8.009183645      2.967      4.699
REMARK  9 active torsions:
REMARK  status: ('A' for Active; 'I' for Inactive)
REMARK       I    between atoms: C1_4  and  N2_5 
REMARK       I    between atoms: C1_4  and  N4_18 
REMARK    1  A    between atoms: N2_5  and  C2_7 
REMARK    2  A    between atoms: C2_7  and  C3_8 
REMARK    3  A    between atoms: C3_8  and  C4_9 
REMARK    4  A    between atoms: C4_9  and  C5_10 
REMARK    5  A    between atoms: C5_10  and  C6_11 
REMARK    6  A    between atoms: C6_11  and  C7_12 
REMARK    7  A    between atoms: C7_12  and  N3_13 
REMARK    8  A    between atoms: N4_18  and  S1_20 
REMARK    9  A    between atoms: S1_20  and  N5_23 
REMARK       I    between atoms: N5_23  and  C12_25 
REMARK       I    between atoms: C12_25  and  N6_27 
ROOT
HETATM    1  N1  UNL     1      30.009  43.410  31.873  1.00  0.00    -0.234 N 
ATOM      2  H11 UNL     1      30.894  43.881  32.063  1.00  0.00     0.174 HD
ATOM      3  H12 UNL     1      30.009  42.526  31.364  1.00  0.00     0.174 HD
HETATM    4  C1  UNL     1      28.907  43.923  32.263  1.00  0.00     0.682 C 
HETATM    5  N2  UNL     1      27.682  43.271  31.999  1.00  0.00    -0.226 N 
ATOM      6  H2  UNL     1      26.823  43.812  32.101  1.00  0.00     0.177 HD
HETATM    7  N4  UNL     1      28.906  45.148  32.969  1.00  0.00    -0.100 N 
ATOM      8  H4  UNL     1      28.352  45.929  32.617  1.00  0.00     0.199 HD
ENDROOT
BRANCH   5   9
HETATM    9  C2  UNL     1      27.565  41.903  31.597  1.00  0.00     0.138 C 
BRANCH   9  10
HETATM   10  C3  UNL     1      26.895  41.750  30.219  1.00  0.00     0.020 C 
BRANCH  10  11
HETATM   11  C4  UNL     1      27.271  42.855  29.309  1.00  0.00     0.002 C 
BRANCH  11  12
HETATM   12  C5  UNL     1      28.377  42.672  28.382  1.00  0.00     0.002 C 
BRANCH  12  13
HETATM   13  C6  UNL     1      28.241  42.468  26.937  1.00  0.00     0.030 C 
BRANCH  13  14
HETATM   14  C7  UNL     1      28.624  41.146  26.419  1.00  0.00     0.272 C 
BRANCH  14  15
HETATM   15  N3  UNL     1      29.438  41.213  25.212  1.00  0.00     0.088 N 
HETATM   16  C8  UNL     1      29.671  39.952  24.595  1.00  0.00     0.272 C 
HETATM   17  C9  UNL     1      30.401  40.327  23.324  1.00  0.00     0.032 C 
HETATM   18  C10 UNL     1      29.821  41.676  22.993  1.00  0.00     0.032 C 
HETATM   19  C11 UNL     1      28.952  42.072  24.197  1.00  0.00     0.272 C 
ENDBRANCH  14  15
ENDBRANCH  13  14
ENDBRANCH  12  13
ENDBRANCH  11  12
ENDBRANCH  10  11
ENDBRANCH   9  10
ENDBRANCH   5   9
BRANCH   7  20
HETATM   20  S1  UNL     1      29.814  45.343  34.396  1.00  0.00     0.340 S 
HETATM   21  O1  UNL     1      31.309  45.235  34.131  1.00  0.00    -0.182 OA
HETATM   22  O2  UNL     1      29.600  46.700  35.010  1.00  0.00    -0.182 OA
BRANCH  20  23
HETATM   23  N5  UNL     1      29.422  44.074  35.512  1.00  0.00    -0.218 N 
HETATM   24  C12 UNL     1      30.094  42.843  35.460  1.00  0.00     0.333 C 
HETATM   25  O3  UNL     1      31.001  42.638  34.613  1.00  0.00    -0.246 OA
HETATM   26  N6  UNL     1      29.764  41.803  36.363  1.00  0.00    -0.333 N 
HETATM   27  C13 UNL     1      30.476  40.529  36.314  1.00  0.00     0.127 C 
HETATM   28  C17 UNL     1      28.722  41.898  37.361  1.00  0.00     0.127 C 
HETATM   29  C14 UNL     1      30.997  40.202  37.672  1.00  0.00     0.020 C 
HETATM   30  C15 UNL     1      30.032  40.432  38.789  1.00  0.00     0.003 C 
HETATM   31  C16 UNL     1      29.405  41.825  38.721  1.00  0.00     0.020 C 
ATOM     32  H5  UNL     1      28.695  44.224  36.212  1.00  0.00     0.185 HD
ENDBRANCH  20  23
ENDBRANCH   7  20
TORSDOF 9
ENDMDL
MODEL 5
REMARK VINA RESULT: -7.987749801      3.139      9.761
REMARK  9 active torsions:
REMARK  status: ('A' for Active; 'I' for Inactive)
REMARK       I    between atoms: C1_4  and  N2_5 
REMARK       I    between atoms: C1_4  and  N4_18 
REMARK    1  A    between atoms: N2_5  and  C2_7 
REMARK    2  A    between atoms: C2_7  and  C3_8 
REMARK    3  A    between atoms: C3_8  and  C4_9 
REMARK    4  A    between atoms: C4_9  and  C5_10 
REMARK    5  A    between atoms: C5_10  and  C6_11 
REMARK    6  A    between atoms: C6_11  and  C7_12 
REMARK    7  A    between atoms: C7_12  and  N3_13 
REMARK    8  A    between atoms: N4_18  and  S1_20 
REMARK    9  A    between atoms: S1_20  and  N5_23 
REMARK       I    between atoms: N5_23  and  C12_25 
REMARK       I    between atoms: C12_25  and  N6_27 
ROOT
HETATM    1  N1  UNL     1      26.738  41.990  26.368  1.00  0.00    -0.234 N 
ATOM      2  H11 UNL     1      26.269  42.006  25.461  1.00  0.00     0.174 HD
ATOM      3  H12 UNL     1      26.180  41.944  27.221  1.00  0.00     0.174 HD
HETATM    4  C1  UNL     1      28.012  42.033  26.437  1.00  0.00     0.682 C 
HETATM    5  N2  UNL     1      28.660  42.012  27.692  1.00  0.00    -0.226 N 
ATOM      6  H2  UNL     1      29.640  42.291  27.726  1.00  0.00     0.177 HD
HETATM    7  N4  UNL     1      28.784  42.097  25.255  1.00  0.00    -0.100 N 
ATOM      8  H4  UNL     1      29.451  42.860  25.133  1.00  0.00     0.199 HD
ENDROOT
BRANCH   5   9
HETATM    9  C2  UNL     1      28.033  41.626  28.918  1.00  0.00     0.138 C 
BRANCH   9  10
HETATM   10  C3  UNL     1      27.691  42.834  29.810  1.00  0.00     0.020 C 
BRANCH  10  11
HETATM   11  C4  UNL     1      27.377  42.414  31.194  1.00  0.00     0.002 C 
BRANCH  11  12
HETATM   12  C5  UNL     1      28.274  42.789  32.276  1.00  0.00     0.002 C 
BRANCH  12  13
HETATM   13  C6  UNL     1      29.306  43.825  32.194  1.00  0.00     0.030 C 
BRANCH  13  14
HETATM   14  C7  UNL     1      30.337  43.814  33.243  1.00  0.00     0.272 C 
BRANCH  14  15
HETATM   15  N3  UNL     1      30.505  45.103  33.900  1.00  0.00     0.088 N 
HETATM   16  C8  UNL     1      30.218  45.089  35.294  1.00  0.00     0.272 C 
HETATM   17  C9  UNL     1      30.602  46.485  35.733  1.00  0.00     0.032 C 
HETATM   18  C10 UNL     1      31.731  46.829  34.798  1.00  0.00     0.032 C 
HETATM   19  C11 UNL     1      31.782  45.697  33.760  1.00  0.00     0.272 C 
ENDBRANCH  14  15
ENDBRANCH  13  14
ENDBRANCH  12  13
ENDBRANCH  11  12
ENDBRANCH  10  11
ENDBRANCH   9  10
ENDBRANCH   5   9
BRANCH   7  20
HETATM   20  S1  UNL     1      28.621  40.925  24.031  1.00  0.00     0.340 S 
HETATM   21  O1  UNL     1      27.471  39.970  24.316  1.00  0.00    -0.182 OA
HETATM   22  O2  UNL     1      28.316  41.552  22.697  1.00  0.00    -0.182 OA
BRANCH  20  23
HETATM   23  N5  UNL     1      30.058  39.956  23.961  1.00  0.00    -0.218 N 
HETATM   24  C12 UNL     1      30.647  39.463  25.137  1.00  0.00     0.333 C 
HETATM   25  O3  UNL     1      30.139  39.704  26.262  1.00  0.00    -0.246 OA
HETATM   26  N6  UNL     1      31.826  38.683  25.079  1.00  0.00    -0.333 N 
HETATM   27  C13 UNL     1      32.427  38.161  26.304  1.00  0.00     0.127 C 
HETATM   28  C17 UNL     1      32.526  38.360  23.855  1.00  0.00     0.127 C 
HETATM   29  C14 UNL     1      32.629  36.690  26.167  1.00  0.00     0.020 C 
HETATM   30  C15 UNL     1      33.196  36.250  24.858  1.00  0.00     0.003 C 
HETATM   31  C16 UNL     1      32.431  36.850  23.677  1.00  0.00     0.020 C 
ATOM     32  H5  UNL     1      30.479  39.741  23.057  1.00  0.00     0.185 HD
ENDBRANCH  20  23
ENDBRANCH   7  20
TORSDOF 9
ENDMDL
