MODEL 1
REMARK VINA RESULT: -7.333937640      0.000      0.000
REMARK  12 active torsions:
REMARK  status: ('A' for Active; 'I' for Inactive)
REMARK       I    between atoms: C1_2  and  N1_3 
REMARK       I    between atoms: C1_2  and  N3_11 
REMARK    1  A    between atoms: N1_3  and  C2_5 
REMARK    2  A    between atoms: N3_11  and  C5_13 
REMARK    3  A    between atoms: C5_13  and  C6_14 
REMARK    4  A    between atoms: C6_14  and  C7_15 
REMARK    5  A    between atoms: C7_15  and  C8_16 
REMARK    6  A    between atoms: C8_16  and  N4_17 
REMARK    7  A    between atoms: N4_17  and  C9_19 
REMARK    8  A    between atoms: C9_19  and  N5_21 
REMARK    9  A    between atoms: N5_21  and  C10_23 
REMARK   10  A    between atoms: C10_23  and  C11_24 
REMARK   11  A    between atoms: C11_24  and  C12_25 
REMARK   12  A    between atoms: C12_25  and  N6_26 
ROOT
HETATM    1  C8  UNL     1      27.451  41.146  28.456  1.00  0.00     0.122 C 
ENDROOT
BRANCH   1   2
HETATM    2  C7  UNL     1      27.033  42.575  28.678  1.00  0.00     0.021 C 
BRANCH   2   3
HETATM    3  C6  UNL     1      28.269  43.414  28.848  1.00  0.00     0.021 C 
BRANCH   3   4
HETATM    4  C5  UNL     1      28.941  43.043  30.142  1.00  0.00     0.124 C 
BRANCH   4   5
HETATM    5  N3  UNL     1      28.991  44.115  31.079  1.00  0.00    -0.343 N 
HETATM    6  C1  UNL     1      28.852  43.957  32.479  1.00  0.00     0.322 C 
HETATM    7  O1  UNL     1      28.678  42.816  32.950  1.00  0.00    -0.247 OA
HETATM    8  N1  UNL     1      28.906  45.057  33.375  1.00  0.00    -0.289 N 
ATOM      9  H1  UNL     1      28.068  45.448  33.804  1.00  0.00     0.172 HD
ATOM     10  H3  UNL     1      29.137  45.058  30.717  1.00  0.00     0.164 HD
BRANCH   8  11
HETATM   11  C2  UNL     1      30.106  45.540  33.619  1.00  0.00     0.152 A 
HETATM   12  N2  UNL     1      30.610  46.686  33.159  1.00  0.00    -0.346 N 
HETATM   13  C3  UNL     1      31.822  47.015  33.501  1.00  0.00     0.097 A 
ATOM     14  H2  UNL     1      30.057  47.291  32.553  1.00  0.00     0.167 HD
HETATM   15  C4  UNL     1      32.513  46.160  34.318  1.00  0.00     0.070 A 
HETATM   16  S1  UNL     1      31.377  44.907  34.560  1.00  0.00    -0.064 SA
ENDBRANCH   8  11
ENDBRANCH   4   5
ENDBRANCH   3   4
ENDBRANCH   2   3
ENDBRANCH   1   2
BRANCH   1  17
HETATM   17  N4  UNL     1      28.401  41.085  27.368  1.00  0.00    -0.367 N 
ATOM     18  H4  UNL     1      29.397  40.963  27.551  1.00  0.00     0.161 HD
BRANCH  17  19
HETATM   19  C9  UNL     1      27.915  41.199  26.039  1.00  0.00     0.167 C 
HETATM   20  S2  UNL     1      26.714  40.235  25.501  1.00  0.00    -0.041 SA
BRANCH  19  21
HETATM   21  N5  UNL     1      28.463  42.154  25.153  1.00  0.00    -0.367 N 
ATOM     22  H5  UNL     1      28.640  43.108  25.470  1.00  0.00     0.161 HD
BRANCH  21  23
HETATM   23  C10 UNL     1      28.772  41.772  23.801  1.00  0.00     0.123 C 
BRANCH  23  24
HETATM   24  C11 UNL     1      30.116  41.093  23.663  1.00  0.00     0.039 C 
BRANCH  24  25
HETATM   25  C12 UNL     1      29.914  39.649  23.343  1.00  0.00     0.123 C 
BRANCH  25  26
HETATM   26  N6  UNL     1      30.387  38.804  24.411  1.00  0.00    -0.393 N 
HETATM   27  C13 UNL     1      31.141  39.426  25.413  1.00  0.00     0.058 C 
HETATM   28  C14 UNL     1      32.224  38.595  26.051  1.00  0.00     0.044 C 
HETATM   29  C15 UNL     1      31.579  37.236  26.358  1.00  0.00     0.007 C 
HETATM   30  C16 UNL     1      31.294  36.601  25.039  1.00  0.00     0.020 C 
HETATM   31  C17 UNL     1      30.734  37.492  24.001  1.00  0.00     0.122 C 
ENDBRANCH  25  26
ENDBRANCH  24  25
ENDBRANCH  23  24
ENDBRANCH  21  23
ENDBRANCH  19  21
ENDBRANCH  17  19
ENDBRANCH   1  17
TORSDOF 12
ENDMDL
MODEL 2
REMARK VINA RESULT: -7.320135387      1.860      2.727
REMARK  12 active torsions:
REMARK  status: ('A' for Active; 'I' for Inactive)
REMARK       I    between atoms: C1_2  and  N1_3 
REMARK       I    between atoms: C1_2  and  N3_11 
REMARK    1  A    between atoms: N1_3  and  C2_5 
REMARK    2  A    between atoms: N3_11  and  C5_13 
REMARK    3  A    between atoms: C5_13  and  C6_14 
REMARK    4  A    between atoms: C6_14  and  C7_15 
REMARK    5  A    between atoms: C7_15  and  C8_16 
REMARK    6  A    between atoms: C8_16  and  N4_17 
REMARK    7  A    between atoms: N4_17  and  C9_19 
REMARK    8  A    between atoms: C9_19  and  N5_21 
REMARK    9  A    between atoms: N5_21  and  C10_23 
REMARK   10  A    between atoms: C10_23  and  C11_24 
REMARK   11  A    between atoms: C11_24  and  C12_25 
REMARK   12  A    between atoms: C12_25  and  N6_26 
ROOT
HETATM    1  C8  UNL     1      27.945  41.462  26.961  1.00  0.00     0.122 C 
ENDROOT
BRANCH   1   2
HETATM    2  C7  UNL     1      28.307  42.888  27.283  1.00  0.00     0.021 C 
BRANCH   2   3
HETATM    3  C6  UNL     1      27.724  43.238  28.623  1.00  0.00     0.021 C 
BRANCH   3   4
HETATM    4  C5  UNL     1      28.758  42.992  29.688  1.00  0.00     0.124 C 
BRANCH   4   5
HETATM    5  N3  UNL     1      28.806  44.017  30.676  1.00  0.00    -0.343 N 
HETATM    6  C1  UNL     1      28.679  43.789  32.067  1.00  0.00     0.322 C 
HETATM    7  O1  UNL     1      28.517  42.625  32.483  1.00  0.00    -0.247 OA
HETATM    8  N1  UNL     1      28.730  44.844  33.016  1.00  0.00    -0.289 N 
ATOM      9  H1  UNL     1      27.891  45.207  33.469  1.00  0.00     0.172 HD
ATOM     10  H3  UNL     1      28.942  44.978  30.360  1.00  0.00     0.164 HD
BRANCH   8  11
HETATM   11  C2  UNL     1      29.927  45.325  33.275  1.00  0.00     0.152 A 
HETATM   12  N2  UNL     1      30.330  46.586  33.110  1.00  0.00    -0.346 N 
HETATM   13  C3  UNL     1      31.557  46.893  33.419  1.00  0.00     0.097 A 
ATOM     14  H2  UNL     1      29.690  47.294  32.751  1.00  0.00     0.167 HD
HETATM   15  C4  UNL     1      32.366  45.898  33.898  1.00  0.00     0.070 A 
HETATM   16  S1  UNL     1      31.317  44.550  33.883  1.00  0.00    -0.064 SA
ENDBRANCH   8  11
ENDBRANCH   4   5
ENDBRANCH   3   4
ENDBRANCH   2   3
ENDBRANCH   1   2
BRANCH   1  17
HETATM   17  N4  UNL     1      29.143  40.725  26.624  1.00  0.00    -0.367 N 
ATOM     18  H4  UNL     1      29.759  40.369  27.354  1.00  0.00     0.161 HD
BRANCH  17  19
HETATM   19  C9  UNL     1      29.440  40.510  25.253  1.00  0.00     0.167 C 
HETATM   20  S2  UNL     1      28.410  40.999  24.085  1.00  0.00    -0.041 SA
BRANCH  19  21
HETATM   21  N5  UNL     1      30.639  39.866  24.870  1.00  0.00    -0.367 N 
ATOM     22  H5  UNL     1      31.021  40.005  23.934  1.00  0.00     0.161 HD
BRANCH  21  23
HETATM   23  C10 UNL     1      31.318  39.016  25.810  1.00  0.00     0.123 C 
BRANCH  23  24
HETATM   24  C11 UNL     1      32.232  38.007  25.153  1.00  0.00     0.039 C 
BRANCH  24  25
HETATM   25  C12 UNL     1      32.977  37.251  26.203  1.00  0.00     0.123 C 
BRANCH  25  26
HETATM   26  N6  UNL     1      33.093  35.856  25.859  1.00  0.00    -0.393 N 
HETATM   27  C13 UNL     1      34.316  35.445  25.315  1.00  0.00     0.058 C 
HETATM   28  C14 UNL     1      34.260  34.332  24.302  1.00  0.00     0.044 C 
HETATM   29  C15 UNL     1      33.333  33.266  24.906  1.00  0.00     0.007 C 
HETATM   30  C16 UNL     1      31.969  33.867  24.936  1.00  0.00     0.020 C 
HETATM   31  C17 UNL     1      31.893  35.277  25.373  1.00  0.00     0.122 C 
ENDBRANCH  25  26
ENDBRANCH  24  25
ENDBRANCH  23  24
ENDBRANCH  21  23
ENDBRANCH  19  21
ENDBRANCH  17  19
ENDBRANCH   1  17
TORSDOF 12
ENDMDL
MODEL 3
REMARK VINA RESULT: -7.213918115      1.877      2.470
REMARK  12 active torsions:
REMARK  status: ('A' for Active; 'I' for Inactive)
REMARK       I    between atoms: C1_2  and  N1_3 
REMARK       I    between atoms: C1_2  and  N3_11 
REMARK    1  A    between atoms: N1_3  and  C2_5 
REMARK    2  A    between atoms: N3_11  and  C5_13 
REMARK    3  A    between atoms: C5_13  and  C6_14 
REMARK    4  A    between atoms: C6_14  and  C7_15 
REMARK    5  A    between atoms: C7_15  and  C8_16 
REMARK    6  A    between atoms: C8_16  and  N4_17 
REMARK    7  A    between atoms: N4_17  and  C9_19 
REMARK    8  A    between atoms: C9_19  and  N5_21 
REMARK    9  A    between atoms: N5_21  and  C10_23 
REMARK   10  A    between atoms: C10_23  and  C11_24 
REMARK   11  A    between atoms: C11_24  and  C12_25 
REMARK   12  A    between atoms: C12_25  and  N6_26 
ROOT
HETATM    1  C8  UNL     1      27.895  40.369  29.608  1.00  0.00     0.122 C 
ENDROOT
BRANCH   1   2
HETATM    2  C7  UNL     1      26.495  40.528  30.141  1.00  0.00     0.021 C 
BRANCH   2   3
HETATM    3  C6  UNL     1      26.576  40.938  31.584  1.00  0.00     0.021 C 
BRANCH   3   4
HETATM    4  C5  UNL     1      26.787  42.426  31.661  1.00  0.00     0.124 C 
BRANCH   4   5
HETATM    5  N3  UNL     1      27.915  42.797  32.447  1.00  0.00    -0.343 N 
HETATM    6  C1  UNL     1      29.100  43.367  31.923  1.00  0.00     0.322 C 
HETATM    7  O1  UNL     1      29.187  43.574  30.696  1.00  0.00    -0.247 OA
HETATM    8  N1  UNL     1      30.202  43.718  32.747  1.00  0.00    -0.289 N 
ATOM      9  H1  UNL     1      31.047  43.150  32.791  1.00  0.00     0.172 HD
ATOM     10  H3  UNL     1      27.866  42.640  33.455  1.00  0.00     0.164 HD
BRANCH   8  11
HETATM   11  C2  UNL     1      30.064  44.822  33.450  1.00  0.00     0.152 A 
HETATM   12  N2  UNL     1      29.114  45.746  33.300  1.00  0.00    -0.346 N 
HETATM   13  C3  UNL     1      29.125  46.784  34.086  1.00  0.00     0.097 A 
ATOM     14  H2  UNL     1      28.395  45.642  32.585  1.00  0.00     0.167 HD
HETATM   15  C4  UNL     1      30.117  46.865  35.027  1.00  0.00     0.070 A 
HETATM   16  S1  UNL     1      30.999  45.431  34.737  1.00  0.00    -0.064 SA
ENDBRANCH   8  11
ENDBRANCH   4   5
ENDBRANCH   3   4
ENDBRANCH   2   3
ENDBRANCH   1   2
BRANCH   1  17
HETATM   17  N4  UNL     1      28.150  41.389  28.615  1.00  0.00    -0.367 N 
ATOM     18  H4  UNL     1      28.283  42.363  28.889  1.00  0.00     0.161 HD
BRANCH  17  19
HETATM   19  C9  UNL     1      28.212  41.002  27.250  1.00  0.00     0.167 C 
HETATM   20  S2  UNL     1      26.851  40.788  26.377  1.00  0.00    -0.041 SA
BRANCH  19  21
HETATM   21  N5  UNL     1      29.460  40.794  26.619  1.00  0.00    -0.367 N 
ATOM     22  H5  UNL     1      30.258  41.387  26.850  1.00  0.00     0.161 HD
BRANCH  21  23
HETATM   23  C10 UNL     1      29.597  39.741  25.650  1.00  0.00     0.123 C 
BRANCH  23  24
HETATM   24  C11 UNL     1      30.437  38.582  26.140  1.00  0.00     0.039 C 
BRANCH  24  25
HETATM   25  C12 UNL     1      31.880  38.871  25.888  1.00  0.00     0.123 C 
BRANCH  25  26
HETATM   26  N6  UNL     1      32.556  37.720  25.345  1.00  0.00    -0.393 N 
HETATM   27  C13 UNL     1      32.755  37.707  23.959  1.00  0.00     0.058 C 
HETATM   28  C14 UNL     1      32.723  36.359  23.289  1.00  0.00     0.044 C 
HETATM   29  C15 UNL     1      33.591  35.440  24.162  1.00  0.00     0.007 C 
HETATM   30  C16 UNL     1      32.861  35.277  25.452  1.00  0.00     0.020 C 
HETATM   31  C17 UNL     1      32.254  36.505  26.009  1.00  0.00     0.122 C 
ENDBRANCH  25  26
ENDBRANCH  24  25
ENDBRANCH  23  24
ENDBRANCH  21  23
ENDBRANCH  19  21
ENDBRANCH  17  19
ENDBRANCH   1  17
TORSDOF 12
ENDMDL
MODEL 4
REMARK VINA RESULT: -7.180461815      1.855      2.142
REMARK  12 active torsions:
REMARK  status: ('A' for Active; 'I' for Inactive)
REMARK       I    between atoms: C1_2  and  N1_3 
REMARK       I    between atoms: C1_2  and  N3_11 
REMARK    1  A    between atoms: N1_3  and  C2_5 
REMARK    2  A    between atoms: N3_11  and  C5_13 
REMARK    3  A    between atoms: C5_13  and  C6_14 
REMARK    4  A    between atoms: C6_14  and  C7_15 
REMARK    5  A    between atoms: C7_15  and  C8_16 
REMARK    6  A    between atoms: C8_16  and  N4_17 
REMARK    7  A    between atoms: N4_17  and  C9_19 
REMARK    8  A    between atoms: C9_19  and  N5_21 
REMARK    9  A    between atoms: N5_21  and  C10_23 
REMARK   10  A    between atoms: C10_23  and  C11_24 
REMARK   11  A    between atoms: C11_24  and  C12_25 
REMARK   12  A    between atoms: C12_25  and  N6_26 
ROOT
HETATM    1  C8  UNL     1      27.525  40.167  29.976  1.00  0.00     0.122 C 
ENDROOT
BRANCH   1   2
HETATM    2  C7  UNL     1      26.216  40.287  30.711  1.00  0.00     0.021 C 
BRANCH   2   3
HETATM    3  C6  UNL     1      26.455  41.028  31.997  1.00  0.00     0.021 C 
BRANCH   3   4
HETATM    4  C5  UNL     1      26.954  42.412  31.680  1.00  0.00     0.124 C 
BRANCH   4   5
HETATM    5  N3  UNL     1      28.050  42.817  32.495  1.00  0.00    -0.343 N 
HETATM    6  C1  UNL     1      29.229  43.423  31.999  1.00  0.00     0.322 C 
HETATM    7  O1  UNL     1      29.340  43.633  30.775  1.00  0.00    -0.247 OA
HETATM    8  N1  UNL     1      30.299  43.808  32.850  1.00  0.00    -0.289 N 
ATOM      9  H1  UNL     1      31.161  43.266  32.916  1.00  0.00     0.172 HD
ATOM     10  H3  UNL     1      27.981  42.659  33.500  1.00  0.00     0.164 HD
BRANCH   8  11
HETATM   11  C2  UNL     1      30.110  44.907  33.549  1.00  0.00     0.152 A 
HETATM   12  N2  UNL     1      29.137  45.802  33.374  1.00  0.00    -0.346 N 
HETATM   13  C3  UNL     1      29.097  46.839  34.160  1.00  0.00     0.097 A 
ATOM     14  H2  UNL     1      28.440  45.677  32.641  1.00  0.00     0.167 HD
HETATM   15  C4  UNL     1      30.061  46.950  35.126  1.00  0.00     0.070 A 
HETATM   16  S1  UNL     1      30.994  45.544  34.859  1.00  0.00    -0.064 SA
ENDBRANCH   8  11
ENDBRANCH   4   5
ENDBRANCH   3   4
ENDBRANCH   2   3
ENDBRANCH   1   2
BRANCH   1  17
HETATM   17  N4  UNL     1      27.286  40.235  28.552  1.00  0.00    -0.367 N 
ATOM     18  H4  UNL     1      26.682  39.554  28.091  1.00  0.00     0.161 HD
BRANCH  17  19
HETATM   19  C9  UNL     1      27.911  41.271  27.811  1.00  0.00     0.167 C 
HETATM   20  S2  UNL     1      27.379  42.811  27.909  1.00  0.00    -0.041 SA
BRANCH  19  21
HETATM   21  N5  UNL     1      29.013  40.989  26.970  1.00  0.00    -0.367 N 
ATOM     22  H5  UNL     1      29.818  40.479  27.332  1.00  0.00     0.161 HD
BRANCH  21  23
HETATM   23  C10 UNL     1      28.988  41.426  25.600  1.00  0.00     0.123 C 
BRANCH  23  24
HETATM   24  C11 UNL     1      29.729  40.498  24.663  1.00  0.00     0.039 C 
BRANCH  24  25
HETATM   25  C12 UNL     1      29.376  39.083  24.981  1.00  0.00     0.123 C 
BRANCH  25  26
HETATM   26  N6  UNL     1      30.554  38.256  25.062  1.00  0.00    -0.393 N 
HETATM   27  C13 UNL     1      31.008  37.937  26.348  1.00  0.00     0.058 C 
HETATM   28  C14 UNL     1      32.497  37.783  26.513  1.00  0.00     0.044 C 
HETATM   29  C15 UNL     1      32.959  36.910  25.337  1.00  0.00     0.007 C 
HETATM   30  C16 UNL     1      32.764  37.730  24.107  1.00  0.00     0.020 C 
HETATM   31  C17 UNL     1      31.502  38.498  24.036  1.00  0.00     0.122 C 
ENDBRANCH  25  26
ENDBRANCH  24  25
ENDBRANCH  23  24
ENDBRANCH  21  23
ENDBRANCH  19  21
ENDBRANCH  17  19
ENDBRANCH   1  17
TORSDOF 12
ENDMDL
MODEL 5
REMARK VINA RESULT: -7.108982944      2.975      9.770
REMARK  12 active torsions:
REMARK  status: ('A' for Active; 'I' for Inactive)
REMARK       I    between atoms: C1_2  and  N1_3 
REMARK       I    between atoms: C1_2  and  N3_11 
REMARK    1  A    between atoms: N1_3  and  C2_5 
REMARK    2  A    between atoms: N3_11  and  C5_13 
REMARK    3  A    between atoms: C5_13  and  C6_14 
REMARK    4  A    between atoms: C6_14  and  C7_15 
REMARK    5  A    between atoms: C7_15  and  C8_16 
REMARK    6  A    between atoms: C8_16  and  N4_17 
REMARK    7  A    between atoms: N4_17  and  C9_19 
REMARK    8  A    between atoms: C9_19  and  N5_21 
REMARK    9  A    between atoms: N5_21  and  C10_23 
REMARK   10  A    between atoms: C10_23  and  C11_24 
REMARK   11  A    between atoms: C11_24  and  C12_25 
REMARK   12  A    between atoms: C12_25  and  N6_26 
ROOT
HETATM    1  C8  UNL     1      27.405  41.125  28.470  1.00  0.00     0.122 C 
ENDROOT
BRANCH   1   2
HETATM    2  C7  UNL     1      28.342  41.146  27.290  1.00  0.00     0.021 C 
BRANCH   2   3
HETATM    3  C6  UNL     1      28.282  42.508  26.656  1.00  0.00     0.021 C 
BRANCH   3   4
HETATM    4  C5  UNL     1      28.672  42.393  25.207  1.00  0.00     0.124 C 
BRANCH   4   5
HETATM    5  N3  UNL     1      29.010  41.065  24.818  1.00  0.00    -0.343 N 
HETATM    6  C1  UNL     1      29.979  40.745  23.836  1.00  0.00     0.322 C 
HETATM    7  O1  UNL     1      30.594  41.666  23.263  1.00  0.00    -0.247 OA
HETATM    8  N1  UNL     1      30.282  39.405  23.478  1.00  0.00    -0.289 N 
ATOM      9  H1  UNL     1      29.942  38.986  22.613  1.00  0.00     0.172 HD
ATOM     10  H3  UNL     1      28.523  40.295  25.276  1.00  0.00     0.164 HD
BRANCH   8  11
HETATM   11  C2  UNL     1      31.028  38.738  24.332  1.00  0.00     0.152 A 
HETATM   12  N2  UNL     1      31.900  39.254  25.199  1.00  0.00    -0.346 N 
HETATM   13  C3  UNL     1      32.559  38.445  25.977  1.00  0.00     0.097 A 
ATOM     14  H2  UNL     1      32.046  40.262  25.252  1.00  0.00     0.167 HD
HETATM   15  C4  UNL     1      32.316  37.102  25.859  1.00  0.00     0.070 A 
HETATM   16  S1  UNL     1      31.139  37.062  24.622  1.00  0.00    -0.064 SA
ENDBRANCH   8  11
ENDBRANCH   4   5
ENDBRANCH   3   4
ENDBRANCH   2   3
ENDBRANCH   1   2
BRANCH   1  17
HETATM   17  N4  UNL     1      28.168  41.232  29.693  1.00  0.00    -0.367 N 
ATOM     18  H4  UNL     1      29.160  40.995  29.712  1.00  0.00     0.161 HD
BRANCH  17  19
HETATM   19  C9  UNL     1      27.504  41.676  30.866  1.00  0.00     0.167 C 
HETATM   20  S2  UNL     1      26.405  40.731  31.615  1.00  0.00    -0.041 SA
BRANCH  19  21
HETATM   21  N5  UNL     1      27.783  42.951  31.411  1.00  0.00    -0.367 N 
ATOM     22  H5  UNL     1      27.021  43.559  31.712  1.00  0.00     0.161 HD
BRANCH  21  23
HETATM   23  C10 UNL     1      29.148  43.384  31.538  1.00  0.00     0.123 C 
BRANCH  23  24
HETATM   24  C11 UNL     1      29.382  44.285  32.730  1.00  0.00     0.039 C 
BRANCH  24  25
HETATM   25  C12 UNL     1      30.627  43.862  33.436  1.00  0.00     0.123 C 
BRANCH  25  26
HETATM   26  N6  UNL     1      31.012  44.824  34.439  1.00  0.00    -0.393 N 
HETATM   27  C13 UNL     1      30.004  45.259  35.308  1.00  0.00     0.058 C 
HETATM   28  C14 UNL     1      30.106  46.680  35.795  1.00  0.00     0.044 C 
HETATM   29  C15 UNL     1      31.570  46.871  36.218  1.00  0.00     0.007 C 
HETATM   30  C16 UNL     1      32.378  46.805  34.967  1.00  0.00     0.020 C 
HETATM   31  C17 UNL     1      31.996  45.749  34.006  1.00  0.00     0.122 C 
ENDBRANCH  25  26
ENDBRANCH  24  25
ENDBRANCH  23  24
ENDBRANCH  21  23
ENDBRANCH  19  21
ENDBRANCH  17  19
ENDBRANCH   1  17
TORSDOF 12
ENDMDL
