MODEL 1
REMARK VINA RESULT: -8.050365936      0.000      0.000
REMARK  10 active torsions:
REMARK  status: ('A' for Active; 'I' for Inactive)
REMARK    1  A    between atoms: C2_2  and  C3_3 
REMARK    2  A    between atoms: C3_3  and  N1_4 
REMARK       I    between atoms: N1_4  and  C4_6 
REMARK       I    between atoms: C4_6  and  N2_8 
REMARK    3  A    between atoms: C8_17  and  N5_18 
REMARK    4  A    between atoms: N5_18  and  C9_20 
REMARK    5  A    between atoms: C9_20  and  C10_21 
REMARK    6  A    between atoms: C10_21  and  C11_22 
REMARK    7  A    between atoms: C11_22  and  N6_23 
REMARK    8  A    between atoms: N6_23  and  C13_25 
REMARK    9  A    between atoms: C13_25  and  C14_26 
REMARK   10  A    between atoms: C14_26  and  C15_27 
ROOT
HETATM    1  N1  UNL     1      28.962  45.125  33.039  1.00  0.00    -0.343 N 
ATOM      2  H1  UNL     1      28.140  45.644  32.734  1.00  0.00     0.164 HD
HETATM    3  C4  UNL     1      29.546  44.173  32.184  1.00  0.00     0.321 C 
HETATM    4  O1  UNL     1      30.585  43.516  32.587  1.00  0.00    -0.247 OA
HETATM    5  N2  UNL     1      29.024  43.931  30.909  1.00  0.00    -0.293 N 
ATOM      6  H2  UNL     1      29.378  44.529  30.163  1.00  0.00     0.172 HD
HETATM    7  C5  UNL     1      28.164  43.061  30.559  1.00  0.00     0.138 A 
HETATM    8  N3  UNL     1      27.716  42.902  29.269  1.00  0.00    -0.284 N 
ATOM      9  H3  UNL     1      28.027  43.458  28.472  1.00  0.00     0.188 HD
HETATM   10  N4  UNL     1      26.837  41.940  29.207  1.00  0.00    -0.298 N 
ATOM     11  H4  UNL     1      26.360  41.631  28.360  1.00  0.00     0.187 HD
HETATM   12  C6  UNL     1      26.659  41.419  30.434  1.00  0.00     0.067 A 
HETATM   13  C7  UNL     1      25.858  40.408  30.934  1.00  0.00     0.080 A 
HETATM   14  C8  UNL     1      25.859  40.066  32.293  1.00  0.00     0.102 A 
HETATM   15  N7  UNL     1      26.683  40.774  33.085  1.00  0.00    -0.351 N 
ATOM     16  H7  UNL     1      26.708  40.551  34.080  1.00  0.00     0.166 HD
HETATM   17  C19 UNL     1      27.475  41.762  32.633  1.00  0.00     0.107 A 
HETATM   18  C20 UNL     1      27.488  42.114  31.299  1.00  0.00     0.053 A 
ENDROOT
BRANCH  14  19
HETATM   19  N5  UNL     1      25.090  39.118  32.701  1.00  0.00    -0.376 N 
ATOM     20  H5  UNL     1      24.081  39.257  32.749  1.00  0.00     0.161 HD
BRANCH  19  21
HETATM   21  C9  UNL     1      25.673  37.854  33.091  1.00  0.00     0.123 C 
BRANCH  21  22
HETATM   22  C10 UNL     1      25.633  37.670  34.597  1.00  0.00     0.050 C 
BRANCH  22  23
HETATM   23  C11 UNL     1      26.973  37.872  35.231  1.00  0.00     0.273 C 
BRANCH  23  24
HETATM   24  N6  UNL     1      27.068  39.042  36.055  1.00  0.00     0.084 N 
HETATM   25  C12 UNL     1      25.790  39.564  36.340  1.00  0.00     0.309 C 
BRANCH  24  26
HETATM   26  C13 UNL     1      27.979  38.839  37.129  1.00  0.00     0.274 C 
BRANCH  26  27
HETATM   27  C14 UNL     1      29.409  39.121  36.814  1.00  0.00     0.062 C 
BRANCH  27  28
HETATM   28  C15 UNL     1      30.038  40.294  37.453  1.00  0.00     0.123 C 
HETATM   29  C16 UNL     1      29.163  41.352  37.991  1.00  0.00     0.034 C 
HETATM   30  C17 UNL     1      28.991  42.372  36.924  1.00  0.00     0.029 C 
HETATM   31  C18 UNL     1      29.888  41.815  35.812  1.00  0.00     0.168 C 
HETATM   32  O2  UNL     1      30.771  40.965  36.445  1.00  0.00    -0.386 OA
ENDBRANCH  27  28
ENDBRANCH  26  27
ENDBRANCH  24  26
ENDBRANCH  23  24
ENDBRANCH  22  23
ENDBRANCH  21  22
ENDBRANCH  19  21
ENDBRANCH  14  19
BRANCH   1  33
HETATM   33  C3  UNL     1      29.526  45.371  34.355  1.00  0.00     0.124 C 
BRANCH  33  34
HETATM   34  C2  UNL     1      29.731  46.840  34.636  1.00  0.00     0.015 C 
HETATM   35  C1  UNL     1      30.581  46.976  35.905  1.00  0.00     0.006 C 
ENDBRANCH  33  34
ENDBRANCH   1  33
TORSDOF 10
ENDMDL
MODEL 2
REMARK VINA RESULT: -7.883933360      1.075      1.423
REMARK  10 active torsions:
REMARK  status: ('A' for Active; 'I' for Inactive)
REMARK    1  A    between atoms: C2_2  and  C3_3 
REMARK    2  A    between atoms: C3_3  and  N1_4 
REMARK       I    between atoms: N1_4  and  C4_6 
REMARK       I    between atoms: C4_6  and  N2_8 
REMARK    3  A    between atoms: C8_17  and  N5_18 
REMARK    4  A    between atoms: N5_18  and  C9_20 
REMARK    5  A    between atoms: C9_20  and  C10_21 
REMARK    6  A    between atoms: C10_21  and  C11_22 
REMARK    7  A    between atoms: C11_22  and  N6_23 
REMARK    8  A    between atoms: N6_23  and  C13_25 
REMARK    9  A    between atoms: C13_25  and  C14_26 
REMARK   10  A    between atoms: C14_26  and  C15_27 
ROOT
HETATM    1  N1  UNL     1      29.055  45.130  33.119  1.00  0.00    -0.343 N 
ATOM      2  H1  UNL     1      28.222  45.653  32.850  1.00  0.00     0.164 HD
HETATM    3  C4  UNL     1      29.599  44.178  32.238  1.00  0.00     0.321 C 
HETATM    4  O1  UNL     1      30.652  43.517  32.597  1.00  0.00    -0.247 OA
HETATM    5  N2  UNL     1      29.024  43.940  30.985  1.00  0.00    -0.293 N 
ATOM      6  H2  UNL     1      29.349  44.539  30.227  1.00  0.00     0.172 HD
HETATM    7  C5  UNL     1      28.148  43.074  30.670  1.00  0.00     0.138 A 
HETATM    8  N3  UNL     1      27.647  42.919  29.399  1.00  0.00    -0.284 N 
ATOM      9  H3  UNL     1      27.926  43.476  28.592  1.00  0.00     0.188 HD
HETATM   10  N4  UNL     1      26.763  41.959  29.372  1.00  0.00    -0.298 N 
ATOM     11  H4  UNL     1      26.250  41.653  28.545  1.00  0.00     0.187 HD
HETATM   12  C6  UNL     1      26.634  41.437  30.605  1.00  0.00     0.067 A 
HETATM   13  C7  UNL     1      25.852  40.427  31.135  1.00  0.00     0.080 A 
HETATM   14  C8  UNL     1      25.908  40.083  32.493  1.00  0.00     0.102 A 
HETATM   15  N7  UNL     1      26.765  40.786  33.251  1.00  0.00    -0.351 N 
ATOM     16  H7  UNL     1      26.831  40.561  34.243  1.00  0.00     0.166 HD
HETATM   17  C19 UNL     1      27.541  41.773  32.768  1.00  0.00     0.107 A 
HETATM   18  C20 UNL     1      27.501  42.127  31.435  1.00  0.00     0.053 A 
ENDROOT
BRANCH  14  19
HETATM   19  N5  UNL     1      25.153  39.136  32.930  1.00  0.00    -0.376 N 
ATOM     20  H5  UNL     1      24.387  38.781  32.359  1.00  0.00     0.161 HD
BRANCH  19  21
HETATM   21  C9  UNL     1      25.403  38.582  34.241  1.00  0.00     0.123 C 
BRANCH  21  22
HETATM   22  C10 UNL     1      26.255  37.328  34.157  1.00  0.00     0.050 C 
BRANCH  22  23
HETATM   23  C11 UNL     1      27.467  37.403  35.030  1.00  0.00     0.273 C 
BRANCH  23  24
HETATM   24  N6  UNL     1      27.243  37.006  36.390  1.00  0.00     0.084 N 
HETATM   25  C12 UNL     1      27.559  35.645  36.577  1.00  0.00     0.309 C 
BRANCH  24  26
HETATM   26  C13 UNL     1      27.778  37.963  37.296  1.00  0.00     0.274 C 
BRANCH  26  27
HETATM   27  C14 UNL     1      28.350  39.188  36.667  1.00  0.00     0.062 C 
BRANCH  27  28
HETATM   28  C15 UNL     1      27.737  40.488  37.006  1.00  0.00     0.123 C 
HETATM   29  C16 UNL     1      28.355  41.715  36.471  1.00  0.00     0.034 C 
HETATM   30  C17 UNL     1      29.315  42.212  37.491  1.00  0.00     0.029 C 
HETATM   31  C18 UNL     1      29.111  41.204  38.628  1.00  0.00     0.168 C 
HETATM   32  O2  UNL     1      27.868  40.648  38.407  1.00  0.00    -0.386 OA
ENDBRANCH  27  28
ENDBRANCH  26  27
ENDBRANCH  24  26
ENDBRANCH  23  24
ENDBRANCH  22  23
ENDBRANCH  21  22
ENDBRANCH  19  21
ENDBRANCH  14  19
BRANCH   1  33
HETATM   33  C3  UNL     1      29.674  45.372  34.410  1.00  0.00     0.124 C 
BRANCH  33  34
HETATM   34  C2  UNL     1      29.683  46.833  34.788  1.00  0.00     0.015 C 
HETATM   35  C1  UNL     1      30.608  47.015  35.998  1.00  0.00     0.006 C 
ENDBRANCH  33  34
ENDBRANCH   1  33
TORSDOF 10
ENDMDL
MODEL 3
REMARK VINA RESULT: -7.639801807      2.557      4.430
REMARK  10 active torsions:
REMARK  status: ('A' for Active; 'I' for Inactive)
REMARK    1  A    between atoms: C2_2  and  C3_3 
REMARK    2  A    between atoms: C3_3  and  N1_4 
REMARK       I    between atoms: N1_4  and  C4_6 
REMARK       I    between atoms: C4_6  and  N2_8 
REMARK    3  A    between atoms: C8_17  and  N5_18 
REMARK    4  A    between atoms: N5_18  and  C9_20 
REMARK    5  A    between atoms: C9_20  and  C10_21 
REMARK    6  A    between atoms: C10_21  and  C11_22 
REMARK    7  A    between atoms: C11_22  and  N6_23 
REMARK    8  A    between atoms: N6_23  and  C13_25 
REMARK    9  A    between atoms: C13_25  and  C14_26 
REMARK   10  A    between atoms: C14_26  and  C15_27 
ROOT
HETATM    1  N1  UNL     1      28.786  41.917  27.202  1.00  0.00    -0.343 N 
ATOM      2  H1  UNL     1      29.705  41.702  27.586  1.00  0.00     0.164 HD
HETATM    3  C4  UNL     1      27.968  42.872  27.834  1.00  0.00     0.321 C 
HETATM    4  O1  UNL     1      26.801  43.128  27.340  1.00  0.00    -0.247 OA
HETATM    5  N2  UNL     1      28.400  43.546  28.981  1.00  0.00    -0.293 N 
ATOM      6  H2  UNL     1      28.936  44.399  28.819  1.00  0.00     0.172 HD
HETATM    7  C5  UNL     1      28.212  43.233  30.199  1.00  0.00     0.138 A 
HETATM    8  N3  UNL     1      28.680  43.971  31.261  1.00  0.00    -0.284 N 
ATOM      9  H3  UNL     1      29.217  44.835  31.177  1.00  0.00     0.188 HD
HETATM   10  N4  UNL     1      28.341  43.411  32.390  1.00  0.00    -0.298 N 
ATOM     11  H4  UNL     1      28.571  43.769  33.317  1.00  0.00     0.187 HD
HETATM   12  C6  UNL     1      27.642  42.290  32.139  1.00  0.00     0.067 A 
HETATM   13  C7  UNL     1      27.060  41.329  32.946  1.00  0.00     0.080 A 
HETATM   14  C8  UNL     1      26.381  40.226  32.410  1.00  0.00     0.102 A 
HETATM   15  N7  UNL     1      26.325  40.153  31.070  1.00  0.00    -0.351 N 
ATOM     16  H7  UNL     1      25.838  39.363  30.648  1.00  0.00     0.166 HD
HETATM   17  C19 UNL     1      26.878  41.070  30.256  1.00  0.00     0.107 A 
HETATM   18  C20 UNL     1      27.551  42.163  30.763  1.00  0.00     0.053 A 
ENDROOT
BRANCH  14  19
HETATM   19  N5  UNL     1      25.862  39.361  33.211  1.00  0.00    -0.376 N 
ATOM     20  H5  UNL     1      25.190  39.653  33.921  1.00  0.00     0.161 HD
BRANCH  19  21
HETATM   21  C9  UNL     1      26.243  37.972  33.093  1.00  0.00     0.123 C 
BRANCH  21  22
HETATM   22  C10 UNL     1      26.244  37.284  34.446  1.00  0.00     0.050 C 
BRANCH  22  23
HETATM   23  C11 UNL     1      27.621  37.146  35.014  1.00  0.00     0.273 C 
BRANCH  23  24
HETATM   24  N6  UNL     1      27.727  37.493  36.402  1.00  0.00     0.084 N 
HETATM   25  C12 UNL     1      27.522  36.363  37.221  1.00  0.00     0.309 C 
BRANCH  24  26
HETATM   26  C13 UNL     1      28.864  38.312  36.640  1.00  0.00     0.274 C 
BRANCH  26  27
HETATM   27  C14 UNL     1      28.574  39.758  36.865  1.00  0.00     0.062 C 
BRANCH  27  28
HETATM   28  C15 UNL     1      29.689  40.628  37.287  1.00  0.00     0.123 C 
HETATM   29  C16 UNL     1      29.370  41.959  37.834  1.00  0.00     0.034 C 
HETATM   30  C17 UNL     1      29.407  42.925  36.706  1.00  0.00     0.029 C 
HETATM   31  C18 UNL     1      29.834  42.026  35.539  1.00  0.00     0.168 C 
HETATM   32  O2  UNL     1      30.436  40.930  36.123  1.00  0.00    -0.386 OA
ENDBRANCH  27  28
ENDBRANCH  26  27
ENDBRANCH  24  26
ENDBRANCH  23  24
ENDBRANCH  22  23
ENDBRANCH  21  22
ENDBRANCH  19  21
ENDBRANCH  14  19
BRANCH   1  33
HETATM   33  C3  UNL     1      28.324  41.236  26.005  1.00  0.00     0.124 C 
BRANCH  33  34
HETATM   34  C2  UNL     1      28.986  41.751  24.749  1.00  0.00     0.015 C 
HETATM   35  C1  UNL     1      29.969  40.686  24.248  1.00  0.00     0.006 C 
ENDBRANCH  33  34
ENDBRANCH   1  33
TORSDOF 10
ENDMDL
MODEL 4
REMARK VINA RESULT: -7.462372919      6.025      8.397
REMARK  10 active torsions:
REMARK  status: ('A' for Active; 'I' for Inactive)
REMARK    1  A    between atoms: C2_2  and  C3_3 
REMARK    2  A    between atoms: C3_3  and  N1_4 
REMARK       I    between atoms: N1_4  and  C4_6 
REMARK       I    between atoms: C4_6  and  N2_8 
REMARK    3  A    between atoms: C8_17  and  N5_18 
REMARK    4  A    between atoms: N5_18  and  C9_20 
REMARK    5  A    between atoms: C9_20  and  C10_21 
REMARK    6  A    between atoms: C10_21  and  C11_22 
REMARK    7  A    between atoms: C11_22  and  N6_23 
REMARK    8  A    between atoms: N6_23  and  C13_25 
REMARK    9  A    between atoms: C13_25  and  C14_26 
REMARK   10  A    between atoms: C14_26  and  C15_27 
ROOT
HETATM    1  N1  UNL     1      32.904  37.526  24.824  1.00  0.00    -0.343 N 
ATOM      2  H1  UNL     1      33.531  38.318  24.961  1.00  0.00     0.164 HD
HETATM    3  C4  UNL     1      31.764  37.668  24.011  1.00  0.00     0.321 C 
HETATM    4  O1  UNL     1      30.973  36.656  23.852  1.00  0.00    -0.247 OA
HETATM    5  N2  UNL     1      31.479  38.879  23.372  1.00  0.00    -0.293 N 
ATOM      6  H2  UNL     1      31.908  39.009  22.455  1.00  0.00     0.172 HD
HETATM    7  C5  UNL     1      30.754  39.838  23.785  1.00  0.00     0.138 A 
HETATM    8  N3  UNL     1      30.533  40.993  23.073  1.00  0.00    -0.284 N 
ATOM      9  H3  UNL     1      30.923  41.193  22.152  1.00  0.00     0.188 HD
HETATM   10  N4  UNL     1      29.755  41.800  23.742  1.00  0.00    -0.298 N 
ATOM     11  H4  UNL     1      29.446  42.719  23.425  1.00  0.00     0.187 HD
HETATM   12  C6  UNL     1      29.425  41.229  24.915  1.00  0.00     0.067 A 
HETATM   13  C7  UNL     1      28.650  41.634  25.987  1.00  0.00     0.080 A 
HETATM   14  C8  UNL     1      28.476  40.827  27.120  1.00  0.00     0.102 A 
HETATM   15  N7  UNL     1      29.101  39.638  27.107  1.00  0.00    -0.351 N 
ATOM     16  H7  UNL     1      28.995  39.027  27.917  1.00  0.00     0.166 HD
HETATM   17  C19 UNL     1      29.861  39.214  26.082  1.00  0.00     0.107 A 
HETATM   18  C20 UNL     1      30.046  39.992  24.958  1.00  0.00     0.053 A 
ENDROOT
BRANCH  14  19
HETATM   19  N5  UNL     1      27.745  41.258  28.089  1.00  0.00    -0.376 N 
ATOM     20  H5  UNL     1      27.464  40.630  28.842  1.00  0.00     0.161 HD
BRANCH  19  21
HETATM   21  C9  UNL     1      27.328  42.641  28.097  1.00  0.00     0.123 C 
BRANCH  21  22
HETATM   22  C10 UNL     1      27.904  43.384  29.290  1.00  0.00     0.050 C 
BRANCH  22  23
HETATM   23  C11 UNL     1      28.357  42.456  30.373  1.00  0.00     0.273 C 
BRANCH  23  24
HETATM   24  N6  UNL     1      27.594  42.545  31.585  1.00  0.00     0.084 N 
HETATM   25  C12 UNL     1      26.677  41.478  31.682  1.00  0.00     0.309 C 
BRANCH  24  26
HETATM   26  C13 UNL     1      28.433  42.829  32.698  1.00  0.00     0.274 C 
BRANCH  26  27
HETATM   27  C14 UNL     1      29.511  43.829  32.445  1.00  0.00     0.062 C 
BRANCH  27  28
HETATM   28  C15 UNL     1      30.609  43.922  33.428  1.00  0.00     0.123 C 
HETATM   29  C16 UNL     1      30.264  44.060  34.854  1.00  0.00     0.034 C 
HETATM   30  C17 UNL     1      30.230  45.513  35.166  1.00  0.00     0.029 C 
HETATM   31  C18 UNL     1      30.648  46.129  33.826  1.00  0.00     0.168 C 
HETATM   32  O2  UNL     1      31.306  45.123  33.148  1.00  0.00    -0.386 OA
ENDBRANCH  27  28
ENDBRANCH  26  27
ENDBRANCH  24  26
ENDBRANCH  23  24
ENDBRANCH  22  23
ENDBRANCH  21  22
ENDBRANCH  19  21
ENDBRANCH  14  19
BRANCH   1  33
HETATM   33  C3  UNL     1      33.189  36.257  25.469  1.00  0.00     0.124 C 
BRANCH  33  34
HETATM   34  C2  UNL     1      34.354  35.532  24.839  1.00  0.00     0.015 C 
HETATM   35  C1  UNL     1      33.967  34.058  24.660  1.00  0.00     0.006 C 
ENDBRANCH  33  34
ENDBRANCH   1  33
TORSDOF 10
ENDMDL
MODEL 5
REMARK VINA RESULT: -7.304590325      3.120      5.265
REMARK  10 active torsions:
REMARK  status: ('A' for Active; 'I' for Inactive)
REMARK    1  A    between atoms: C2_2  and  C3_3 
REMARK    2  A    between atoms: C3_3  and  N1_4 
REMARK       I    between atoms: N1_4  and  C4_6 
REMARK       I    between atoms: C4_6  and  N2_8 
REMARK    3  A    between atoms: C8_17  and  N5_18 
REMARK    4  A    between atoms: N5_18  and  C9_20 
REMARK    5  A    between atoms: C9_20  and  C10_21 
REMARK    6  A    between atoms: C10_21  and  C11_22 
REMARK    7  A    between atoms: C11_22  and  N6_23 
REMARK    8  A    between atoms: N6_23  and  C13_25 
REMARK    9  A    between atoms: C13_25  and  C14_26 
REMARK   10  A    between atoms: C14_26  and  C15_27 
ROOT
HETATM    1  N1  UNL     1      29.478  39.515  26.945  1.00  0.00    -0.343 N 
ATOM      2  H1  UNL     1      30.369  39.776  27.366  1.00  0.00     0.164 HD
HETATM    3  C4  UNL     1      28.449  40.468  26.835  1.00  0.00     0.321 C 
HETATM    4  O1  UNL     1      27.322  40.120  26.306  1.00  0.00    -0.247 OA
HETATM    5  N2  UNL     1      28.629  41.781  27.285  1.00  0.00    -0.293 N 
ATOM      6  H2  UNL     1      29.035  42.429  26.611  1.00  0.00     0.172 HD
HETATM    7  C5  UNL     1      28.353  42.270  28.426  1.00  0.00     0.138 A 
HETATM    8  N3  UNL     1      28.567  43.584  28.769  1.00  0.00    -0.284 N 
ATOM      9  H3  UNL     1      28.964  44.289  28.148  1.00  0.00     0.188 HD
HETATM   10  N4  UNL     1      28.194  43.801  30.000  1.00  0.00    -0.298 N 
ATOM     11  H4  UNL     1      28.252  44.696  30.485  1.00  0.00     0.187 HD
HETATM   12  C6  UNL     1      27.719  42.658  30.529  1.00  0.00     0.067 A 
HETATM   13  C7  UNL     1      27.210  42.323  31.771  1.00  0.00     0.080 A 
HETATM   14  C8  UNL     1      26.785  41.020  32.069  1.00  0.00     0.102 A 
HETATM   15  N7  UNL     1      26.899  40.116  31.082  1.00  0.00    -0.351 N 
ATOM     16  H7  UNL     1      26.599  39.159  31.266  1.00  0.00     0.166 HD
HETATM   17  C19 UNL     1      27.388  40.408  29.864  1.00  0.00     0.107 A 
HETATM   18  C20 UNL     1      27.812  41.683  29.551  1.00  0.00     0.053 A 
ENDROOT
BRANCH  14  19
HETATM   19  N5  UNL     1      26.323  40.766  33.244  1.00  0.00    -0.376 N 
ATOM     20  H5  UNL     1      25.998  41.523  33.845  1.00  0.00     0.161 HD
BRANCH  19  21
HETATM   21  C9  UNL     1      26.269  39.396  33.700  1.00  0.00     0.123 C 
BRANCH  21  22
HETATM   22  C10 UNL     1      26.922  39.242  35.061  1.00  0.00     0.050 C 
BRANCH  22  23
HETATM   23  C11 UNL     1      27.398  40.548  35.616  1.00  0.00     0.273 C 
BRANCH  23  24
HETATM   24  N6  UNL     1      28.320  40.427  36.708  1.00  0.00     0.084 N 
HETATM   25  C12 UNL     1      28.882  39.134  36.753  1.00  0.00     0.309 C 
BRANCH  24  26
HETATM   26  C13 UNL     1      29.187  41.552  36.772  1.00  0.00     0.274 C 
BRANCH  26  27
HETATM   27  C14 UNL     1      29.433  42.243  35.473  1.00  0.00     0.062 C 
BRANCH  27  28
HETATM   28  C15 UNL     1      30.441  43.321  35.445  1.00  0.00     0.123 C 
HETATM   29  C16 UNL     1      29.973  44.717  35.388  1.00  0.00     0.034 C 
HETATM   30  C17 UNL     1      29.915  45.110  33.956  1.00  0.00     0.029 C 
HETATM   31  C18 UNL     1      30.450  43.849  33.265  1.00  0.00     0.168 C 
HETATM   32  O2  UNL     1      31.162  43.174  34.236  1.00  0.00    -0.386 OA
ENDBRANCH  27  28
ENDBRANCH  26  27
ENDBRANCH  24  26
ENDBRANCH  23  24
ENDBRANCH  22  23
ENDBRANCH  21  22
ENDBRANCH  19  21
ENDBRANCH  14  19
BRANCH   1  33
HETATM   33  C3  UNL     1      29.276  38.161  26.461  1.00  0.00     0.124 C 
BRANCH  33  34
HETATM   34  C2  UNL     1      30.497  37.599  25.774  1.00  0.00     0.015 C 
HETATM   35  C1  UNL     1      31.741  38.059  26.544  1.00  0.00     0.006 C 
ENDBRANCH  33  34
ENDBRANCH   1  33
TORSDOF 10
ENDMDL
