MODEL 1
REMARK VINA RESULT: -8.763759030      0.000      0.000
REMARK  10 active torsions:
REMARK  status: ('A' for Active; 'I' for Inactive)
REMARK    1  A    between atoms: C2_2  and  C3_3 
REMARK    2  A    between atoms: C4_4  and  C5_5 
REMARK    3  A    between atoms: C5_5  and  C6_6 
REMARK    4  A    between atoms: C6_6  and  C7_7 
REMARK    5  A    between atoms: C7_7  and  C8_8 
REMARK    6  A    between atoms: C8_8  and  C9_9 
REMARK    7  A    between atoms: C9_9  and  N1_10 
REMARK    8  A    between atoms: C13_14  and  C14_15 
REMARK    9  A    between atoms: C15_18  and  N3_19 
REMARK   10  A    between atoms: N5_25  and  C17_27 
ROOT
HETATM    1  C14 UNL     1      29.301  40.579  25.864  1.00  0.00     0.148 A 
HETATM    2  N2  UNL     1      29.592  41.044  24.633  1.00  0.00    -0.175 N 
ATOM      3  H2  UNL     1      29.142  41.894  24.293  1.00  0.00     0.186 HD
HETATM    4  C15 UNL     1      30.463  40.400  23.860  1.00  0.00     0.692 A 
HETATM    5  N4  UNL     1      31.051  39.274  24.330  1.00  0.00    -0.023 N 
ATOM      6  H4  UNL     1      31.719  38.784  23.734  1.00  0.00     0.203 HD
HETATM    7  C16 UNL     1      30.790  38.781  25.543  1.00  0.00     0.694 A 
HETATM    8  N5  UNL     1      31.344  37.719  25.983  1.00  0.00    -0.221 N 
ATOM      9  H5  UNL     1      31.113  37.382  26.917  1.00  0.00     0.178 HD
HETATM   10  N7  UNL     1      29.889  39.467  26.312  1.00  0.00    -0.175 N 
ATOM     11  H7  UNL     1      29.662  39.121  27.244  1.00  0.00     0.186 HD
ENDROOT
BRANCH   1  12
HETATM   12  C13 UNL     1      28.345  41.289  26.707  1.00  0.00     0.025 A 
HETATM   13  C12 UNL     1      26.993  41.247  26.318  1.00  0.00     0.018 A 
HETATM   14  C11 UNL     1      26.082  41.915  27.108  1.00  0.00     0.018 A 
HETATM   15  C10 UNL     1      26.488  42.599  28.240  1.00  0.00     0.090 A 
HETATM   16  N1  UNL     1      27.754  42.652  28.623  1.00  0.00    -0.365 N 
HETATM   17  C22 UNL     1      28.670  41.986  27.839  1.00  0.00     0.105 A 
BRANCH  16  18
HETATM   18  C9  UNL     1      28.269  43.355  29.784  1.00  0.00     0.128 C 
BRANCH  18  19
HETATM   19  C8  UNL     1      28.310  42.447  30.972  1.00  0.00     0.020 C 
BRANCH  19  20
HETATM   20  C7  UNL     1      28.472  43.196  32.257  1.00  0.00     0.002 C 
BRANCH  20  21
HETATM   21  C6  UNL     1      29.788  43.922  32.281  1.00  0.00     0.004 C 
BRANCH  21  22
HETATM   22  C5  UNL     1      29.784  44.887  33.453  1.00  0.00     0.027 C 
BRANCH  22  23
HETATM   23  C4  UNL     1      30.925  45.816  33.399  1.00  0.00    -0.031 C 
HETATM   24  C3  UNL     1      31.241  46.689  34.310  1.00  0.00    -0.031 C 
BRANCH  24  25
HETATM   25  C2  UNL     1      30.526  46.921  35.569  1.00  0.00     0.022 C 
HETATM   26  C1  UNL     1      31.477  46.960  36.754  1.00  0.00     0.009 C 
ENDBRANCH  24  25
ENDBRANCH  22  23
ENDBRANCH  21  22
ENDBRANCH  20  21
ENDBRANCH  19  20
ENDBRANCH  18  19
ENDBRANCH  16  18
ENDBRANCH   1  12
BRANCH   4  27
HETATM   27  N3  UNL     1      30.725  40.864  22.689  1.00  0.00    -0.234 N 
ATOM     28  H32 UNL     1      30.209  40.560  21.863  1.00  0.00     0.174 HD
ATOM     29  H31 UNL     1      31.471  41.552  22.580  1.00  0.00     0.174 HD
ENDBRANCH   4  27
BRANCH   8  30
HETATM   30  C17 UNL     1      32.283  36.999  25.187  1.00  0.00     0.102 C 
HETATM   31  C18 UNL     1      33.401  36.392  26.017  1.00  0.00     0.053 C 
HETATM   32  C19 UNL     1      34.320  35.662  25.095  1.00  0.00     0.234 C 
HETATM   33  N6  UNL     1      33.979  35.824  23.701  1.00  0.00    -0.075 N 
HETATM   34  C20 UNL     1      32.625  35.399  23.405  1.00  0.00     0.234 C 
ATOM     35  H62 UNL     1      34.138  36.784  23.394  1.00  0.00     0.277 HD
ATOM     36  H61 UNL     1      34.652  35.346  23.102  1.00  0.00     0.277 HD
HETATM   37  C21 UNL     1      31.649  35.808  24.457  1.00  0.00     0.053 C 
ENDBRANCH   8  30
TORSDOF 10
ENDMDL
MODEL 2
REMARK VINA RESULT: -8.605213542      3.087     10.263
REMARK  10 active torsions:
REMARK  status: ('A' for Active; 'I' for Inactive)
REMARK    1  A    between atoms: C2_2  and  C3_3 
REMARK    2  A    between atoms: C4_4  and  C5_5 
REMARK    3  A    between atoms: C5_5  and  C6_6 
REMARK    4  A    between atoms: C6_6  and  C7_7 
REMARK    5  A    between atoms: C7_7  and  C8_8 
REMARK    6  A    between atoms: C8_8  and  C9_9 
REMARK    7  A    between atoms: C9_9  and  N1_10 
REMARK    8  A    between atoms: C13_14  and  C14_15 
REMARK    9  A    between atoms: C15_18  and  N3_19 
REMARK   10  A    between atoms: N5_25  and  C17_27 
ROOT
HETATM    1  C14 UNL     1      28.131  42.724  31.377  1.00  0.00     0.148 A 
HETATM    2  N2  UNL     1      27.818  42.040  32.496  1.00  0.00    -0.175 N 
ATOM      3  H2  UNL     1      27.228  41.211  32.435  1.00  0.00     0.186 HD
HETATM    4  C15 UNL     1      28.276  42.443  33.680  1.00  0.00     0.692 A 
HETATM    5  N4  UNL     1      29.059  43.546  33.740  1.00  0.00    -0.023 N 
ATOM      6  H4  UNL     1      29.409  43.850  34.648  1.00  0.00     0.203 HD
HETATM    7  C16 UNL     1      29.392  44.251  32.655  1.00  0.00     0.694 A 
HETATM    8  N5  UNL     1      30.130  45.290  32.714  1.00  0.00    -0.221 N 
ATOM      9  H5  UNL     1      30.357  45.794  31.858  1.00  0.00     0.178 HD
HETATM   10  N7  UNL     1      28.904  43.810  31.454  1.00  0.00    -0.175 N 
ATOM     11  H7  UNL     1      29.135  44.321  30.603  1.00  0.00     0.186 HD
ENDROOT
BRANCH   1  12
HETATM   12  C13 UNL     1      27.626  42.278  30.083  1.00  0.00     0.025 A 
HETATM   13  C12 UNL     1      26.526  41.399  30.093  1.00  0.00     0.018 A 
HETATM   14  C11 UNL     1      26.042  40.972  28.875  1.00  0.00     0.018 A 
HETATM   15  C10 UNL     1      26.619  41.395  27.691  1.00  0.00     0.090 A 
HETATM   16  N1  UNL     1      27.655  42.221  27.660  1.00  0.00    -0.365 N 
HETATM   17  C22 UNL     1      28.143  42.652  28.873  1.00  0.00     0.105 A 
BRANCH  16  18
HETATM   18  C9  UNL     1      28.329  42.704  26.469  1.00  0.00     0.128 C 
BRANCH  18  19
HETATM   19  C8  UNL     1      28.686  41.564  25.568  1.00  0.00     0.020 C 
BRANCH  19  20
HETATM   20  C7  UNL     1      29.056  42.019  24.192  1.00  0.00     0.002 C 
BRANCH  20  21
HETATM   21  C6  UNL     1      29.985  41.031  23.543  1.00  0.00     0.004 C 
BRANCH  21  22
HETATM   22  C5  UNL     1      30.357  39.975  24.569  1.00  0.00     0.027 C 
BRANCH  22  23
HETATM   23  C4  UNL     1      31.273  38.968  24.007  1.00  0.00    -0.031 C 
HETATM   24  C3  UNL     1      32.135  38.263  24.679  1.00  0.00    -0.031 C 
BRANCH  24  25
HETATM   25  C2  UNL     1      32.365  38.330  26.126  1.00  0.00     0.022 C 
HETATM   26  C1  UNL     1      33.122  37.112  26.630  1.00  0.00     0.009 C 
ENDBRANCH  24  25
ENDBRANCH  22  23
ENDBRANCH  21  22
ENDBRANCH  20  21
ENDBRANCH  19  20
ENDBRANCH  18  19
ENDBRANCH  16  18
ENDBRANCH   1  12
BRANCH   4  27
HETATM   27  N3  UNL     1      27.964  41.774  34.733  1.00  0.00    -0.234 N 
ATOM     28  H32 UNL     1      27.016  41.774  35.109  1.00  0.00     0.174 HD
ATOM     29  H31 UNL     1      28.685  41.231  35.210  1.00  0.00     0.174 HD
ENDBRANCH   4  27
BRANCH   8  30
HETATM   30  C17 UNL     1      30.642  45.755  33.962  1.00  0.00     0.102 C 
HETATM   31  C18 UNL     1      32.067  46.266  33.849  1.00  0.00     0.053 C 
HETATM   32  C19 UNL     1      32.502  46.729  35.200  1.00  0.00     0.234 C 
HETATM   33  N6  UNL     1      31.531  46.466  36.235  1.00  0.00    -0.075 N 
HETATM   34  C20 UNL     1      30.241  47.065  35.956  1.00  0.00     0.234 C 
ATOM     35  H62 UNL     1      31.441  45.465  36.407  1.00  0.00     0.277 HD
ATOM     36  H61 UNL     1      31.881  46.758  37.148  1.00  0.00     0.277 HD
HETATM   37  C21 UNL     1      29.845  46.940  34.522  1.00  0.00     0.053 C 
ENDBRANCH   8  30
TORSDOF 10
ENDMDL
MODEL 3
REMARK VINA RESULT: -8.399490740      2.708      9.657
REMARK  10 active torsions:
REMARK  status: ('A' for Active; 'I' for Inactive)
REMARK    1  A    between atoms: C2_2  and  C3_3 
REMARK    2  A    between atoms: C4_4  and  C5_5 
REMARK    3  A    between atoms: C5_5  and  C6_6 
REMARK    4  A    between atoms: C6_6  and  C7_7 
REMARK    5  A    between atoms: C7_7  and  C8_8 
REMARK    6  A    between atoms: C8_8  and  C9_9 
REMARK    7  A    between atoms: C9_9  and  N1_10 
REMARK    8  A    between atoms: C13_14  and  C14_15 
REMARK    9  A    between atoms: C15_18  and  N3_19 
REMARK   10  A    between atoms: N5_25  and  C17_27 
ROOT
HETATM    1  C14 UNL     1      27.683  41.819  29.849  1.00  0.00     0.148 A 
HETATM    2  N2  UNL     1      27.025  41.143  30.811  1.00  0.00    -0.175 N 
ATOM      3  H2  UNL     1      26.424  40.358  30.558  1.00  0.00     0.186 HD
HETATM    4  C15 UNL     1      27.156  41.493  32.089  1.00  0.00     0.692 A 
HETATM    5  N4  UNL     1      27.960  42.536  32.404  1.00  0.00    -0.023 N 
ATOM      6  H4  UNL     1      28.059  42.801  33.385  1.00  0.00     0.203 HD
HETATM    7  C16 UNL     1      28.629  43.232  31.482  1.00  0.00     0.694 A 
HETATM    8  N5  UNL     1      29.385  44.215  31.781  1.00  0.00    -0.221 N 
ATOM      9  H5  UNL     1      29.876  44.716  31.040  1.00  0.00     0.178 HD
HETATM   10  N7  UNL     1      28.471  42.847  30.177  1.00  0.00    -0.175 N 
ATOM     11  H7  UNL     1      28.964  43.353  29.443  1.00  0.00     0.186 HD
ENDROOT
BRANCH   1  12
HETATM   12  C13 UNL     1      27.536  41.431  28.450  1.00  0.00     0.025 A 
HETATM   13  C12 UNL     1      26.662  40.363  28.171  1.00  0.00     0.018 A 
HETATM   14  C11 UNL     1      26.515  39.989  26.852  1.00  0.00     0.018 A 
HETATM   15  C10 UNL     1      27.204  40.642  25.847  1.00  0.00     0.090 A 
HETATM   16  N1  UNL     1      28.031  41.647  26.088  1.00  0.00    -0.365 N 
HETATM   17  C22 UNL     1      28.182  42.027  27.403  1.00  0.00     0.105 A 
BRANCH  16  18
HETATM   18  C9  UNL     1      28.802  42.378  25.098  1.00  0.00     0.128 C 
BRANCH  18  19
HETATM   19  C8  UNL     1      28.688  41.726  23.757  1.00  0.00     0.020 C 
BRANCH  19  20
HETATM   20  C7  UNL     1      29.989  41.154  23.289  1.00  0.00     0.002 C 
BRANCH  20  21
HETATM   21  C6  UNL     1      30.049  39.680  23.575  1.00  0.00     0.004 C 
BRANCH  21  22
HETATM   22  C5  UNL     1      31.135  39.434  24.607  1.00  0.00     0.027 C 
BRANCH  22  23
HETATM   23  C4  UNL     1      30.572  39.003  25.898  1.00  0.00    -0.031 C 
HETATM   24  C3  UNL     1      30.859  37.900  26.524  1.00  0.00    -0.031 C 
BRANCH  24  25
HETATM   25  C2  UNL     1      31.797  36.868  26.071  1.00  0.00     0.022 C 
HETATM   26  C1  UNL     1      33.162  37.027  26.719  1.00  0.00     0.009 C 
ENDBRANCH  24  25
ENDBRANCH  22  23
ENDBRANCH  21  22
ENDBRANCH  20  21
ENDBRANCH  19  20
ENDBRANCH  18  19
ENDBRANCH  16  18
ENDBRANCH   1  12
BRANCH   4  27
HETATM   27  N3  UNL     1      26.519  40.832  32.990  1.00  0.00    -0.234 N 
ATOM     28  H32 UNL     1      26.262  39.854  32.857  1.00  0.00     0.174 HD
ATOM     29  H31 UNL     1      26.260  41.297  33.860  1.00  0.00     0.174 HD
ENDBRANCH   4  27
BRANCH   8  30
HETATM   30  C17 UNL     1      29.553  44.623  33.137  1.00  0.00     0.102 C 
HETATM   31  C18 UNL     1      30.946  44.322  33.664  1.00  0.00     0.053 C 
HETATM   32  C19 UNL     1      31.017  44.789  35.080  1.00  0.00     0.234 C 
HETATM   33  N6  UNL     1      29.755  45.273  35.587  1.00  0.00    -0.075 N 
HETATM   34  C20 UNL     1      29.212  46.356  34.791  1.00  0.00     0.234 C 
ATOM     35  H62 UNL     1      29.081  44.512  35.680  1.00  0.00     0.277 HD
ATOM     36  H61 UNL     1      29.833  45.543  36.568  1.00  0.00     0.277 HD
HETATM   37  C21 UNL     1      29.384  46.137  33.324  1.00  0.00     0.053 C 
ENDBRANCH   8  30
TORSDOF 10
ENDMDL
MODEL 4
REMARK VINA RESULT: -8.332522845      6.175      8.868
REMARK  10 active torsions:
REMARK  status: ('A' for Active; 'I' for Inactive)
REMARK    1  A    between atoms: C2_2  and  C3_3 
REMARK    2  A    between atoms: C4_4  and  C5_5 
REMARK    3  A    between atoms: C5_5  and  C6_6 
REMARK    4  A    between atoms: C6_6  and  C7_7 
REMARK    5  A    between atoms: C7_7  and  C8_8 
REMARK    6  A    between atoms: C8_8  and  C9_9 
REMARK    7  A    between atoms: C9_9  and  N1_10 
REMARK    8  A    between atoms: C13_14  and  C14_15 
REMARK    9  A    between atoms: C15_18  and  N3_19 
REMARK   10  A    between atoms: N5_25  and  C17_27 
ROOT
HETATM    1  C14 UNL     1      27.207  41.777  31.709  1.00  0.00     0.148 A 
HETATM    2  N2  UNL     1      27.431  42.332  30.502  1.00  0.00    -0.175 N 
ATOM      3  H2  UNL     1      26.975  41.947  29.674  1.00  0.00     0.186 HD
HETATM    4  C15 UNL     1      28.243  43.380  30.384  1.00  0.00     0.692 A 
HETATM    5  N4  UNL     1      28.838  43.877  31.495  1.00  0.00    -0.023 N 
ATOM      6  H4  UNL     1      29.459  44.681  31.401  1.00  0.00     0.203 HD
HETATM    7  C16 UNL     1      28.643  43.356  32.709  1.00  0.00     0.694 A 
HETATM    8  N5  UNL     1      29.204  43.825  33.754  1.00  0.00    -0.221 N 
ATOM      9  H5  UNL     1      29.023  43.393  34.659  1.00  0.00     0.178 HD
HETATM   10  N7  UNL     1      27.802  42.278  32.794  1.00  0.00    -0.175 N 
ATOM     11  H7  UNL     1      27.628  41.851  33.703  1.00  0.00     0.186 HD
ENDROOT
BRANCH   1  12
HETATM   12  C13 UNL     1      26.315  40.628  31.831  1.00  0.00     0.025 A 
HETATM   13  C12 UNL     1      25.609  40.240  30.677  1.00  0.00     0.018 A 
HETATM   14  C11 UNL     1      24.764  39.155  30.783  1.00  0.00     0.018 A 
HETATM   15  C10 UNL     1      24.621  38.478  31.980  1.00  0.00     0.090 A 
HETATM   16  N1  UNL     1      25.275  38.828  33.077  1.00  0.00    -0.365 N 
HETATM   17  C22 UNL     1      26.122  39.910  32.979  1.00  0.00     0.105 A 
BRANCH  16  18
HETATM   18  C9  UNL     1      25.176  38.185  34.375  1.00  0.00     0.128 C 
BRANCH  18  19
HETATM   19  C8  UNL     1      26.425  38.404  35.168  1.00  0.00     0.020 C 
BRANCH  19  20
HETATM   20  C7  UNL     1      26.140  38.827  36.574  1.00  0.00     0.002 C 
BRANCH  20  21
HETATM   21  C6  UNL     1      27.415  38.913  37.366  1.00  0.00     0.004 C 
BRANCH  21  22
HETATM   22  C5  UNL     1      28.585  38.713  36.418  1.00  0.00     0.027 C 
BRANCH  22  23
HETATM   23  C4  UNL     1      29.865  39.077  37.048  1.00  0.00    -0.031 C 
HETATM   24  C3  UNL     1      30.462  40.229  36.950  1.00  0.00    -0.031 C 
BRANCH  24  25
HETATM   25  C2  UNL     1      29.981  41.391  36.196  1.00  0.00     0.022 C 
HETATM   26  C1  UNL     1      29.288  42.397  37.099  1.00  0.00     0.009 C 
ENDBRANCH  24  25
ENDBRANCH  22  23
ENDBRANCH  21  22
ENDBRANCH  20  21
ENDBRANCH  19  20
ENDBRANCH  18  19
ENDBRANCH  16  18
ENDBRANCH   1  12
BRANCH   4  27
HETATM   27  N3  UNL     1      28.441  43.894  29.222  1.00  0.00    -0.234 N 
ATOM     28  H32 UNL     1      28.729  43.326  28.425  1.00  0.00     0.174 HD
ATOM     29  H31 UNL     1      28.310  44.897  29.091  1.00  0.00     0.174 HD
ENDBRANCH   4  27
BRANCH   8  30
HETATM   30  C17 UNL     1      30.081  44.947  33.672  1.00  0.00     0.102 C 
HETATM   31  C18 UNL     1      29.425  46.232  34.147  1.00  0.00     0.053 C 
HETATM   32  C19 UNL     1      30.423  47.335  34.026  1.00  0.00     0.234 C 
HETATM   33  N6  UNL     1      31.657  46.924  33.400  1.00  0.00    -0.075 N 
HETATM   34  C20 UNL     1      32.296  45.824  34.095  1.00  0.00     0.234 C 
ATOM     35  H62 UNL     1      31.512  46.701  32.415  1.00  0.00     0.277 HD
ATOM     36  H61 UNL     1      32.296  47.713  33.297  1.00  0.00     0.277 HD
HETATM   37  C21 UNL     1      31.323  44.792  34.560  1.00  0.00     0.053 C 
ENDBRANCH   8  30
TORSDOF 10
ENDMDL
MODEL 5
REMARK VINA RESULT: -8.313997044      3.137      9.932
REMARK  10 active torsions:
REMARK  status: ('A' for Active; 'I' for Inactive)
REMARK    1  A    between atoms: C2_2  and  C3_3 
REMARK    2  A    between atoms: C4_4  and  C5_5 
REMARK    3  A    between atoms: C5_5  and  C6_6 
REMARK    4  A    between atoms: C6_6  and  C7_7 
REMARK    5  A    between atoms: C7_7  and  C8_8 
REMARK    6  A    between atoms: C8_8  and  C9_9 
REMARK    7  A    between atoms: C9_9  and  N1_10 
REMARK    8  A    between atoms: C13_14  and  C14_15 
REMARK    9  A    between atoms: C15_18  and  N3_19 
REMARK   10  A    between atoms: N5_25  and  C17_27 
ROOT
HETATM    1  C14 UNL     1      27.904  42.485  30.827  1.00  0.00     0.148 A 
HETATM    2  N2  UNL     1      27.509  41.773  31.900  1.00  0.00    -0.175 N 
ATOM      3  H2  UNL     1      26.907  40.959  31.775  1.00  0.00     0.186 HD
HETATM    4  C15 UNL     1      27.900  42.127  33.123  1.00  0.00     0.692 A 
HETATM    5  N4  UNL     1      28.700  43.210  33.268  1.00  0.00    -0.023 N 
ATOM      6  H4  UNL     1      28.998  43.477  34.207  1.00  0.00     0.203 HD
HETATM    7  C16 UNL     1      29.113  43.942  32.231  1.00  0.00     0.694 A 
HETATM    8  N5  UNL     1      29.866  44.962  32.370  1.00  0.00    -0.221 N 
ATOM      9  H5  UNL     1      30.156  45.489  31.547  1.00  0.00     0.178 HD
HETATM   10  N7  UNL     1      28.692  43.552  30.988  1.00  0.00    -0.175 N 
ATOM     11  H7  UNL     1      28.985  44.085  30.170  1.00  0.00     0.186 HD
ENDROOT
BRANCH   1  12
HETATM   12  C13 UNL     1      27.472  42.093  29.489  1.00  0.00     0.025 A 
HETATM   13  C12 UNL     1      26.258  41.388  29.390  1.00  0.00     0.018 A 
HETATM   14  C11 UNL     1      25.841  41.013  28.130  1.00  0.00     0.018 A 
HETATM   15  C10 UNL     1      26.593  41.321  27.011  1.00  0.00     0.090 A 
HETATM   16  N1  UNL     1      27.738  41.982  27.083  1.00  0.00    -0.365 N 
HETATM   17  C22 UNL     1      28.160  42.361  28.338  1.00  0.00     0.105 A 
BRANCH  16  18
HETATM   18  C9  UNL     1      28.595  42.335  25.965  1.00  0.00     0.128 C 
BRANCH  18  19
HETATM   19  C8  UNL     1      28.427  41.357  24.846  1.00  0.00     0.020 C 
BRANCH  19  20
HETATM   20  C7  UNL     1      29.129  41.792  23.599  1.00  0.00     0.002 C 
BRANCH  20  21
HETATM   21  C6  UNL     1      30.335  40.932  23.346  1.00  0.00     0.004 C 
BRANCH  21  22
HETATM   22  C5  UNL     1      30.124  39.594  24.031  1.00  0.00     0.027 C 
BRANCH  22  23
HETATM   23  C4  UNL     1      31.153  39.336  25.052  1.00  0.00    -0.031 C 
HETATM   24  C3  UNL     1      31.040  38.519  26.058  1.00  0.00    -0.031 C 
BRANCH  24  25
HETATM   25  C2  UNL     1      29.870  37.693  26.374  1.00  0.00     0.022 C 
HETATM   26  C1  UNL     1      28.878  38.439  27.251  1.00  0.00     0.009 C 
ENDBRANCH  24  25
ENDBRANCH  22  23
ENDBRANCH  21  22
ENDBRANCH  20  21
ENDBRANCH  19  20
ENDBRANCH  18  19
ENDBRANCH  16  18
ENDBRANCH   1  12
BRANCH   4  27
HETATM   27  N3  UNL     1      27.510  41.431  34.132  1.00  0.00    -0.234 N 
ATOM     28  H32 UNL     1      27.031  41.857  34.925  1.00  0.00     0.174 HD
ATOM     29  H31 UNL     1      27.687  40.426  34.143  1.00  0.00     0.174 HD
ENDBRANCH   4  27
BRANCH   8  30
HETATM   30  C17 UNL     1      30.308  45.376  33.662  1.00  0.00     0.102 C 
HETATM   31  C18 UNL     1      31.779  45.755  33.678  1.00  0.00     0.053 C 
HETATM   32  C19 UNL     1      32.135  46.173  35.065  1.00  0.00     0.234 C 
HETATM   33  N6  UNL     1      31.059  45.996  36.011  1.00  0.00    -0.075 N 
HETATM   34  C20 UNL     1      29.857  46.712  35.628  1.00  0.00     0.234 C 
ATOM     35  H62 UNL     1      30.864  45.007  36.164  1.00  0.00     0.277 HD
ATOM     36  H61 UNL     1      31.353  46.253  36.953  1.00  0.00     0.277 HD
HETATM   37  C21 UNL     1      29.577  46.628  34.164  1.00  0.00     0.053 C 
ENDBRANCH   8  30
TORSDOF 10
ENDMDL
