MODEL 1
REMARK VINA RESULT: -3.606144725      0.000      0.000
REMARK  4 active torsions:
REMARK  status: ('A' for Active; 'I' for Inactive)
REMARK    1  A    between atoms: N1_1  and  N2_4 
REMARK    2  A    between atoms: N2_4  and  C1_5 
REMARK    3  A    between atoms: C1_5  and  C2_6 
REMARK    4  A    between atoms: C2_6  and  C3_7 
ROOT
HETATM    1  C2  UNL     1      74.550  11.821  14.302  1.00  0.00     0.096 C 
ENDROOT
BRANCH   1   2
HETATM    2  C1  UNL     1      73.599  12.562  15.139  1.00  0.00     0.183 C 
BRANCH   2   3
HETATM    3  N2  UNL     1      73.793  13.682  15.622  1.00  0.00    -0.350 NA
BRANCH   3   4
HETATM    4  N1  UNL     1      74.011  14.738  16.189  1.00  0.00    -0.281 N 
ATOM      5  H12 UNL     1      74.556  14.103  16.771  1.00  0.00     0.191 HD
ATOM      6  H11 UNL     1      74.140  15.661  16.604  1.00  0.00     0.191 HD
ENDBRANCH   3   4
ENDBRANCH   2   3
ENDBRANCH   1   2
BRANCH   1   7
HETATM    7  C3  UNL     1      74.514  12.218  12.856  1.00  0.00     0.217 A 
HETATM    8  C4  UNL     1      75.818  12.833  12.364  1.00  0.00     0.266 A 
HETATM    9  N3  UNL     1      74.556  13.600  12.472  1.00  0.00    -0.067 N 
ATOM     10  H32 UNL     1      74.018  14.159  11.811  1.00  0.00     0.277 HD
ATOM     11  H31 UNL     1      74.302  14.466  12.947  1.00  0.00     0.277 HD
ENDBRANCH   1   7
TORSDOF 4
ENDMDL
MODEL 2
REMARK VINA RESULT: -3.526400742      1.355      3.548
REMARK  4 active torsions:
REMARK  status: ('A' for Active; 'I' for Inactive)
REMARK    1  A    between atoms: N1_1  and  N2_4 
REMARK    2  A    between atoms: N2_4  and  C1_5 
REMARK    3  A    between atoms: C1_5  and  C2_6 
REMARK    4  A    between atoms: C2_6  and  C3_7 
ROOT
HETATM    1  C2  UNL     1      73.453  12.308  15.712  1.00  0.00     0.096 C 
ENDROOT
BRANCH   1   2
HETATM    2  C1  UNL     1      74.242  12.061  14.499  1.00  0.00     0.183 C 
BRANCH   2   3
HETATM    3  N2  UNL     1      74.362  12.847  13.554  1.00  0.00    -0.350 NA
BRANCH   3   4
HETATM    4  N1  UNL     1      74.520  13.540  12.565  1.00  0.00    -0.281 N 
ATOM      5  H12 UNL     1      75.298  12.891  12.457  1.00  0.00     0.191 HD
ATOM      6  H11 UNL     1      74.580  14.167  11.762  1.00  0.00     0.191 HD
ENDBRANCH   3   4
ENDBRANCH   2   3
ENDBRANCH   1   2
BRANCH   1   7
HETATM    7  C3  UNL     1      74.032  13.370  16.600  1.00  0.00     0.217 A 
HETATM    8  C4  UNL     1      72.999  14.371  17.100  1.00  0.00     0.266 A 
HETATM    9  N3  UNL     1      74.089  14.737  16.168  1.00  0.00    -0.067 N 
ATOM     10  H32 UNL     1      74.820  15.448  16.190  1.00  0.00     0.277 HD
ATOM     11  H31 UNL     1      74.105  15.180  15.250  1.00  0.00     0.277 HD
ENDBRANCH   1   7
TORSDOF 4
ENDMDL
MODEL 3
REMARK VINA RESULT: -3.465317266      2.971      3.929
REMARK  4 active torsions:
REMARK  status: ('A' for Active; 'I' for Inactive)
REMARK    1  A    between atoms: N1_1  and  N2_4 
REMARK    2  A    between atoms: N2_4  and  C1_5 
REMARK    3  A    between atoms: C1_5  and  C2_6 
REMARK    4  A    between atoms: C2_6  and  C3_7 
ROOT
HETATM    1  C2  UNL     1      71.603  14.278  16.328  1.00  0.00     0.096 C 
ENDROOT
BRANCH   1   2
HETATM    2  C1  UNL     1      71.401  15.630  15.793  1.00  0.00     0.183 C 
BRANCH   2   3
HETATM    3  N2  UNL     1      72.186  16.574  15.924  1.00  0.00    -0.350 NA
BRANCH   3   4
HETATM    4  N1  UNL     1      72.920  17.521  16.150  1.00  0.00    -0.281 N 
ATOM      5  H12 UNL     1      73.320  16.825  16.779  1.00  0.00     0.191 HD
ATOM      6  H11 UNL     1      73.486  18.359  16.279  1.00  0.00     0.191 HD
ENDBRANCH   3   4
ENDBRANCH   2   3
ENDBRANCH   1   2
BRANCH   1   7
HETATM    7  C3  UNL     1      72.886  13.641  15.883  1.00  0.00     0.217 A 
HETATM    8  C4  UNL     1      73.721  13.091  17.033  1.00  0.00     0.266 A 
HETATM    9  N3  UNL     1      74.152  14.238  16.201  1.00  0.00    -0.067 N 
ATOM     10  H32 UNL     1      74.991  14.430  15.655  1.00  0.00     0.277 HD
ATOM     11  H31 UNL     1      74.440  15.191  16.419  1.00  0.00     0.277 HD
ENDBRANCH   1   7
TORSDOF 4
ENDMDL
MODEL 4
REMARK VINA RESULT: -3.462442069      2.718      3.985
REMARK  4 active torsions:
REMARK  status: ('A' for Active; 'I' for Inactive)
REMARK    1  A    between atoms: N1_1  and  N2_4 
REMARK    2  A    between atoms: N2_4  and  C1_5 
REMARK    3  A    between atoms: C1_5  and  C2_6 
REMARK    4  A    between atoms: C2_6  and  C3_7 
ROOT
HETATM    1  C2  UNL     1      73.562  13.342  17.298  1.00  0.00     0.096 C 
ENDROOT
BRANCH   1   2
HETATM    2  C1  UNL     1      74.661  13.692  16.390  1.00  0.00     0.183 C 
BRANCH   2   3
HETATM    3  N2  UNL     1      74.706  13.421  15.186  1.00  0.00    -0.350 NA
BRANCH   3   4
HETATM    4  N1  UNL     1      74.847  13.199  13.996  1.00  0.00    -0.281 N 
ATOM      5  H12 UNL     1      75.266  14.127  14.060  1.00  0.00     0.191 HD
ATOM      6  H11 UNL     1      74.925  12.935  13.014  1.00  0.00     0.191 HD
ENDBRANCH   3   4
ENDBRANCH   2   3
ENDBRANCH   1   2
BRANCH   1   7
HETATM    7  C3  UNL     1      72.222  13.288  16.627  1.00  0.00     0.217 A 
HETATM    8  C4  UNL     1      71.288  12.240  17.220  1.00  0.00     0.266 A 
HETATM    9  N3  UNL     1      71.836  12.147  15.847  1.00  0.00    -0.067 N 
ATOM     10  H32 UNL     1      71.406  12.040  14.928  1.00  0.00     0.277 HD
ATOM     11  H31 UNL     1      72.362  11.428  15.351  1.00  0.00     0.277 HD
ENDBRANCH   1   7
TORSDOF 4
ENDMDL
MODEL 5
REMARK VINA RESULT: -3.454577876      3.501      4.734
REMARK  4 active torsions:
REMARK  status: ('A' for Active; 'I' for Inactive)
REMARK    1  A    between atoms: N1_1  and  N2_4 
REMARK    2  A    between atoms: N2_4  and  C1_5 
REMARK    3  A    between atoms: C1_5  and  C2_6 
REMARK    4  A    between atoms: C2_6  and  C3_7 
ROOT
HETATM    1  C2  UNL     1      71.267  15.478  15.795  1.00  0.00     0.096 C 
ENDROOT
BRANCH   1   2
HETATM    2  C1  UNL     1      72.037  14.266  16.097  1.00  0.00     0.183 C 
BRANCH   2   3
HETATM    3  N2  UNL     1      73.250  14.125  15.909  1.00  0.00    -0.350 NA
BRANCH   3   4
HETATM    4  N1  UNL     1      74.458  13.983  15.829  1.00  0.00    -0.281 N 
ATOM      5  H12 UNL     1      74.366  14.948  15.512  1.00  0.00     0.191 HD
ATOM      6  H11 UNL     1      75.457  13.781  15.791  1.00  0.00     0.191 HD
ENDBRANCH   3   4
ENDBRANCH   2   3
ENDBRANCH   1   2
BRANCH   1   7
HETATM    7  C3  UNL     1      71.740  16.692  16.539  1.00  0.00     0.217 A 
HETATM    8  C4  UNL     1      71.960  17.904  15.642  1.00  0.00     0.266 A 
HETATM    9  N3  UNL     1      73.065  17.206  16.338  1.00  0.00    -0.067 N 
ATOM     10  H32 UNL     1      73.798  17.517  16.975  1.00  0.00     0.277 HD
ATOM     11  H31 UNL     1      73.937  16.786  16.020  1.00  0.00     0.277 HD
ENDBRANCH   1   7
TORSDOF 4
ENDMDL
