MODEL 1
REMARK VINA RESULT: -3.702315195      0.000      0.000
REMARK  4 active torsions:
REMARK  status: ('A' for Active; 'I' for Inactive)
REMARK    1  A    between atoms: C2_2  and  C3_3 
REMARK    2  A    between atoms: C3_3  and  N1_4 
REMARK    3  A    between atoms: N1_4  and  N2_6 
REMARK    4  A    between atoms: N2_6  and  O1_8 
ROOT
HETATM    1  N1  UNL     1      71.785  17.518  15.173  1.00  0.00    -0.314 N 
ATOM      2  H1  UNL     1      71.898  17.084  14.256  1.00  0.00     0.182 HD
ENDROOT
BRANCH   1   3
HETATM    3  C3  UNL     1      70.519  18.048  15.588  1.00  0.00     0.167 C 
BRANCH   3   4
HETATM    4  C2  UNL     1      69.676  18.470  14.437  1.00  0.00    -0.016 C 
HETATM    5  C1  UNL     1      68.760  17.636  13.958  1.00  0.00     0.008 C 
ENDBRANCH   3   4
ENDBRANCH   1   3
BRANCH   1   6
HETATM    6  N2  UNL     1      72.859  17.613  16.061  1.00  0.00    -0.214 N 
ATOM      7  H2  UNL     1      73.123  18.530  16.419  1.00  0.00     0.215 HD
BRANCH   6   8
HETATM    8  O1  UNL     1      73.504  16.612  16.430  1.00  0.00    -0.275 OA
ATOM      9  H1  UNL     1      73.663  15.874  15.854  1.00  0.00     0.246 HD
ENDBRANCH   6   8
ENDBRANCH   1   6
TORSDOF 4
ENDMDL
MODEL 2
REMARK VINA RESULT: -3.671085855      1.000      1.087
REMARK  4 active torsions:
REMARK  status: ('A' for Active; 'I' for Inactive)
REMARK    1  A    between atoms: C2_2  and  C3_3 
REMARK    2  A    between atoms: C3_3  and  N1_4 
REMARK    3  A    between atoms: N1_4  and  N2_6 
REMARK    4  A    between atoms: N2_6  and  O1_8 
ROOT
HETATM    1  N1  UNL     1      71.614  16.412  15.105  1.00  0.00    -0.314 N 
ATOM      2  H1  UNL     1      71.085  15.676  14.637  1.00  0.00     0.182 HD
ENDROOT
BRANCH   1   3
HETATM    3  C3  UNL     1      71.403  17.793  14.780  1.00  0.00     0.167 C 
BRANCH   3   4
HETATM    4  C2  UNL     1      70.040  18.261  15.152  1.00  0.00    -0.016 C 
HETATM    5  C1  UNL     1      69.185  18.608  14.197  1.00  0.00     0.008 C 
ENDBRANCH   3   4
ENDBRANCH   1   3
BRANCH   1   6
HETATM    6  N2  UNL     1      72.565  16.106  16.081  1.00  0.00    -0.214 N 
ATOM      7  H2  UNL     1      72.549  15.183  16.513  1.00  0.00     0.215 HD
BRANCH   6   8
HETATM    8  O1  UNL     1      73.433  16.926  16.439  1.00  0.00    -0.275 OA
ATOM      9  H1  UNL     1      74.216  16.660  16.908  1.00  0.00     0.246 HD
ENDBRANCH   6   8
ENDBRANCH   1   6
TORSDOF 4
ENDMDL
MODEL 3
REMARK VINA RESULT: -3.655448263      1.514      1.757
REMARK  4 active torsions:
REMARK  status: ('A' for Active; 'I' for Inactive)
REMARK    1  A    between atoms: C2_2  and  C3_3 
REMARK    2  A    between atoms: C3_3  and  N1_4 
REMARK    3  A    between atoms: N1_4  and  N2_6 
REMARK    4  A    between atoms: N2_6  and  O1_8 
ROOT
HETATM    1  N1  UNL     1      71.603  16.152  15.303  1.00  0.00    -0.314 N 
ATOM      2  H1  UNL     1      70.953  15.437  14.976  1.00  0.00     0.182 HD
ENDROOT
BRANCH   1   3
HETATM    3  C3  UNL     1      71.363  17.542  15.045  1.00  0.00     0.167 C 
BRANCH   3   4
HETATM    4  C2  UNL     1      70.234  18.082  15.849  1.00  0.00    -0.016 C 
HETATM    5  C1  UNL     1      69.771  17.382  16.878  1.00  0.00     0.008 C 
ENDBRANCH   3   4
ENDBRANCH   1   3
BRANCH   1   6
HETATM    6  N2  UNL     1      72.753  15.806  16.017  1.00  0.00    -0.214 N 
ATOM      7  H2  UNL     1      72.956  14.821  16.179  1.00  0.00     0.215 HD
BRANCH   6   8
HETATM    8  O1  UNL     1      73.540  16.666  16.462  1.00  0.00    -0.275 OA
ATOM      9  H1  UNL     1      74.184  17.094  15.910  1.00  0.00     0.246 HD
ENDBRANCH   6   8
ENDBRANCH   1   6
TORSDOF 4
ENDMDL
MODEL 4
REMARK VINA RESULT: -3.624373128      1.508      1.892
REMARK  4 active torsions:
REMARK  status: ('A' for Active; 'I' for Inactive)
REMARK    1  A    between atoms: C2_2  and  C3_3 
REMARK    2  A    between atoms: C3_3  and  N1_4 
REMARK    3  A    between atoms: N1_4  and  N2_6 
REMARK    4  A    between atoms: N2_6  and  O1_8 
ROOT
HETATM    1  N1  UNL     1      71.770  16.026  15.294  1.00  0.00    -0.314 N 
ATOM      2  H1  UNL     1      71.935  16.140  14.294  1.00  0.00     0.182 HD
ENDROOT
BRANCH   1   3
HETATM    3  C3  UNL     1      70.436  15.955  15.819  1.00  0.00     0.167 C 
BRANCH   3   4
HETATM    4  C2  UNL     1      70.020  17.219  16.483  1.00  0.00    -0.016 C 
HETATM    5  C1  UNL     1      70.145  18.371  15.834  1.00  0.00     0.008 C 
ENDBRANCH   3   4
ENDBRANCH   1   3
BRANCH   1   6
HETATM    6  N2  UNL     1      72.834  15.933  16.194  1.00  0.00    -0.214 N 
ATOM      7  H2  UNL     1      73.040  15.031  16.623  1.00  0.00     0.215 HD
BRANCH   6   8
HETATM    8  O1  UNL     1      73.539  16.917  16.490  1.00  0.00    -0.275 OA
ATOM      9  H1  UNL     1      74.011  17.415  15.832  1.00  0.00     0.246 HD
ENDBRANCH   6   8
ENDBRANCH   1   6
TORSDOF 4
ENDMDL
MODEL 5
REMARK VINA RESULT: -3.615859554      0.901      1.078
REMARK  4 active torsions:
REMARK  status: ('A' for Active; 'I' for Inactive)
REMARK    1  A    between atoms: C2_2  and  C3_3 
REMARK    2  A    between atoms: C3_3  and  N1_4 
REMARK    3  A    between atoms: N1_4  and  N2_6 
REMARK    4  A    between atoms: N2_6  and  O1_8 
ROOT
HETATM    1  N1  UNL     1      71.677  16.709  14.912  1.00  0.00    -0.314 N 
ATOM      2  H1  UNL     1      72.119  16.455  14.029  1.00  0.00     0.182 HD
ENDROOT
BRANCH   1   3
HETATM    3  C3  UNL     1      70.292  16.425  15.153  1.00  0.00     0.167 C 
BRANCH   3   4
HETATM    4  C2  UNL     1      69.394  17.128  14.197  1.00  0.00    -0.016 C 
HETATM    5  C1  UNL     1      69.314  18.453  14.230  1.00  0.00     0.008 C 
ENDBRANCH   3   4
ENDBRANCH   1   3
BRANCH   1   6
HETATM    6  N2  UNL     1      72.401  17.343  15.924  1.00  0.00    -0.214 N 
ATOM      7  H2  UNL     1      72.055  18.226  16.300  1.00  0.00     0.215 HD
BRANCH   6   8
HETATM    8  O1  UNL     1      73.457  16.864  16.383  1.00  0.00    -0.275 OA
ATOM      9  H1  UNL     1      73.506  15.972  16.708  1.00  0.00     0.246 HD
ENDBRANCH   6   8
ENDBRANCH   1   6
TORSDOF 4
ENDMDL
