MODEL 1
REMARK VINA RESULT: -4.726596137      0.000      0.000
REMARK  2 active torsions:
REMARK  status: ('A' for Active; 'I' for Inactive)
REMARK    1  A    between atoms: O1_1  and  C1_3 
REMARK    2  A    between atoms: C7_11  and  O3_12 
ROOT
HETATM    1  C1  UNL     1      12.325  15.550  14.966  1.00  0.00     0.177 C 
HETATM    2  C2  UNL     1      11.530  15.412  16.253  1.00  0.00     0.153 C 
HETATM    3  C3  UNL     1      12.338  14.706  17.321  1.00  0.00     0.037 C 
HETATM    4  C4  UNL     1      12.827  15.868  18.146  1.00  0.00     0.036 C 
HETATM    5  C5  UNL     1      12.492  17.047  17.305  1.00  0.00     0.139 C 
HETATM    6  O2  UNL     1      11.234  16.687  16.780  1.00  0.00    -0.377 OA
HETATM    7  C6  UNL     1      13.429  17.345  16.202  1.00  0.00     0.119 C 
HETATM    8  S1  UNL     1      15.058  16.658  16.351  1.00  0.00    -0.087 SA
HETATM    9  C7  UNL     1      12.799  16.969  14.853  1.00  0.00     0.166 C 
ENDROOT
BRANCH   1  10
HETATM   10  O1  UNL     1      13.453  14.720  14.967  1.00  0.00    -0.390 OA
ATOM     11  H1  UNL     1      14.212  15.163  14.607  1.00  0.00     0.210 HD
ENDBRANCH   1  10
BRANCH   9  12
HETATM   12  O3  UNL     1      13.675  17.172  13.805  1.00  0.00    -0.392 OA
ATOM     13  H3  UNL     1      13.624  18.046  13.435  1.00  0.00     0.210 HD
ENDBRANCH   9  12
TORSDOF 2
ENDMDL
MODEL 2
REMARK VINA RESULT: -4.723238712      1.391      1.534
REMARK  2 active torsions:
REMARK  status: ('A' for Active; 'I' for Inactive)
REMARK    1  A    between atoms: O1_1  and  C1_3 
REMARK    2  A    between atoms: C7_11  and  O3_12 
ROOT
HETATM    1  C1  UNL     1      12.527  15.133  14.956  1.00  0.00     0.177 C 
HETATM    2  C2  UNL     1      11.537  16.169  15.457  1.00  0.00     0.153 C 
HETATM    3  C3  UNL     1      11.339  16.058  16.954  1.00  0.00     0.037 C 
HETATM    4  C4  UNL     1      12.232  17.161  17.459  1.00  0.00     0.036 C 
HETATM    5  C5  UNL     1      13.012  17.546  16.253  1.00  0.00     0.139 C 
HETATM    6  O2  UNL     1      12.039  17.468  15.235  1.00  0.00    -0.377 OA
HETATM    7  C6  UNL     1      14.159  16.676  15.917  1.00  0.00     0.119 C 
HETATM    8  S1  UNL     1      14.792  15.672  17.235  1.00  0.00    -0.087 SA
HETATM    9  C7  UNL     1      13.833  15.819  14.685  1.00  0.00     0.166 C 
ENDROOT
BRANCH   1  10
HETATM   10  O1  UNL     1      12.756  14.137  15.913  1.00  0.00    -0.390 OA
ATOM     11  H1  UNL     1      12.463  14.406  16.775  1.00  0.00     0.210 HD
ENDBRANCH   1  10
BRANCH   9  12
HETATM   12  O3  UNL     1      14.859  14.946  14.384  1.00  0.00    -0.392 OA
ATOM     13  H3  UNL     1      15.663  15.132  14.854  1.00  0.00     0.210 HD
ENDBRANCH   9  12
TORSDOF 2
ENDMDL
MODEL 3
REMARK VINA RESULT: -4.656588000      2.018      3.431
REMARK  2 active torsions:
REMARK  status: ('A' for Active; 'I' for Inactive)
REMARK    1  A    between atoms: O1_1  and  C1_3 
REMARK    2  A    between atoms: C7_11  and  O3_12 
ROOT
HETATM    1  C1  UNL     1      12.340  15.364  17.926  1.00  0.00     0.177 C 
HETATM    2  C2  UNL     1      12.312  16.016  16.555  1.00  0.00     0.153 C 
HETATM    3  C3  UNL     1      12.833  17.436  16.615  1.00  0.00     0.037 C 
HETATM    4  C4  UNL     1      14.247  17.259  16.127  1.00  0.00     0.036 C 
HETATM    5  C5  UNL     1      14.427  15.783  16.135  1.00  0.00     0.139 C 
HETATM    6  O2  UNL     1      13.174  15.330  15.674  1.00  0.00    -0.377 OA
HETATM    7  C6  UNL     1      14.728  15.173  17.448  1.00  0.00     0.119 C 
HETATM    8  S1  UNL     1      15.378  16.263  18.687  1.00  0.00    -0.087 SA
HETATM    9  C7  UNL     1      13.501  14.415  17.975  1.00  0.00     0.166 C 
ENDROOT
BRANCH   1  10
HETATM   10  O1  UNL     1      12.518  16.311  18.942  1.00  0.00    -0.390 OA
ATOM     11  H1  UNL     1      11.845  16.238  19.609  1.00  0.00     0.210 HD
ENDBRANCH   1  10
BRANCH   9  12
HETATM   12  O3  UNL     1      13.727  13.889  19.231  1.00  0.00    -0.392 OA
ATOM     13  H3  UNL     1      14.273  13.112  19.223  1.00  0.00     0.210 HD
ENDBRANCH   9  12
TORSDOF 2
ENDMDL
MODEL 4
REMARK VINA RESULT: -4.532384931      1.626      3.178
REMARK  2 active torsions:
REMARK  status: ('A' for Active; 'I' for Inactive)
REMARK    1  A    between atoms: O1_1  and  C1_3 
REMARK    2  A    between atoms: C7_11  and  O3_12 
ROOT
HETATM    1  C1  UNL     1      11.917  14.773  16.306  1.00  0.00     0.177 C 
HETATM    2  C2  UNL     1      12.613  15.454  15.142  1.00  0.00     0.153 C 
HETATM    3  C3  UNL     1      12.109  16.869  14.955  1.00  0.00     0.037 C 
HETATM    4  C4  UNL     1      13.195  17.667  15.629  1.00  0.00     0.036 C 
HETATM    5  C5  UNL     1      13.989  16.629  16.337  1.00  0.00     0.139 C 
HETATM    6  O2  UNL     1      13.994  15.572  15.404  1.00  0.00    -0.377 OA
HETATM    7  C6  UNL     1      13.439  16.156  17.625  1.00  0.00     0.119 C 
HETATM    8  S1  UNL     1      12.270  17.229  18.418  1.00  0.00    -0.087 SA
HETATM    9  C7  UNL     1      12.863  14.741  17.470  1.00  0.00     0.166 C 
ENDROOT
BRANCH   1  10
HETATM   10  O1  UNL     1      10.773  15.477  16.704  1.00  0.00    -0.390 OA
ATOM     11  H1  UNL     1      10.087  14.890  16.998  1.00  0.00     0.210 HD
ENDBRANCH   1  10
BRANCH   9  12
HETATM   12  O3  UNL     1      12.280  14.295  18.639  1.00  0.00    -0.392 OA
ATOM     13  H3  UNL     1      12.908  14.116  19.330  1.00  0.00     0.210 HD
ENDBRANCH   9  12
TORSDOF 2
ENDMDL
MODEL 5
REMARK VINA RESULT: -4.527160802      1.328      1.879
REMARK  2 active torsions:
REMARK  status: ('A' for Active; 'I' for Inactive)
REMARK    1  A    between atoms: O1_1  and  C1_3 
REMARK    2  A    between atoms: C7_11  and  O3_12 
ROOT
HETATM    1  C1  UNL     1      12.451  14.843  15.889  1.00  0.00     0.177 C 
HETATM    2  C2  UNL     1      11.519  15.952  16.345  1.00  0.00     0.153 C 
HETATM    3  C3  UNL     1      12.180  16.826  17.391  1.00  0.00     0.037 C 
HETATM    4  C4  UNL     1      12.624  18.003  16.563  1.00  0.00     0.036 C 
HETATM    5  C5  UNL     1      12.428  17.530  15.167  1.00  0.00     0.139 C 
HETATM    6  O2  UNL     1      11.220  16.810  15.266  1.00  0.00    -0.377 OA
HETATM    7  C6  UNL     1      13.489  16.656  14.622  1.00  0.00     0.119 C 
HETATM    8  S1  UNL     1      15.063  16.737  15.435  1.00  0.00    -0.087 SA
HETATM    9  C7  UNL     1      12.991  15.206  14.537  1.00  0.00     0.166 C 
ENDROOT
BRANCH   1  10
HETATM   10  O1  UNL     1      13.538  14.695  16.759  1.00  0.00    -0.390 OA
ATOM     11  H1  UNL     1      14.061  13.933  16.538  1.00  0.00     0.210 HD
ENDBRANCH   1  10
BRANCH   9  12
HETATM   12  O3  UNL     1      13.981  14.351  14.095  1.00  0.00    -0.392 OA
ATOM     13  H3  UNL     1      14.402  14.643  13.295  1.00  0.00     0.210 HD
ENDBRANCH   9  12
TORSDOF 2
ENDMDL
