MODEL 1
REMARK VINA RESULT: -6.056211053      0.000      0.000
REMARK  1 active torsions:
REMARK  status: ('A' for Active; 'I' for Inactive)
REMARK    1  A    between atoms: C2_2  and  O1_3 
ROOT
HETATM    1  C1  UNL     1      15.617  16.141  18.853  1.00  0.00     0.104 C 
HETATM    2  C2  UNL     1      14.831  15.051  18.121  1.00  0.00     0.298 C 
HETATM    3  N1  UNL     1      13.545  14.969  18.751  1.00  0.00    -0.024 N 
ATOM      4  H11 UNL     1      13.301  15.820  19.259  1.00  0.00     0.283 HD
ATOM      5  H12 UNL     1      13.536  14.328  19.544  1.00  0.00     0.283 HD
HETATM    6  C3  UNL     1      12.567  14.622  17.742  1.00  0.00     0.243 C 
HETATM    7  C4  UNL     1      12.463  15.868  16.849  1.00  0.00     0.088 C 
HETATM    8  C5  UNL     1      13.791  15.967  16.140  1.00  0.00     0.135 C 
HETATM    9  C6  UNL     1      13.526  15.562  14.685  1.00  0.00     0.063 C 
HETATM   10  C7  UNL     1      14.512  16.376  13.904  1.00  0.00     0.031 C 
HETATM   11  C8  UNL     1      15.257  17.109  15.027  1.00  0.00     0.171 C 
HETATM   12  O2  UNL     1      14.219  17.276  15.974  1.00  0.00    -0.361 OA
HETATM   13  N2  UNL     1      14.826  15.200  16.722  1.00  0.00    -0.338 N 
ATOM     14  H2  UNL     1      15.548  14.767  16.145  1.00  0.00     0.161 HD
ENDROOT
BRANCH   2  15
HETATM   15  O1  UNL     1      15.505  13.846  18.431  1.00  0.00    -0.349 OA
ATOM     16  H1  UNL     1      15.092  13.187  17.885  1.00  0.00     0.214 HD
ENDBRANCH   2  15
TORSDOF 1
ENDMDL
MODEL 2
REMARK VINA RESULT: -5.181342280      1.786      2.104
REMARK  1 active torsions:
REMARK  status: ('A' for Active; 'I' for Inactive)
REMARK    1  A    between atoms: C2_2  and  O1_3 
ROOT
HETATM    1  C1  UNL     1      12.859  16.893  18.513  1.00  0.00     0.104 C 
HETATM    2  C2  UNL     1      12.418  15.765  17.576  1.00  0.00     0.298 C 
HETATM    3  N1  UNL     1      11.090  16.083  17.138  1.00  0.00    -0.024 N 
ATOM      4  H11 UNL     1      10.873  17.075  17.227  1.00  0.00     0.283 HD
ATOM      5  H12 UNL     1      10.372  15.727  17.770  1.00  0.00     0.283 HD
HETATM    6  C3  UNL     1      10.931  15.596  15.784  1.00  0.00     0.243 C 
HETATM    7  C4  UNL     1      11.830  16.505  14.932  1.00  0.00     0.088 C 
HETATM    8  C5  UNL     1      13.243  16.174  15.342  1.00  0.00     0.135 C 
HETATM    9  C6  UNL     1      13.848  15.385  14.174  1.00  0.00     0.063 C 
HETATM   10  C7  UNL     1      15.300  15.755  14.210  1.00  0.00     0.031 C 
HETATM   11  C8  UNL     1      15.348  16.674  15.437  1.00  0.00     0.171 C 
HETATM   12  O2  UNL     1      14.074  17.284  15.366  1.00  0.00    -0.361 OA
HETATM   13  N2  UNL     1      13.350  15.473  16.565  1.00  0.00    -0.338 N 
ATOM     14  H2  UNL     1      14.082  14.777  16.709  1.00  0.00     0.161 HD
ENDROOT
BRANCH   2  15
HETATM   15  O1  UNL     1      12.303  14.626  18.409  1.00  0.00    -0.349 OA
ATOM     16  H1  UNL     1      12.295  13.887  17.811  1.00  0.00     0.214 HD
ENDBRANCH   2  15
TORSDOF 1
ENDMDL
MODEL 3
REMARK VINA RESULT: -5.154518823      1.473      3.563
REMARK  1 active torsions:
REMARK  status: ('A' for Active; 'I' for Inactive)
REMARK    1  A    between atoms: C2_2  and  O1_3 
ROOT
HETATM    1  C1  UNL     1      13.529  16.222  15.317  1.00  0.00     0.104 C 
HETATM    2  C2  UNL     1      13.014  16.198  16.759  1.00  0.00     0.298 C 
HETATM    3  N1  UNL     1      12.335  14.947  16.938  1.00  0.00    -0.024 N 
ATOM      4  H11 UNL     1      12.627  14.241  16.262  1.00  0.00     0.283 HD
ATOM      5  H12 UNL     1      11.351  14.992  16.674  1.00  0.00     0.283 HD
HETATM    6  C3  UNL     1      12.526  14.520  18.308  1.00  0.00     0.243 C 
HETATM    7  C4  UNL     1      14.015  14.151  18.401  1.00  0.00     0.088 C 
HETATM    8  C5  UNL     1      14.763  15.451  18.251  1.00  0.00     0.135 C 
HETATM    9  C6  UNL     1      15.311  15.788  19.643  1.00  0.00     0.063 C 
HETATM   10  C7  UNL     1      16.591  16.513  19.356  1.00  0.00     0.031 C 
HETATM   11  C8  UNL     1      16.583  16.545  17.822  1.00  0.00     0.171 C 
HETATM   12  O2  UNL     1      15.941  15.319  17.531  1.00  0.00    -0.361 OA
HETATM   13  N2  UNL     1      13.996  16.512  17.715  1.00  0.00    -0.338 N 
ATOM     14  H2  UNL     1      14.150  17.475  18.014  1.00  0.00     0.161 HD
ENDROOT
BRANCH   2  15
HETATM   15  O1  UNL     1      12.018  17.203  16.806  1.00  0.00    -0.349 OA
ATOM     16  H1  UNL     1      11.528  17.098  15.998  1.00  0.00     0.214 HD
ENDBRANCH   2  15
TORSDOF 1
ENDMDL
MODEL 4
REMARK VINA RESULT: -5.032353526      1.697      2.825
REMARK  1 active torsions:
REMARK  status: ('A' for Active; 'I' for Inactive)
REMARK    1  A    between atoms: C2_2  and  O1_3 
ROOT
HETATM    1  C1  UNL     1      11.821  14.791  16.306  1.00  0.00     0.104 C 
HETATM    2  C2  UNL     1      12.494  15.971  17.012  1.00  0.00     0.298 C 
HETATM    3  N1  UNL     1      13.087  15.455  18.211  1.00  0.00    -0.024 N 
ATOM      4  H11 UNL     1      13.250  14.449  18.169  1.00  0.00     0.283 HD
ATOM      5  H12 UNL     1      12.442  15.457  19.001  1.00  0.00     0.283 HD
HETATM    6  C3  UNL     1      14.296  16.205  18.477  1.00  0.00     0.243 C 
HETATM    7  C4  UNL     1      15.273  15.783  17.369  1.00  0.00     0.088 C 
HETATM    8  C5  UNL     1      14.698  16.339  16.091  1.00  0.00     0.135 C 
HETATM    9  C6  UNL     1      15.601  17.514  15.697  1.00  0.00     0.063 C 
HETATM   10  C7  UNL     1      15.552  17.514  14.199  1.00  0.00     0.031 C 
HETATM   11  C8  UNL     1      14.575  16.362  13.928  1.00  0.00     0.171 C 
HETATM   12  O2  UNL     1      14.877  15.495  15.005  1.00  0.00    -0.361 OA
HETATM   13  N2  UNL     1      13.340  16.722  16.176  1.00  0.00    -0.338 N 
ATOM     14  H2  UNL     1      12.984  17.519  15.647  1.00  0.00     0.161 HD
ENDROOT
BRANCH   2  15
HETATM   15  O1  UNL     1      11.427  16.806  17.420  1.00  0.00    -0.349 OA
ATOM     16  H1  UNL     1      10.666  16.474  16.959  1.00  0.00     0.214 HD
ENDBRANCH   2  15
TORSDOF 1
ENDMDL
MODEL 5
REMARK VINA RESULT: -5.003521878      1.944      3.802
REMARK  1 active torsions:
REMARK  status: ('A' for Active; 'I' for Inactive)
REMARK    1  A    between atoms: C2_2  and  O1_3 
ROOT
HETATM    1  C1  UNL     1      13.703  17.436  14.005  1.00  0.00     0.104 C 
HETATM    2  C2  UNL     1      12.764  17.430  15.214  1.00  0.00     0.298 C 
HETATM    3  N1  UNL     1      11.742  16.460  14.943  1.00  0.00    -0.024 N 
ATOM      4  H11 UNL     1      12.027  15.774  14.245  1.00  0.00     0.283 HD
ATOM      5  H12 UNL     1      10.951  16.854  14.434  1.00  0.00     0.283 HD
HETATM    6  C3  UNL     1      11.352  15.852  16.197  1.00  0.00     0.243 C 
HETATM    7  C4  UNL     1      12.564  15.006  16.619  1.00  0.00     0.088 C 
HETATM    8  C5  UNL     1      13.653  15.997  16.945  1.00  0.00     0.135 C 
HETATM    9  C6  UNL     1      13.792  15.985  18.472  1.00  0.00     0.063 C 
HETATM   10  C7  UNL     1      15.245  16.275  18.700  1.00  0.00     0.031 C 
HETATM   11  C8  UNL     1      15.743  16.470  17.262  1.00  0.00     0.171 C 
HETATM   12  O2  UNL     1      14.913  15.562  16.564  1.00  0.00    -0.361 OA
HETATM   13  N2  UNL     1      13.430  17.301  16.446  1.00  0.00    -0.338 N 
ATOM     14  H2  UNL     1      13.742  18.123  16.963  1.00  0.00     0.161 HD
ENDROOT
BRANCH   2  15
HETATM   15  O1  UNL     1      12.131  18.696  15.188  1.00  0.00    -0.349 OA
ATOM     16  H1  UNL     1      11.202  18.503  15.133  1.00  0.00     0.214 HD
ENDBRANCH   2  15
TORSDOF 1
ENDMDL
