MODEL 1
REMARK VINA RESULT: -6.133265193      0.000      0.000
REMARK  1 active torsions:
REMARK  status: ('A' for Active; 'I' for Inactive)
REMARK    1  A    between atoms: O1_1  and  C1_3 
ROOT
HETATM    1  C1  UNL     1      11.985  15.231  16.371  1.00  0.00     0.321 C 
HETATM    2  C2  UNL     1      13.037  16.166  15.762  1.00  0.00     0.065 C 
HETATM    3  C3  UNL     1      14.252  15.781  16.594  1.00  0.00     0.076 C 
HETATM    4  C4  UNL     1      13.643  15.415  17.900  1.00  0.00     0.313 C 
HETATM    5  C5  UNL     1      14.159  14.076  18.436  1.00  0.00     0.240 C 
HETATM    6  O2  UNL     1      15.489  14.430  18.671  1.00  0.00    -0.350 OA
HETATM    7  C6  UNL     1      15.498  15.720  19.131  1.00  0.00     0.229 A 
HETATM    8  C7  UNL     1      16.658  16.589  18.832  1.00  0.00     0.073 A 
HETATM    9  C8  UNL     1      16.384  16.127  20.231  1.00  0.00     0.073 A 
HETATM   10  N1  UNL     1      14.199  16.298  18.919  1.00  0.00    -0.006 N 
ATOM     11  H11 UNL     1      13.629  16.403  19.758  1.00  0.00     0.284 HD
ATOM     12  H12 UNL     1      14.200  17.289  18.679  1.00  0.00     0.284 HD
HETATM   13  N2  UNL     1      12.230  15.467  17.802  1.00  0.00    -0.012 N 
ATOM     14  H21 UNL     1      11.737  14.831  18.429  1.00  0.00     0.283 HD
ATOM     15  H22 UNL     1      11.811  16.321  18.170  1.00  0.00     0.283 HD
ENDROOT
BRANCH   1  16
HETATM   16  O1  UNL     1      12.338  13.925  16.019  1.00  0.00    -0.370 OA
ATOM     17  H1  UNL     1      12.066  13.358  16.730  1.00  0.00     0.212 HD
ENDBRANCH   1  16
TORSDOF 1
ENDMDL
MODEL 2
REMARK VINA RESULT: -5.429503582      2.221      4.380
REMARK  1 active torsions:
REMARK  status: ('A' for Active; 'I' for Inactive)
REMARK    1  A    between atoms: O1_1  and  C1_3 
ROOT
HETATM    1  C1  UNL     1      13.466  14.643  18.108  1.00  0.00     0.321 C 
HETATM    2  C2  UNL     1      13.986  16.049  18.432  1.00  0.00     0.065 C 
HETATM    3  C3  UNL     1      13.124  16.879  17.490  1.00  0.00     0.076 C 
HETATM    4  C4  UNL     1      12.920  15.953  16.344  1.00  0.00     0.313 C 
HETATM    5  C5  UNL     1      11.452  15.858  15.918  1.00  0.00     0.240 C 
HETATM    6  O2  UNL     1      11.273  17.160  15.450  1.00  0.00    -0.350 OA
HETATM    7  C6  UNL     1      12.434  17.540  14.830  1.00  0.00     0.229 A 
HETATM    8  C7  UNL     1      12.831  18.966  14.843  1.00  0.00     0.073 A 
HETATM    9  C8  UNL     1      12.409  18.297  13.570  1.00  0.00     0.073 A 
HETATM   10  N1  UNL     1      13.463  16.590  15.151  1.00  0.00    -0.006 N 
ATOM     11  H11 UNL     1      13.715  15.951  14.396  1.00  0.00     0.284 HD
ATOM     12  H12 UNL     1      14.398  16.983  15.257  1.00  0.00     0.284 HD
HETATM   13  N2  UNL     1      13.497  14.692  16.637  1.00  0.00    -0.012 N 
ATOM     14  H21 UNL     1      13.046  13.902  16.176  1.00  0.00     0.283 HD
ATOM     15  H22 UNL     1      14.418  14.541  16.226  1.00  0.00     0.283 HD
ENDROOT
BRANCH   1  16
HETATM   16  O1  UNL     1      12.150  14.572  18.572  1.00  0.00    -0.370 OA
ATOM     17  H1  UNL     1      11.786  13.753  18.258  1.00  0.00     0.212 HD
ENDBRANCH   1  16
TORSDOF 1
ENDMDL
MODEL 3
REMARK VINA RESULT: -5.419787112      1.573      4.140
REMARK  1 active torsions:
REMARK  status: ('A' for Active; 'I' for Inactive)
REMARK    1  A    between atoms: O1_1  and  C1_3 
ROOT
HETATM    1  C1  UNL     1      15.874  15.116  18.975  1.00  0.00     0.321 C 
HETATM    2  C2  UNL     1      16.191  16.298  18.051  1.00  0.00     0.065 C 
HETATM    3  C3  UNL     1      14.790  16.636  17.558  1.00  0.00     0.076 C 
HETATM    4  C4  UNL     1      14.122  15.307  17.555  1.00  0.00     0.313 C 
HETATM    5  C5  UNL     1      12.753  15.334  18.241  1.00  0.00     0.240 C 
HETATM    6  O2  UNL     1      12.072  16.155  17.342  1.00  0.00    -0.350 OA
HETATM    7  C6  UNL     1      12.513  15.844  16.082  1.00  0.00     0.229 A 
HETATM    8  C7  UNL     1      12.542  16.897  15.043  1.00  0.00     0.073 A 
HETATM    9  C8  UNL     1      11.578  15.754  14.951  1.00  0.00     0.073 A 
HETATM   10  N1  UNL     1      13.689  15.026  16.192  1.00  0.00    -0.006 N 
ATOM     11  H11 UNL     1      13.551  14.038  15.977  1.00  0.00     0.284 HD
ATOM     12  H12 UNL     1      14.394  15.182  15.472  1.00  0.00     0.284 HD
HETATM   13  N2  UNL     1      14.995  14.330  18.095  1.00  0.00    -0.012 N 
ATOM     14  H21 UNL     1      14.527  13.548  18.551  1.00  0.00     0.283 HD
ATOM     15  H22 UNL     1      15.485  13.767  17.399  1.00  0.00     0.283 HD
ENDROOT
BRANCH   1  16
HETATM   16  O1  UNL     1      15.158  15.622  20.063  1.00  0.00    -0.370 OA
ATOM     17  H1  UNL     1      15.302  15.033  20.794  1.00  0.00     0.212 HD
ENDBRANCH   1  16
TORSDOF 1
ENDMDL
MODEL 4
REMARK VINA RESULT: -5.356206555      1.824      2.219
REMARK  1 active torsions:
REMARK  status: ('A' for Active; 'I' for Inactive)
REMARK    1  A    between atoms: O1_1  and  C1_3 
ROOT
HETATM    1  C1  UNL     1      11.157  16.014  15.418  1.00  0.00     0.321 C 
HETATM    2  C2  UNL     1      11.830  14.642  15.543  1.00  0.00     0.065 C 
HETATM    3  C3  UNL     1      12.588  14.832  16.850  1.00  0.00     0.076 C 
HETATM    4  C4  UNL     1      12.909  16.284  16.825  1.00  0.00     0.313 C 
HETATM    5  C5  UNL     1      12.561  16.987  18.140  1.00  0.00     0.240 C 
HETATM    6  O2  UNL     1      13.484  16.360  18.978  1.00  0.00    -0.350 OA
HETATM    7  C6  UNL     1      14.636  16.177  18.259  1.00  0.00     0.229 A 
HETATM    8  C7  UNL     1      15.502  15.015  18.558  1.00  0.00     0.073 A 
HETATM    9  C8  UNL     1      15.955  16.410  18.865  1.00  0.00     0.073 A 
HETATM   10  N1  UNL     1      14.360  16.423  16.870  1.00  0.00    -0.006 N 
ATOM     11  H11 UNL     1      14.721  17.304  16.505  1.00  0.00     0.284 HD
ATOM     12  H12 UNL     1      14.872  15.832  16.215  1.00  0.00     0.284 HD
HETATM   13  N2  UNL     1      12.308  16.889  15.694  1.00  0.00    -0.012 N 
ATOM     14  H21 UNL     1      12.072  17.875  15.815  1.00  0.00     0.283 HD
ATOM     15  H22 UNL     1      12.935  17.029  14.903  1.00  0.00     0.283 HD
ENDROOT
BRANCH   1  16
HETATM   16  O1  UNL     1      10.211  16.105  16.442  1.00  0.00    -0.370 OA
ATOM     17  H1  UNL     1       9.546  15.450  16.269  1.00  0.00     0.212 HD
ENDBRANCH   1  16
TORSDOF 1
ENDMDL
MODEL 5
REMARK VINA RESULT: -5.354705326      2.412      3.712
REMARK  1 active torsions:
REMARK  status: ('A' for Active; 'I' for Inactive)
REMARK    1  A    between atoms: O1_1  and  C1_3 
ROOT
HETATM    1  C1  UNL     1      12.967  14.389  18.188  1.00  0.00     0.321 C 
HETATM    2  C2  UNL     1      14.467  14.601  18.431  1.00  0.00     0.065 C 
HETATM    3  C3  UNL     1      14.715  15.811  17.541  1.00  0.00     0.076 C 
HETATM    4  C4  UNL     1      13.736  15.605  16.441  1.00  0.00     0.313 C 
HETATM    5  C5  UNL     1      12.916  16.864  16.138  1.00  0.00     0.240 C 
HETATM    6  O2  UNL     1      13.938  17.680  15.652  1.00  0.00    -0.350 OA
HETATM    7  C6  UNL     1      14.791  16.889  14.929  1.00  0.00     0.229 A 
HETATM    8  C7  UNL     1      16.229  17.236  14.872  1.00  0.00     0.073 A 
HETATM    9  C8  UNL     1      15.361  17.353  13.656  1.00  0.00     0.073 A 
HETATM   10  N1  UNL     1      14.479  15.511  15.190  1.00  0.00    -0.006 N 
ATOM     11  H11 UNL     1      13.995  15.026  14.434  1.00  0.00     0.284 HD
ATOM     12  H12 UNL     1      15.280  14.881  15.209  1.00  0.00     0.284 HD
HETATM   13  N2  UNL     1      12.932  14.472  16.719  1.00  0.00    -0.012 N 
ATOM     14  H21 UNL     1      11.995  14.507  16.318  1.00  0.00     0.283 HD
ATOM     15  H22 UNL     1      13.219  13.619  16.238  1.00  0.00     0.283 HD
ENDROOT
BRANCH   1  16
HETATM   16  O1  UNL     1      12.298  15.474  18.760  1.00  0.00    -0.370 OA
ATOM     17  H1  UNL     1      11.655  15.773  18.128  1.00  0.00     0.212 HD
ENDBRANCH   1  16
TORSDOF 1
ENDMDL
