MODEL 1
REMARK VINA RESULT: -4.528989011      0.000      0.000
REMARK  3 active torsions:
REMARK  status: ('A' for Active; 'I' for Inactive)
REMARK    1  A    between atoms: N1_1  and  C1_5 
REMARK    2  A    between atoms: C1_5  and  C2_6 
REMARK    3  A    between atoms: C2_6  and  N2_7 
ROOT
HETATM    1  N2  UNL     1      29.265  24.286  68.923  1.00  0.00    -0.365 N 
HETATM    2  C3  UNL     1      28.650  23.487  68.025  1.00  0.00     0.090 A 
HETATM    3  C4  UNL     1      29.277  23.130  66.851  1.00  0.00     0.017 A 
HETATM    4  C5  UNL     1      30.553  23.602  66.597  1.00  0.00     0.003 A 
HETATM    5  C6  UNL     1      31.164  24.426  67.541  1.00  0.00     0.017 A 
HETATM    6  C7  UNL     1      30.502  24.758  68.703  1.00  0.00     0.090 A 
ENDROOT
BRANCH   1   7
HETATM    7  C2  UNL     1      28.558  24.621  70.127  1.00  0.00     0.155 C 
BRANCH   7   8
HETATM    8  C1  UNL     1      27.619  23.520  70.569  1.00  0.00     0.249 C 
BRANCH   8   9
HETATM    9  N1  UNL     1      27.096  23.897  71.868  1.00  0.00    -0.078 N 
ATOM     10  H13 UNL     1      26.920  24.898  71.953  1.00  0.00     0.274 HD
ATOM     11  H12 UNL     1      26.138  23.583  72.019  1.00  0.00     0.274 HD
ATOM     12  H11 UNL     1      27.748  23.545  72.569  1.00  0.00     0.274 HD
ENDBRANCH   8   9
ENDBRANCH   7   8
ENDBRANCH   1   7
TORSDOF 3
ENDMDL
MODEL 2
REMARK VINA RESULT: -4.518135731      0.040      1.580
REMARK  3 active torsions:
REMARK  status: ('A' for Active; 'I' for Inactive)
REMARK    1  A    between atoms: N1_1  and  C1_5 
REMARK    2  A    between atoms: C1_5  and  C2_6 
REMARK    3  A    between atoms: C2_6  and  N2_7 
ROOT
HETATM    1  N2  UNL     1      29.219  24.255  68.918  1.00  0.00    -0.365 N 
HETATM    2  C3  UNL     1      30.458  24.750  68.714  1.00  0.00     0.090 A 
HETATM    3  C4  UNL     1      31.158  24.451  67.566  1.00  0.00     0.017 A 
HETATM    4  C5  UNL     1      30.576  23.631  66.615  1.00  0.00     0.003 A 
HETATM    5  C6  UNL     1      29.296  23.133  66.851  1.00  0.00     0.017 A 
HETATM    6  C7  UNL     1      28.630  23.457  68.013  1.00  0.00     0.090 A 
ENDROOT
BRANCH   1   7
HETATM    7  C2  UNL     1      28.542  24.603  70.136  1.00  0.00     0.155 C 
BRANCH   7   8
HETATM    8  C1  UNL     1      27.592  23.520  70.598  1.00  0.00     0.249 C 
BRANCH   8   9
HETATM    9  N1  UNL     1      27.110  23.903  71.910  1.00  0.00    -0.078 N 
ATOM     10  H13 UNL     1      26.274  23.392  72.194  1.00  0.00     0.274 HD
ATOM     11  H12 UNL     1      27.718  23.588  72.666  1.00  0.00     0.274 HD
ATOM     12  H11 UNL     1      26.977  24.914  71.900  1.00  0.00     0.274 HD
ENDBRANCH   8   9
ENDBRANCH   7   8
ENDBRANCH   1   7
TORSDOF 3
ENDMDL
MODEL 3
REMARK VINA RESULT: -4.250246871      2.393      5.354
REMARK  3 active torsions:
REMARK  status: ('A' for Active; 'I' for Inactive)
REMARK    1  A    between atoms: N1_1  and  C1_5 
REMARK    2  A    between atoms: C1_5  and  C2_6 
REMARK    3  A    between atoms: C2_6  and  N2_7 
ROOT
HETATM    1  N2  UNL     1      27.199  23.254  71.746  1.00  0.00    -0.365 N 
HETATM    2  C3  UNL     1      27.188  21.915  71.921  1.00  0.00     0.090 A 
HETATM    3  C4  UNL     1      27.190  21.367  73.184  1.00  0.00     0.017 A 
HETATM    4  C5  UNL     1      27.203  22.207  74.284  1.00  0.00     0.003 A 
HETATM    5  C6  UNL     1      27.214  23.585  74.076  1.00  0.00     0.017 A 
HETATM    6  C7  UNL     1      27.212  24.093  72.795  1.00  0.00     0.090 A 
ENDROOT
BRANCH   1   7
HETATM    7  C2  UNL     1      27.197  23.762  70.403  1.00  0.00     0.155 C 
BRANCH   7   8
HETATM    8  C1  UNL     1      28.582  24.149  69.932  1.00  0.00     0.249 C 
BRANCH   8   9
HETATM    9  N1  UNL     1      28.659  23.831  68.519  1.00  0.00    -0.078 N 
ATOM     10  H13 UNL     1      29.562  23.443  68.246  1.00  0.00     0.274 HD
ATOM     11  H12 UNL     1      28.088  23.028  68.259  1.00  0.00     0.274 HD
ATOM     12  H11 UNL     1      28.416  24.678  68.006  1.00  0.00     0.274 HD
ENDBRANCH   8   9
ENDBRANCH   7   8
ENDBRANCH   1   7
TORSDOF 3
ENDMDL
MODEL 4
REMARK VINA RESULT: -4.216274919      2.403      5.504
REMARK  3 active torsions:
REMARK  status: ('A' for Active; 'I' for Inactive)
REMARK    1  A    between atoms: N1_1  and  C1_5 
REMARK    2  A    between atoms: C1_5  and  C2_6 
REMARK    3  A    between atoms: C2_6  and  N2_7 
ROOT
HETATM    1  N2  UNL     1      27.189  23.214  71.740  1.00  0.00    -0.365 N 
HETATM    2  C3  UNL     1      27.211  24.072  72.782  1.00  0.00     0.090 A 
HETATM    3  C4  UNL     1      27.222  23.609  74.079  1.00  0.00     0.017 A 
HETATM    4  C5  UNL     1      27.209  22.244  74.308  1.00  0.00     0.003 A 
HETATM    5  C6  UNL     1      27.186  21.380  73.215  1.00  0.00     0.017 A 
HETATM    6  C7  UNL     1      27.177  21.885  71.933  1.00  0.00     0.090 A 
ENDROOT
BRANCH   1   7
HETATM    7  C2  UNL     1      27.179  23.760  70.412  1.00  0.00     0.155 C 
BRANCH   7   8
HETATM    8  C1  UNL     1      28.565  24.132  69.931  1.00  0.00     0.249 C 
BRANCH   8   9
HETATM    9  N1  UNL     1      28.631  23.808  68.520  1.00  0.00    -0.078 N 
ATOM     10  H13 UNL     1      29.584  23.646  68.191  1.00  0.00     0.274 HD
ATOM     11  H12 UNL     1      28.260  22.883  68.305  1.00  0.00     0.274 HD
ATOM     12  H11 UNL     1      28.156  24.556  68.016  1.00  0.00     0.274 HD
ENDBRANCH   8   9
ENDBRANCH   7   8
ENDBRANCH   1   7
TORSDOF 3
ENDMDL
MODEL 5
REMARK VINA RESULT: -3.919365449     14.179     14.756
REMARK  3 active torsions:
REMARK  status: ('A' for Active; 'I' for Inactive)
REMARK    1  A    between atoms: N1_1  and  C1_5 
REMARK    2  A    between atoms: C1_5  and  C2_6 
REMARK    3  A    between atoms: C2_6  and  N2_7 
ROOT
HETATM    1  N2  UNL     1      18.424  17.861  76.589  1.00  0.00    -0.365 N 
HETATM    2  C3  UNL     1      17.712  16.831  76.085  1.00  0.00     0.090 A 
HETATM    3  C4  UNL     1      18.301  15.606  75.862  1.00  0.00     0.017 A 
HETATM    4  C5  UNL     1      19.642  15.438  76.160  1.00  0.00     0.003 A 
HETATM    5  C6  UNL     1      20.355  16.518  76.678  1.00  0.00     0.017 A 
HETATM    6  C7  UNL     1      19.727  17.726  76.887  1.00  0.00     0.090 A 
ENDROOT
BRANCH   1   7
HETATM    7  C2  UNL     1      17.752  19.112  76.798  1.00  0.00     0.155 C 
BRANCH   7   8
HETATM    8  C1  UNL     1      17.978  19.662  78.189  1.00  0.00     0.249 C 
BRANCH   8   9
HETATM    9  N1  UNL     1      18.237  21.082  78.053  1.00  0.00    -0.078 N 
ATOM     10  H13 UNL     1      17.386  21.636  77.955  1.00  0.00     0.274 HD
ATOM     11  H12 UNL     1      18.574  21.511  78.914  1.00  0.00     0.274 HD
ATOM     12  H11 UNL     1      18.881  21.197  77.270  1.00  0.00     0.274 HD
ENDBRANCH   8   9
ENDBRANCH   7   8
ENDBRANCH   1   7
TORSDOF 3
ENDMDL
