MODEL 1
REMARK VINA RESULT: -5.564943419      0.000      0.000
REMARK  2 active torsions:
REMARK  status: ('A' for Active; 'I' for Inactive)
REMARK    1  A    between atoms: C2_2  and  O1_3 
REMARK    2  A    between atoms: O1_3  and  C3_4 
ROOT
HETATM    1  C3  UNL     1      29.302  24.439  68.728  1.00  0.00     0.165 C 
HETATM    2  C4  UNL     1      28.772  23.303  67.879  1.00  0.00     0.039 C 
HETATM    3  C5  UNL     1      29.276  23.585  66.492  1.00  0.00     0.022 C 
HETATM    4  C6  UNL     1      30.779  23.547  66.468  1.00  0.00     0.119 C 
HETATM    5  N1  UNL     1      31.426  24.341  67.451  1.00  0.00    -0.400 N 
ATOM      6  H1  UNL     1      32.352  24.730  67.274  1.00  0.00     0.158 HD
HETATM    7  C7  UNL     1      30.774  24.582  68.670  1.00  0.00     0.087 C 
ENDROOT
BRANCH   1   8
HETATM    8  O1  UNL     1      28.883  24.199  70.056  1.00  0.00    -0.353 OA
BRANCH   8   9
HETATM    9  C2  UNL     1      27.646  23.773  70.431  1.00  0.00     0.125 C 
HETATM   10  C1  UNL     1      27.415  23.443  71.683  1.00  0.00     0.037 C 
ENDBRANCH   8   9
ENDBRANCH   1   8
TORSDOF 2
ENDMDL
MODEL 2
REMARK VINA RESULT: -5.134822786      1.155      1.838
REMARK  2 active torsions:
REMARK  status: ('A' for Active; 'I' for Inactive)
REMARK    1  A    between atoms: C2_2  and  O1_3 
REMARK    2  A    between atoms: O1_3  and  C3_4 
ROOT
HETATM    1  C3  UNL     1      28.802  23.503  69.035  1.00  0.00     0.165 C 
HETATM    2  C4  UNL     1      29.639  24.754  69.194  1.00  0.00     0.039 C 
HETATM    3  C5  UNL     1      30.863  24.514  68.356  1.00  0.00     0.022 C 
HETATM    4  C6  UNL     1      30.480  24.367  66.909  1.00  0.00     0.119 C 
HETATM    5  N1  UNL     1      29.447  23.431  66.642  1.00  0.00    -0.400 N 
ATOM      6  H1  UNL     1      29.409  22.944  65.746  1.00  0.00     0.158 HD
HETATM    7  C7  UNL     1      28.479  23.184  67.627  1.00  0.00     0.087 C 
ENDROOT
BRANCH   1   8
HETATM    8  O1  UNL     1      27.616  23.697  69.780  1.00  0.00    -0.353 OA
BRANCH   8   9
HETATM    9  C2  UNL     1      27.536  23.762  71.138  1.00  0.00     0.125 C 
HETATM   10  C1  UNL     1      27.245  22.685  71.833  1.00  0.00     0.037 C 
ENDBRANCH   8   9
ENDBRANCH   1   8
TORSDOF 2
ENDMDL
MODEL 3
REMARK VINA RESULT: -4.820471372      3.339      5.828
REMARK  2 active torsions:
REMARK  status: ('A' for Active; 'I' for Inactive)
REMARK    1  A    between atoms: C2_2  and  O1_3 
REMARK    2  A    between atoms: O1_3  and  C3_4 
ROOT
HETATM    1  C3  UNL     1      27.322  23.359  71.943  1.00  0.00     0.165 C 
HETATM    2  C4  UNL     1      27.149  21.864  72.105  1.00  0.00     0.039 C 
HETATM    3  C5  UNL     1      27.111  21.635  73.590  1.00  0.00     0.022 C 
HETATM    4  C6  UNL     1      25.921  22.328  74.192  1.00  0.00     0.119 C 
HETATM    5  N1  UNL     1      25.775  23.699  73.852  1.00  0.00    -0.400 N 
ATOM      6  H1  UNL     1      25.315  24.345  74.493  1.00  0.00     0.158 HD
HETATM    7  C7  UNL     1      26.271  24.151  72.620  1.00  0.00     0.087 C 
ENDROOT
BRANCH   1   8
HETATM    8  O1  UNL     1      27.327  23.631  70.556  1.00  0.00    -0.353 OA
BRANCH   8   9
HETATM    9  C2  UNL     1      28.376  24.136  69.852  1.00  0.00     0.125 C 
HETATM   10  C1  UNL     1      28.687  23.629  68.679  1.00  0.00     0.037 C 
ENDBRANCH   8   9
ENDBRANCH   1   8
TORSDOF 2
ENDMDL
MODEL 4
REMARK VINA RESULT: -4.656190782      3.090      5.606
REMARK  2 active torsions:
REMARK  status: ('A' for Active; 'I' for Inactive)
REMARK    1  A    between atoms: C2_2  and  O1_3 
REMARK    2  A    between atoms: O1_3  and  C3_4 
ROOT
HETATM    1  C3  UNL     1      27.094  23.141  71.517  1.00  0.00     0.165 C 
HETATM    2  C4  UNL     1      27.517  24.286  72.413  1.00  0.00     0.039 C 
HETATM    3  C5  UNL     1      26.714  24.113  73.671  1.00  0.00     0.022 C 
HETATM    4  C6  UNL     1      27.072  22.816  74.342  1.00  0.00     0.119 C 
HETATM    5  N1  UNL     1      27.031  21.666  73.511  1.00  0.00    -0.400 N 
ATOM      6  H1  UNL     1      26.826  20.749  73.906  1.00  0.00     0.158 HD
HETATM    7  C7  UNL     1      27.277  21.809  72.136  1.00  0.00     0.087 C 
ENDROOT
BRANCH   1   8
HETATM    8  O1  UNL     1      27.852  23.239  70.328  1.00  0.00    -0.353 OA
BRANCH   8   9
HETATM    9  C2  UNL     1      28.506  24.352  69.895  1.00  0.00     0.125 C 
HETATM   10  C1  UNL     1      29.337  24.274  68.879  1.00  0.00     0.037 C 
ENDBRANCH   8   9
ENDBRANCH   1   8
TORSDOF 2
ENDMDL
MODEL 5
REMARK VINA RESULT: -4.578974532      3.565      6.008
REMARK  2 active torsions:
REMARK  status: ('A' for Active; 'I' for Inactive)
REMARK    1  A    between atoms: C2_2  and  O1_3 
REMARK    2  A    between atoms: O1_3  and  C3_4 
ROOT
HETATM    1  C3  UNL     1      26.839  22.500  72.123  1.00  0.00     0.165 C 
HETATM    2  C4  UNL     1      25.485  22.960  71.627  1.00  0.00     0.039 C 
HETATM    3  C5  UNL     1      24.528  22.622  72.737  1.00  0.00     0.022 C 
HETATM    4  C6  UNL     1      24.878  23.395  73.977  1.00  0.00     0.119 C 
HETATM    5  N1  UNL     1      26.235  23.312  74.388  1.00  0.00    -0.400 N 
ATOM      6  H1  UNL     1      26.485  23.405  75.372  1.00  0.00     0.158 HD
HETATM    7  C7  UNL     1      27.228  23.099  73.419  1.00  0.00     0.087 C 
ENDROOT
BRANCH   1   8
HETATM    8  O1  UNL     1      27.783  22.831  71.125  1.00  0.00    -0.353 OA
BRANCH   8   9
HETATM    9  C2  UNL     1      27.823  24.000  70.428  1.00  0.00     0.125 C 
HETATM   10  C1  UNL     1      28.708  24.165  69.469  1.00  0.00     0.037 C 
ENDBRANCH   8   9
ENDBRANCH   1   8
TORSDOF 2
ENDMDL
