MODEL 1
REMARK VINA RESULT: -6.948926501      0.000      0.000
REMARK  13 active torsions:
REMARK  status: ('A' for Active; 'I' for Inactive)
REMARK    1  A    between atoms: O1_2  and  N1_3 
REMARK    2  A    between atoms: N1_3  and  C2_5 
REMARK    3  A    between atoms: C3_8  and  N3_9 
REMARK    4  A    between atoms: C6_19  and  N6_20 
REMARK    5  A    between atoms: N6_20  and  C7_22 
REMARK    6  A    between atoms: C7_22  and  C8_23 
REMARK    7  A    between atoms: C8_23  and  N7_24 
REMARK    8  A    between atoms: N7_24  and  C9_27 
REMARK    9  A    between atoms: C9_27  and  C10_28 
REMARK   10  A    between atoms: C10_28  and  N8_29 
REMARK   11  A    between atoms: N8_29  and  C11_32 
REMARK   12  A    between atoms: C11_32  and  C12_33 
REMARK   13  A    between atoms: C12_33  and  O3_34 
ROOT
HETATM    1  C2  UNL     1      -1.633  77.327  33.635  1.00  0.00     0.170 A 
HETATM    2  N2  UNL     1      -1.882  77.350  34.955  1.00  0.00    -0.173 N 
ATOM      3  H2  UNL     1      -1.147  77.632  35.603  1.00  0.00     0.186 HD
HETATM    4  C3  UNL     1      -3.092  77.004  35.431  1.00  0.00     0.678 A 
HETATM    5  N4  UNL     1      -4.042  76.636  34.560  1.00  0.00    -0.184 N 
ATOM      6  H4  UNL     1      -4.958  76.375  34.925  1.00  0.00     0.184 HD
HETATM    7  C4  UNL     1      -3.850  76.595  33.222  1.00  0.00     0.148 A 
HETATM    8  C5  UNL     1      -4.823  76.219  32.331  1.00  0.00     0.289 A 
HETATM    9  O2  UNL     1      -5.950  75.894  32.742  1.00  0.00    -0.265 OA
HETATM   10  N5  UNL     1      -4.586  76.193  31.008  1.00  0.00    -0.154 N 
ATOM     11  H5  UNL     1      -5.323  75.910  30.362  1.00  0.00     0.187 HD
HETATM   12  C6  UNL     1      -3.385  76.538  30.540  1.00  0.00     0.681 A 
HETATM   13  N9  UNL     1      -2.400  76.914  31.400  1.00  0.00    -0.185 N 
ATOM     14  H9  UNL     1      -1.485  77.175  31.033  1.00  0.00     0.184 HD
HETATM   15  C13 UNL     1      -2.618  76.946  32.723  1.00  0.00     0.128 A 
ENDROOT
BRANCH  12  16
HETATM   16  N6  UNL     1      -3.096  76.535  29.308  1.00  0.00    -0.224 N 
ATOM     17  H6  UNL     1      -2.106  76.612  29.073  1.00  0.00     0.177 HD
BRANCH  16  18
HETATM   18  C7  UNL     1      -4.014  76.435  28.197  1.00  0.00     0.165 C 
BRANCH  18  19
HETATM   19  C8  UNL     1      -3.808  77.662  27.341  1.00  0.00     0.252 C 
BRANCH  19  20
HETATM   20  N7  UNL     1      -2.542  77.688  26.648  1.00  0.00    -0.072 N 
ATOM     21  H72 UNL     1      -1.800  78.102  27.212  1.00  0.00     0.277 HD
ATOM     22  H71 UNL     1      -2.138  76.757  26.543  1.00  0.00     0.277 HD
BRANCH  20  23
HETATM   23  C9  UNL     1      -2.712  78.355  25.394  1.00  0.00     0.259 C 
BRANCH  23  24
HETATM   24  C10 UNL     1      -4.050  79.065  25.289  1.00  0.00     0.259 C 
BRANCH  24  25
HETATM   25  N8  UNL     1      -4.042  80.102  24.307  1.00  0.00    -0.072 N 
ATOM     26  H82 UNL     1      -3.218  80.698  24.384  1.00  0.00     0.277 HD
ATOM     27  H81 UNL     1      -3.875  79.741  23.368  1.00  0.00     0.277 HD
BRANCH  25  28
HETATM   28  C11 UNL     1      -5.267  80.856  24.388  1.00  0.00     0.258 C 
BRANCH  28  29
HETATM   29  C12 UNL     1      -5.091  82.268  23.890  1.00  0.00     0.191 C 
BRANCH  29  30
HETATM   30  O3  UNL     1      -3.857  82.379  23.238  1.00  0.00    -0.399 OA
ATOM     31  H3  UNL     1      -3.817  83.210  22.780  1.00  0.00     0.209 HD
ENDBRANCH  29  30
ENDBRANCH  28  29
ENDBRANCH  25  28
ENDBRANCH  24  25
ENDBRANCH  23  24
ENDBRANCH  20  23
ENDBRANCH  19  20
ENDBRANCH  18  19
ENDBRANCH  16  18
ENDBRANCH  12  16
BRANCH   1  32
HETATM   32  N1  UNL     1      -0.489  77.649  33.132  1.00  0.00    -0.248 N 
ATOM     33  H1  UNL     1      -0.435  78.137  32.238  1.00  0.00     0.196 HD
BRANCH  32  34
HETATM   34  O1  UNL     1       0.663  77.321  33.827  1.00  0.00    -0.284 OA
HETATM   35  C1  UNL     1       1.614  78.343  34.003  1.00  0.00     0.237 C 
ENDBRANCH  32  34
ENDBRANCH   1  32
BRANCH   4  36
HETATM   36  N3  UNL     1      -3.320  77.031  36.721  1.00  0.00    -0.234 N 
ATOM     37  H32 UNL     1      -2.795  77.647  37.343  1.00  0.00     0.174 HD
ATOM     38  H31 UNL     1      -4.036  76.427  37.125  1.00  0.00     0.174 HD
ENDBRANCH   4  36
TORSDOF 13
ENDMDL
MODEL 2
REMARK VINA RESULT: -6.863696969      2.606      9.688
REMARK  13 active torsions:
REMARK  status: ('A' for Active; 'I' for Inactive)
REMARK    1  A    between atoms: O1_2  and  N1_3 
REMARK    2  A    between atoms: N1_3  and  C2_5 
REMARK    3  A    between atoms: C3_8  and  N3_9 
REMARK    4  A    between atoms: C6_19  and  N6_20 
REMARK    5  A    between atoms: N6_20  and  C7_22 
REMARK    6  A    between atoms: C7_22  and  C8_23 
REMARK    7  A    between atoms: C8_23  and  N7_24 
REMARK    8  A    between atoms: N7_24  and  C9_27 
REMARK    9  A    between atoms: C9_27  and  C10_28 
REMARK   10  A    between atoms: C10_28  and  N8_29 
REMARK   11  A    between atoms: N8_29  and  C11_32 
REMARK   12  A    between atoms: C11_32  and  C12_33 
REMARK   13  A    between atoms: C12_33  and  O3_34 
ROOT
HETATM    1  C2  UNL     1      -6.171  80.351  25.667  1.00  0.00     0.170 A 
HETATM    2  N2  UNL     1      -5.946  81.076  24.559  1.00  0.00    -0.173 N 
ATOM      3  H2  UNL     1      -6.646  81.745  24.243  1.00  0.00     0.186 HD
HETATM    4  C3  UNL     1      -4.805  80.927  23.861  1.00  0.00     0.678 A 
HETATM    5  N4  UNL     1      -3.899  80.040  24.296  1.00  0.00    -0.184 N 
ATOM      6  H4  UNL     1      -3.036  79.930  23.764  1.00  0.00     0.184 HD
HETATM    7  C4  UNL     1      -4.070  79.283  25.404  1.00  0.00     0.148 A 
HETATM    8  C5  UNL     1      -3.142  78.376  25.848  1.00  0.00     0.289 A 
HETATM    9  O2  UNL     1      -2.079  78.217  25.224  1.00  0.00    -0.265 OA
HETATM   10  N5  UNL     1      -3.355  77.645  26.956  1.00  0.00    -0.154 N 
ATOM     11  H5  UNL     1      -2.653  76.975  27.270  1.00  0.00     0.187 HD
HETATM   12  C6  UNL     1      -4.487  77.797  27.646  1.00  0.00     0.681 A 
HETATM   13  N9  UNL     1      -5.426  78.688  27.228  1.00  0.00    -0.185 N 
ATOM     14  H9  UNL     1      -6.289  78.796  27.761  1.00  0.00     0.184 HD
HETATM   15  C13 UNL     1      -5.232  79.426  26.126  1.00  0.00     0.128 A 
ENDROOT
BRANCH  12  16
HETATM   16  N6  UNL     1      -4.751  77.141  28.696  1.00  0.00    -0.224 N 
ATOM     17  H6  UNL     1      -5.705  76.791  28.786  1.00  0.00     0.177 HD
BRANCH  16  18
HETATM   18  C7  UNL     1      -3.848  76.833  29.781  1.00  0.00     0.165 C 
BRANCH  18  19
HETATM   19  C8  UNL     1      -3.906  75.339  29.994  1.00  0.00     0.252 C 
BRANCH  19  20
HETATM   20  N7  UNL     1      -3.027  74.861  31.034  1.00  0.00    -0.072 N 
ATOM     21  H72 UNL     1      -3.104  73.853  31.175  1.00  0.00     0.277 HD
ATOM     22  H71 UNL     1      -2.046  74.892  30.759  1.00  0.00     0.277 HD
BRANCH  20  23
HETATM   23  C9  UNL     1      -3.282  75.600  32.233  1.00  0.00     0.259 C 
BRANCH  23  24
HETATM   24  C10 UNL     1      -2.070  75.665  33.145  1.00  0.00     0.259 C 
BRANCH  24  25
HETATM   25  N8  UNL     1      -2.424  75.621  34.528  1.00  0.00    -0.072 N 
ATOM     26  H82 UNL     1      -3.227  76.212  34.738  1.00  0.00     0.277 HD
ATOM     27  H81 UNL     1      -2.829  74.723  34.792  1.00  0.00     0.277 HD
BRANCH  25  28
HETATM   28  C11 UNL     1      -1.278  75.956  35.333  1.00  0.00     0.258 C 
BRANCH  28  29
HETATM   29  C12 UNL     1      -1.490  75.610  36.784  1.00  0.00     0.191 C 
BRANCH  29  30
HETATM   30  O3  UNL     1      -0.517  74.685  37.186  1.00  0.00    -0.399 OA
ATOM     31  H3  UNL     1      -0.890  74.099  37.834  1.00  0.00     0.209 HD
ENDBRANCH  29  30
ENDBRANCH  28  29
ENDBRANCH  25  28
ENDBRANCH  24  25
ENDBRANCH  23  24
ENDBRANCH  20  23
ENDBRANCH  19  20
ENDBRANCH  18  19
ENDBRANCH  16  18
ENDBRANCH  12  16
BRANCH   1  32
HETATM   32  N1  UNL     1      -7.249  80.458  26.367  1.00  0.00    -0.248 N 
ATOM     33  H1  UNL     1      -8.119  80.033  26.048  1.00  0.00     0.196 HD
BRANCH  32  34
HETATM   34  O1  UNL     1      -7.204  81.159  27.560  1.00  0.00    -0.284 OA
HETATM   35  C1  UNL     1      -7.904  82.379  27.609  1.00  0.00     0.237 C 
ENDBRANCH  32  34
ENDBRANCH   1  32
BRANCH   4  36
HETATM   36  N3  UNL     1      -4.600  81.642  22.782  1.00  0.00    -0.234 N 
ATOM     37  H32 UNL     1      -4.368  82.634  22.835  1.00  0.00     0.174 HD
ATOM     38  H31 UNL     1      -4.672  81.207  21.862  1.00  0.00     0.174 HD
ENDBRANCH   4  36
TORSDOF 13
ENDMDL
MODEL 3
REMARK VINA RESULT: -6.799883693      2.591      9.411
REMARK  13 active torsions:
REMARK  status: ('A' for Active; 'I' for Inactive)
REMARK    1  A    between atoms: O1_2  and  N1_3 
REMARK    2  A    between atoms: N1_3  and  C2_5 
REMARK    3  A    between atoms: C3_8  and  N3_9 
REMARK    4  A    between atoms: C6_19  and  N6_20 
REMARK    5  A    between atoms: N6_20  and  C7_22 
REMARK    6  A    between atoms: C7_22  and  C8_23 
REMARK    7  A    between atoms: C8_23  and  N7_24 
REMARK    8  A    between atoms: N7_24  and  C9_27 
REMARK    9  A    between atoms: C9_27  and  C10_28 
REMARK   10  A    between atoms: C10_28  and  N8_29 
REMARK   11  A    between atoms: N8_29  and  C11_32 
REMARK   12  A    between atoms: C11_32  and  C12_33 
REMARK   13  A    between atoms: C12_33  and  O3_34 
ROOT
HETATM    1  C2  UNL     1      -6.272  80.398  25.725  1.00  0.00     0.170 A 
HETATM    2  N2  UNL     1      -6.082  81.129  24.614  1.00  0.00    -0.173 N 
ATOM      3  H2  UNL     1      -6.792  81.801  24.325  1.00  0.00     0.186 HD
HETATM    4  C3  UNL     1      -4.965  80.984  23.878  1.00  0.00     0.678 A 
HETATM    5  N4  UNL     1      -4.046  80.094  24.278  1.00  0.00    -0.184 N 
ATOM      6  H4  UNL     1      -3.201  79.987  23.717  1.00  0.00     0.184 HD
HETATM    7  C4  UNL     1      -4.181  79.331  25.387  1.00  0.00     0.148 A 
HETATM    8  C5  UNL     1      -3.239  78.421  25.795  1.00  0.00     0.289 A 
HETATM    9  O2  UNL     1      -2.198  78.266  25.135  1.00  0.00    -0.265 OA
HETATM   10  N5  UNL     1      -3.417  77.684  26.906  1.00  0.00    -0.154 N 
ATOM     11  H5  UNL     1      -2.705  77.012  27.192  1.00  0.00     0.187 HD
HETATM   12  C6  UNL     1      -4.525  77.832  27.633  1.00  0.00     0.681 A 
HETATM   13  N9  UNL     1      -5.477  78.726  27.251  1.00  0.00    -0.185 N 
ATOM     14  H9  UNL     1      -6.322  78.832  27.813  1.00  0.00     0.184 HD
HETATM   15  C13 UNL     1      -5.318  79.471  26.147  1.00  0.00     0.128 A 
ENDROOT
BRANCH  12  16
HETATM   16  N6  UNL     1      -4.755  77.171  28.688  1.00  0.00    -0.224 N 
ATOM     17  H6  UNL     1      -5.714  77.186  29.034  1.00  0.00     0.177 HD
BRANCH  16  18
HETATM   18  C7  UNL     1      -3.806  76.396  29.454  1.00  0.00     0.165 C 
BRANCH  18  19
HETATM   19  C8  UNL     1      -3.634  77.096  30.781  1.00  0.00     0.252 C 
BRANCH  19  20
HETATM   20  N7  UNL     1      -2.353  76.861  31.405  1.00  0.00    -0.072 N 
ATOM     21  H72 UNL     1      -2.190  75.873  31.598  1.00  0.00     0.277 HD
ATOM     22  H71 UNL     1      -1.575  77.011  30.763  1.00  0.00     0.277 HD
BRANCH  20  23
HETATM   23  C9  UNL     1      -2.254  77.671  32.581  1.00  0.00     0.259 C 
BRANCH  23  24
HETATM   24  C10 UNL     1      -1.106  77.252  33.480  1.00  0.00     0.259 C 
BRANCH  24  25
HETATM   25  N8  UNL     1       0.064  78.046  33.278  1.00  0.00    -0.072 N 
ATOM     26  H82 UNL     1       0.578  77.768  32.442  1.00  0.00     0.277 HD
ATOM     27  H81 UNL     1      -0.163  79.000  33.000  1.00  0.00     0.277 HD
BRANCH  25  28
HETATM   28  C11 UNL     1       0.888  78.006  34.459  1.00  0.00     0.258 C 
BRANCH  28  29
HETATM   29  C12 UNL     1       0.064  78.054  35.720  1.00  0.00     0.191 C 
BRANCH  29  30
HETATM   30  O3  UNL     1       0.694  78.888  36.653  1.00  0.00    -0.399 OA
ATOM     31  H3  UNL     1       0.212  78.865  37.471  1.00  0.00     0.209 HD
ENDBRANCH  29  30
ENDBRANCH  28  29
ENDBRANCH  25  28
ENDBRANCH  24  25
ENDBRANCH  23  24
ENDBRANCH  20  23
ENDBRANCH  19  20
ENDBRANCH  18  19
ENDBRANCH  16  18
ENDBRANCH  12  16
BRANCH   1  32
HETATM   32  N1  UNL     1      -7.325  80.502  26.461  1.00  0.00    -0.248 N 
ATOM     33  H1  UNL     1      -8.205  80.075  26.170  1.00  0.00     0.196 HD
BRANCH  32  34
HETATM   34  O1  UNL     1      -7.242  81.201  27.653  1.00  0.00    -0.284 OA
HETATM   35  C1  UNL     1      -7.719  82.525  27.650  1.00  0.00     0.237 C 
ENDBRANCH  32  34
ENDBRANCH   1  32
BRANCH   4  36
HETATM   36  N3  UNL     1      -4.795  81.705  22.797  1.00  0.00    -0.234 N 
ATOM     37  H32 UNL     1      -5.262  81.470  21.920  1.00  0.00     0.174 HD
ATOM     38  H31 UNL     1      -4.185  82.521  22.820  1.00  0.00     0.174 HD
ENDBRANCH   4  36
TORSDOF 13
ENDMDL
MODEL 4
REMARK VINA RESULT: -6.739620848      2.208      3.303
REMARK  13 active torsions:
REMARK  status: ('A' for Active; 'I' for Inactive)
REMARK    1  A    between atoms: O1_2  and  N1_3 
REMARK    2  A    between atoms: N1_3  and  C2_5 
REMARK    3  A    between atoms: C3_8  and  N3_9 
REMARK    4  A    between atoms: C6_19  and  N6_20 
REMARK    5  A    between atoms: N6_20  and  C7_22 
REMARK    6  A    between atoms: C7_22  and  C8_23 
REMARK    7  A    between atoms: C8_23  and  N7_24 
REMARK    8  A    between atoms: N7_24  and  C9_27 
REMARK    9  A    between atoms: C9_27  and  C10_28 
REMARK   10  A    between atoms: C10_28  and  N8_29 
REMARK   11  A    between atoms: N8_29  and  C11_32 
REMARK   12  A    between atoms: C11_32  and  C12_33 
REMARK   13  A    between atoms: C12_33  and  O3_34 
ROOT
HETATM    1  C2  UNL     1      -0.588  77.679  35.965  1.00  0.00     0.170 A 
HETATM    2  N2  UNL     1      -0.796  78.437  37.055  1.00  0.00    -0.173 N 
ATOM      3  H2  UNL     1      -0.002  78.734  37.622  1.00  0.00     0.186 HD
HETATM    4  C3  UNL     1      -2.040  78.809  37.405  1.00  0.00     0.678 A 
HETATM    5  N4  UNL     1      -3.067  78.407  36.643  1.00  0.00    -0.184 N 
ATOM      6  H4  UNL     1      -4.009  78.691  36.913  1.00  0.00     0.184 HD
HETATM    7  C4  UNL     1      -2.920  77.644  35.536  1.00  0.00     0.148 A 
HETATM    8  C5  UNL     1      -3.971  77.233  34.757  1.00  0.00     0.289 A 
HETATM    9  O2  UNL     1      -5.132  77.562  35.057  1.00  0.00    -0.265 OA
HETATM   10  N5  UNL     1      -3.777  76.475  33.664  1.00  0.00    -0.154 N 
ATOM     11  H5  UNL     1      -4.573  76.179  33.098  1.00  0.00     0.187 HD
HETATM   12  C6  UNL     1      -2.540  76.110  33.320  1.00  0.00     0.681 A 
HETATM   13  N9  UNL     1      -1.478  76.501  34.074  1.00  0.00    -0.185 N 
ATOM     14  H9  UNL     1      -0.537  76.216  33.804  1.00  0.00     0.184 HD
HETATM   15  C13 UNL     1      -1.653  77.258  35.168  1.00  0.00     0.128 A 
ENDROOT
BRANCH  12  16
HETATM   16  N6  UNL     1      -2.287  75.398  32.304  1.00  0.00    -0.224 N 
ATOM     17  H6  UNL     1      -1.404  75.583  31.828  1.00  0.00     0.177 HD
BRANCH  16  18
HETATM   18  C7  UNL     1      -3.112  74.351  31.745  1.00  0.00     0.165 C 
BRANCH  18  19
HETATM   19  C8  UNL     1      -3.986  74.991  30.694  1.00  0.00     0.252 C 
BRANCH  19  20
HETATM   20  N7  UNL     1      -3.288  75.919  29.837  1.00  0.00    -0.072 N 
ATOM     21  H72 UNL     1      -3.395  76.886  30.142  1.00  0.00     0.277 HD
ATOM     22  H71 UNL     1      -2.275  75.851  29.934  1.00  0.00     0.277 HD
BRANCH  20  23
HETATM   23  C9  UNL     1      -3.722  75.721  28.487  1.00  0.00     0.259 C 
BRANCH  23  24
HETATM   24  C10 UNL     1      -4.614  76.845  27.992  1.00  0.00     0.259 C 
BRANCH  24  25
HETATM   25  N8  UNL     1      -3.874  78.011  27.629  1.00  0.00    -0.072 N 
ATOM     26  H82 UNL     1      -3.984  78.763  28.308  1.00  0.00     0.277 HD
ATOM     27  H81 UNL     1      -2.868  77.872  27.725  1.00  0.00     0.277 HD
BRANCH  25  28
HETATM   28  C11 UNL     1      -4.240  78.423  26.298  1.00  0.00     0.258 C 
BRANCH  28  29
HETATM   29  C12 UNL     1      -3.048  78.474  25.377  1.00  0.00     0.191 C 
BRANCH  29  30
HETATM   30  O3  UNL     1      -1.873  78.436  26.139  1.00  0.00    -0.399 OA
ATOM     31  H3  UNL     1      -1.580  79.324  26.309  1.00  0.00     0.209 HD
ENDBRANCH  29  30
ENDBRANCH  28  29
ENDBRANCH  25  28
ENDBRANCH  24  25
ENDBRANCH  23  24
ENDBRANCH  20  23
ENDBRANCH  19  20
ENDBRANCH  18  19
ENDBRANCH  16  18
ENDBRANCH  12  16
BRANCH   1  32
HETATM   32  N1  UNL     1       0.586  77.297  35.590  1.00  0.00    -0.248 N 
ATOM     33  H1  UNL     1       0.833  76.308  35.586  1.00  0.00     0.196 HD
BRANCH  32  34
HETATM   34  O1  UNL     1       1.505  78.254  35.194  1.00  0.00    -0.284 OA
HETATM   35  C1  UNL     1       1.945  78.201  33.858  1.00  0.00     0.237 C 
ENDBRANCH  32  34
ENDBRANCH   1  32
BRANCH   4  36
HETATM   36  N3  UNL     1      -2.227  79.548  38.470  1.00  0.00    -0.234 N 
ATOM     37  H32 UNL     1      -1.491  79.678  39.166  1.00  0.00     0.174 HD
ATOM     38  H31 UNL     1      -3.124  80.010  38.619  1.00  0.00     0.174 HD
ENDBRANCH   4  36
TORSDOF 13
ENDMDL
MODEL 5
REMARK VINA RESULT: -6.655097692      7.632     10.945
REMARK  13 active torsions:
REMARK  status: ('A' for Active; 'I' for Inactive)
REMARK    1  A    between atoms: O1_2  and  N1_3 
REMARK    2  A    between atoms: N1_3  and  C2_5 
REMARK    3  A    between atoms: C3_8  and  N3_9 
REMARK    4  A    between atoms: C6_19  and  N6_20 
REMARK    5  A    between atoms: N6_20  and  C7_22 
REMARK    6  A    between atoms: C7_22  and  C8_23 
REMARK    7  A    between atoms: C8_23  and  N7_24 
REMARK    8  A    between atoms: N7_24  and  C9_27 
REMARK    9  A    between atoms: C9_27  and  C10_28 
REMARK   10  A    between atoms: C10_28  and  N8_29 
REMARK   11  A    between atoms: N8_29  and  C11_32 
REMARK   12  A    between atoms: C11_32  and  C12_33 
REMARK   13  A    between atoms: C12_33  and  O3_34 
ROOT
HETATM    1  C2  UNL     1      -0.562  78.247  36.330  1.00  0.00     0.170 A 
HETATM    2  N2  UNL     1      -0.920  76.953  36.282  1.00  0.00    -0.173 N 
ATOM      3  H2  UNL     1      -0.427  76.316  35.658  1.00  0.00     0.186 HD
HETATM    4  C3  UNL     1      -1.923  76.489  37.050  1.00  0.00     0.678 A 
HETATM    5  N4  UNL     1      -2.557  77.346  37.863  1.00  0.00    -0.184 N 
ATOM      6  H4  UNL     1      -3.316  76.990  38.443  1.00  0.00     0.184 HD
HETATM    7  C4  UNL     1      -2.241  78.658  37.955  1.00  0.00     0.148 A 
HETATM    8  C5  UNL     1      -2.889  79.534  38.787  1.00  0.00     0.289 A 
HETATM    9  O2  UNL     1      -3.820  79.133  39.507  1.00  0.00    -0.265 OA
HETATM   10  N5  UNL     1      -2.540  80.831  38.845  1.00  0.00    -0.154 N 
ATOM     11  H5  UNL     1      -3.036  81.467  39.470  1.00  0.00     0.187 HD
HETATM   12  C6  UNL     1      -1.544  81.287  38.083  1.00  0.00     0.681 A 
HETATM   13  N9  UNL     1      -0.884  80.442  37.247  1.00  0.00    -0.185 N 
ATOM     14  H9  UNL     1      -0.124  80.799  36.667  1.00  0.00     0.184 HD
HETATM   15  C13 UNL     1      -1.217  79.144  37.175  1.00  0.00     0.128 A 
ENDROOT
BRANCH  12  16
HETATM   16  N6  UNL     1      -1.166  82.495  38.089  1.00  0.00    -0.224 N 
ATOM     17  H6  UNL     1      -1.827  83.176  38.462  1.00  0.00     0.177 HD
BRANCH  16  18
HETATM   18  C7  UNL     1       0.100  83.014  37.625  1.00  0.00     0.165 C 
BRANCH  18  19
HETATM   19  C8  UNL     1       0.518  84.093  38.596  1.00  0.00     0.252 C 
BRANCH  19  20
HETATM   20  N7  UNL     1       1.907  84.470  38.489  1.00  0.00    -0.072 N 
ATOM     21  H72 UNL     1       2.458  83.782  37.975  1.00  0.00     0.277 HD
ATOM     22  H71 UNL     1       2.047  85.262  37.862  1.00  0.00     0.277 HD
BRANCH  20  23
HETATM   23  C9  UNL     1       2.424  84.714  39.802  1.00  0.00     0.259 C 
BRANCH  23  24
HETATM   24  C10 UNL     1       3.879  85.146  39.782  1.00  0.00     0.259 C 
BRANCH  24  25
HETATM   25  N8  UNL     1       4.712  84.294  40.569  1.00  0.00    -0.072 N 
ATOM     26  H82 UNL     1       5.533  84.782  40.926  1.00  0.00     0.277 HD
ATOM     27  H81 UNL     1       4.283  84.055  41.462  1.00  0.00     0.277 HD
BRANCH  25  28
HETATM   28  C11 UNL     1       5.066  83.124  39.807  1.00  0.00     0.258 C 
BRANCH  28  29
HETATM   29  C12 UNL     1       5.529  83.476  38.417  1.00  0.00     0.191 C 
BRANCH  29  30
HETATM   30  O3  UNL     1       4.939  82.600  37.497  1.00  0.00    -0.399 OA
ATOM     31  H3  UNL     1       4.057  82.893  37.304  1.00  0.00     0.209 HD
ENDBRANCH  29  30
ENDBRANCH  28  29
ENDBRANCH  25  28
ENDBRANCH  24  25
ENDBRANCH  23  24
ENDBRANCH  20  23
ENDBRANCH  19  20
ENDBRANCH  18  19
ENDBRANCH  16  18
ENDBRANCH  12  16
BRANCH   1  32
HETATM   32  N1  UNL     1       0.391  78.738  35.614  1.00  0.00    -0.248 N 
ATOM     33  H1  UNL     1       0.352  79.704  35.290  1.00  0.00     0.196 HD
BRANCH  32  34
HETATM   34  O1  UNL     1       1.469  77.930  35.291  1.00  0.00    -0.284 OA
HETATM   35  C1  UNL     1       2.043  78.111  34.019  1.00  0.00     0.237 C 
ENDBRANCH  32  34
ENDBRANCH   1  32
BRANCH   4  36
HETATM   36  N3  UNL     1      -2.260  75.225  36.991  1.00  0.00    -0.234 N 
ATOM     37  H32 UNL     1      -1.752  74.512  37.516  1.00  0.00     0.174 HD
ATOM     38  H31 UNL     1      -3.046  74.933  36.411  1.00  0.00     0.174 HD
ENDBRANCH   4  36
TORSDOF 13
ENDMDL
