MODEL 1
REMARK VINA RESULT: -6.901744262      0.000      0.000
REMARK  15 active torsions:
REMARK  status: ('A' for Active; 'I' for Inactive)
REMARK    1  A    between atoms: C2_2  and  C3_3 
REMARK    2  A    between atoms: C3_3  and  N1_4 
REMARK    3  A    between atoms: N1_4  and  C4_5 
REMARK    4  A    between atoms: N1_4  and  C7_12 
REMARK    5  A    between atoms: C4_5  and  C5_6 
REMARK    6  A    between atoms: C5_6  and  C6_7 
REMARK    7  A    between atoms: C6_7  and  N2_8 
REMARK    8  A    between atoms: C7_12  and  C8_13 
REMARK    9  A    between atoms: C8_13  and  N3_14 
REMARK   10  A    between atoms: N3_14  and  C9_16 
REMARK   11  A    between atoms: C10_19  and  N5_20 
REMARK   12  A    between atoms: C11_25  and  N7_26 
REMARK   13  A    between atoms: N7_26  and  C12_28 
REMARK   14  A    between atoms: C13_32  and  O1_33 
REMARK   15  A    between atoms: C14_35  and  O2_36 
ROOT
HETATM    1  C9  UNL     1      -4.275  76.080  32.646  1.00  0.00     0.707 A 
HETATM    2  N4  UNL     1      -3.493  74.994  32.569  1.00  0.00    -0.022 N 
ATOM      3  H4  UNL     1      -3.194  74.534  33.429  1.00  0.00     0.203 HD
HETATM    4  C10 UNL     1      -3.088  74.491  31.376  1.00  0.00     0.705 A 
HETATM    5  N6  UNL     1      -3.482  75.097  30.242  1.00  0.00    -0.022 N 
ATOM      6  H6  UNL     1      -3.179  74.720  29.344  1.00  0.00     0.203 HD
HETATM    7  C11 UNL     1      -4.265  76.186  30.266  1.00  0.00     0.709 A 
HETATM    8  N9  UNL     1      -4.644  76.652  31.465  1.00  0.00    -0.021 N 
ATOM      9  H9  UNL     1      -5.239  77.481  31.495  1.00  0.00     0.203 HD
ENDROOT
BRANCH   1  10
HETATM   10  N3  UNL     1      -4.668  76.577  33.751  1.00  0.00    -0.220 N 
ATOM     11  H3  UNL     1      -5.667  76.769  33.821  1.00  0.00     0.178 HD
BRANCH  10  12
HETATM   12  C8  UNL     1      -3.893  76.903  34.906  1.00  0.00     0.182 C 
BRANCH  12  13
HETATM   13  C7  UNL     1      -2.662  77.687  34.518  1.00  0.00     0.083 C 
BRANCH  13  14
HETATM   14  N1  UNL     1      -1.424  77.179  34.959  1.00  0.00    -0.372 N 
BRANCH  14  15
HETATM   15  C3  UNL     1      -1.512  75.874  35.485  1.00  0.00     0.062 C 
BRANCH  15  16
HETATM   16  C2  UNL     1      -0.866  75.713  36.847  1.00  0.00     0.040 C 
HETATM   17  C1  UNL     1      -1.047  76.905  37.737  1.00  0.00     0.010 C 
ENDBRANCH  15  16
ENDBRANCH  14  15
BRANCH  14  18
HETATM   18  C4  UNL     1      -0.308  77.483  34.135  1.00  0.00     0.128 C 
BRANCH  18  19
HETATM   19  C5  UNL     1       0.776  78.253  34.848  1.00  0.00     0.047 C 
BRANCH  19  20
HETATM   20  C6  UNL     1       1.693  78.965  33.879  1.00  0.00     0.231 C 
BRANCH  20  21
HETATM   21  N2  UNL     1       2.340  78.014  33.000  1.00  0.00    -0.079 N 
ATOM     22  H23 UNL     1       2.695  78.460  32.154  1.00  0.00     0.274 HD
ATOM     23  H22 UNL     1       3.226  77.686  33.383  1.00  0.00     0.274 HD
ATOM     24  H21 UNL     1       1.711  77.241  32.785  1.00  0.00     0.274 HD
ENDBRANCH  20  21
ENDBRANCH  19  20
ENDBRANCH  18  19
ENDBRANCH  14  18
ENDBRANCH  13  14
ENDBRANCH  12  13
ENDBRANCH  10  12
ENDBRANCH   1  10
BRANCH   4  25
HETATM   25  N5  UNL     1      -2.325  73.428  31.312  1.00  0.00    -0.234 N 
ATOM     26  H52 UNL     1      -2.643  72.608  30.794  1.00  0.00     0.174 HD
ATOM     27  H51 UNL     1      -1.416  73.402  31.773  1.00  0.00     0.174 HD
ENDBRANCH   4  25
BRANCH   7  28
HETATM   28  N7  UNL     1      -4.638  76.769  29.178  1.00  0.00    -0.193 N 
ATOM     29  H7  UNL     1      -5.591  76.600  28.852  1.00  0.00     0.180 HD
BRANCH  28  30
HETATM   30  C12 UNL     1      -3.817  77.631  28.398  1.00  0.00     0.335 C 
HETATM   31  N8  UNL     1      -4.513  78.499  27.469  1.00  0.00    -0.022 N 
HETATM   32  C13 UNL     1      -3.470  78.231  26.501  1.00  0.00     0.354 C 
ATOM     33  H82 UNL     1      -5.493  78.335  27.238  1.00  0.00     0.282 HD
ATOM     34  H81 UNL     1      -4.750  79.456  27.728  1.00  0.00     0.282 HD
HETATM   35  C14 UNL     1      -3.216  76.916  27.196  1.00  0.00     0.225 C 
BRANCH  32  36
HETATM   36  O1  UNL     1      -3.945  78.111  25.198  1.00  0.00    -0.368 OA
ATOM     37  H1  UNL     1      -4.785  77.670  25.144  1.00  0.00     0.212 HD
ENDBRANCH  32  36
BRANCH  35  38
HETATM   38  O2  UNL     1      -1.876  76.581  27.312  1.00  0.00    -0.387 OA
ATOM     39  H2  UNL     1      -1.279  77.096  26.782  1.00  0.00     0.210 HD
ENDBRANCH  35  38
ENDBRANCH  28  30
ENDBRANCH   7  28
TORSDOF 15
ENDMDL
MODEL 2
REMARK VINA RESULT: -6.843880978      1.820      3.133
REMARK  15 active torsions:
REMARK  status: ('A' for Active; 'I' for Inactive)
REMARK    1  A    between atoms: C2_2  and  C3_3 
REMARK    2  A    between atoms: C3_3  and  N1_4 
REMARK    3  A    between atoms: N1_4  and  C4_5 
REMARK    4  A    between atoms: N1_4  and  C7_12 
REMARK    5  A    between atoms: C4_5  and  C5_6 
REMARK    6  A    between atoms: C5_6  and  C6_7 
REMARK    7  A    between atoms: C6_7  and  N2_8 
REMARK    8  A    between atoms: C7_12  and  C8_13 
REMARK    9  A    between atoms: C8_13  and  N3_14 
REMARK   10  A    between atoms: N3_14  and  C9_16 
REMARK   11  A    between atoms: C10_19  and  N5_20 
REMARK   12  A    between atoms: C11_25  and  N7_26 
REMARK   13  A    between atoms: N7_26  and  C12_28 
REMARK   14  A    between atoms: C13_32  and  O1_33 
REMARK   15  A    between atoms: C14_35  and  O2_36 
ROOT
HETATM    1  C9  UNL     1      -2.037  76.350  32.119  1.00  0.00     0.707 A 
HETATM    2  N4  UNL     1      -2.315  75.058  32.345  1.00  0.00    -0.022 N 
ATOM      3  H4  UNL     1      -1.818  74.565  33.087  1.00  0.00     0.203 HD
HETATM    4  C10 UNL     1      -3.241  74.390  31.613  1.00  0.00     0.705 A 
HETATM    5  N6  UNL     1      -3.896  75.040  30.636  1.00  0.00    -0.022 N 
ATOM      6  H6  UNL     1      -4.593  74.540  30.084  1.00  0.00     0.203 HD
HETATM    7  C11 UNL     1      -3.654  76.332  30.370  1.00  0.00     0.709 A 
HETATM    8  N9  UNL     1      -2.732  76.957  31.116  1.00  0.00    -0.021 N 
ATOM      9  H9  UNL     1      -2.539  77.941  30.922  1.00  0.00     0.203 HD
ENDROOT
BRANCH   1  10
HETATM   10  N3  UNL     1      -1.170  77.002  32.787  1.00  0.00    -0.220 N 
ATOM     11  H3  UNL     1      -0.260  77.115  32.340  1.00  0.00     0.178 HD
BRANCH  10  12
HETATM   12  C8  UNL     1      -1.303  77.596  34.079  1.00  0.00     0.182 C 
BRANCH  12  13
HETATM   13  C7  UNL     1      -0.531  76.808  35.110  1.00  0.00     0.083 C 
BRANCH  13  14
HETATM   14  N1  UNL     1      -0.368  77.409  36.374  1.00  0.00    -0.372 N 
BRANCH  14  15
HETATM   15  C3  UNL     1      -0.570  78.804  36.357  1.00  0.00     0.062 C 
BRANCH  15  16
HETATM   16  C2  UNL     1      -1.578  79.293  37.379  1.00  0.00     0.040 C 
HETATM   17  C1  UNL     1      -1.510  80.770  37.621  1.00  0.00     0.010 C 
ENDBRANCH  15  16
ENDBRANCH  14  15
BRANCH  14  18
HETATM   18  C4  UNL     1      -0.894  76.679  37.472  1.00  0.00     0.128 C 
BRANCH  18  19
HETATM   19  C5  UNL     1      -1.967  75.694  37.082  1.00  0.00     0.047 C 
BRANCH  19  20
HETATM   20  C6  UNL     1      -3.340  76.154  37.519  1.00  0.00     0.231 C 
BRANCH  20  21
HETATM   21  N2  UNL     1      -4.061  76.728  36.402  1.00  0.00    -0.079 N 
ATOM     22  H23 UNL     1      -3.698  77.647  36.149  1.00  0.00     0.274 HD
ATOM     23  H22 UNL     1      -3.861  76.240  35.530  1.00  0.00     0.274 HD
ATOM     24  H21 UNL     1      -5.062  76.757  36.599  1.00  0.00     0.274 HD
ENDBRANCH  20  21
ENDBRANCH  19  20
ENDBRANCH  18  19
ENDBRANCH  14  18
ENDBRANCH  13  14
ENDBRANCH  12  13
ENDBRANCH  10  12
ENDBRANCH   1  10
BRANCH   4  25
HETATM   25  N5  UNL     1      -3.507  73.128  31.844  1.00  0.00    -0.234 N 
ATOM     26  H52 UNL     1      -3.239  72.711  32.737  1.00  0.00     0.174 HD
ATOM     27  H51 UNL     1      -3.976  72.551  31.147  1.00  0.00     0.174 HD
ENDBRANCH   4  25
BRANCH   7  28
HETATM   28  N7  UNL     1      -4.280  76.953  29.428  1.00  0.00    -0.193 N 
ATOM     29  H7  UNL     1      -5.013  77.610  29.699  1.00  0.00     0.180 HD
BRANCH  28  30
HETATM   30  C12 UNL     1      -4.022  76.789  28.039  1.00  0.00     0.335 C 
HETATM   31  N8  UNL     1      -2.626  76.680  27.663  1.00  0.00    -0.022 N 
HETATM   32  C13 UNL     1      -2.911  77.519  26.518  1.00  0.00     0.354 C 
ATOM     33  H82 UNL     1      -1.889  76.930  28.322  1.00  0.00     0.282 HD
ATOM     34  H81 UNL     1      -2.189  75.766  27.544  1.00  0.00     0.282 HD
HETATM   35  C14 UNL     1      -4.064  78.114  27.288  1.00  0.00     0.225 C 
BRANCH  32  36
HETATM   36  O1  UNL     1      -1.888  78.418  26.227  1.00  0.00    -0.368 OA
ATOM     37  H1  UNL     1      -1.142  78.013  25.801  1.00  0.00     0.212 HD
ENDBRANCH  32  36
BRANCH  35  38
HETATM   38  O2  UNL     1      -5.204  78.333  26.531  1.00  0.00    -0.387 OA
ATOM     39  H2  UNL     1      -6.018  78.365  27.020  1.00  0.00     0.210 HD
ENDBRANCH  35  38
ENDBRANCH  28  30
ENDBRANCH   7  28
TORSDOF 15
ENDMDL
MODEL 3
REMARK VINA RESULT: -6.822780526      1.600      2.252
REMARK  15 active torsions:
REMARK  status: ('A' for Active; 'I' for Inactive)
REMARK    1  A    between atoms: C2_2  and  C3_3 
REMARK    2  A    between atoms: C3_3  and  N1_4 
REMARK    3  A    between atoms: N1_4  and  C4_5 
REMARK    4  A    between atoms: N1_4  and  C7_12 
REMARK    5  A    between atoms: C4_5  and  C5_6 
REMARK    6  A    between atoms: C5_6  and  C6_7 
REMARK    7  A    between atoms: C6_7  and  N2_8 
REMARK    8  A    between atoms: C7_12  and  C8_13 
REMARK    9  A    between atoms: C8_13  and  N3_14 
REMARK   10  A    between atoms: N3_14  and  C9_16 
REMARK   11  A    between atoms: C10_19  and  N5_20 
REMARK   12  A    between atoms: C11_25  and  N7_26 
REMARK   13  A    between atoms: N7_26  and  C12_28 
REMARK   14  A    between atoms: C13_32  and  O1_33 
REMARK   15  A    between atoms: C14_35  and  O2_36 
ROOT
HETATM    1  C9  UNL     1      -4.737  75.879  32.741  1.00  0.00     0.707 A 
HETATM    2  N4  UNL     1      -4.031  74.745  32.634  1.00  0.00    -0.022 N 
ATOM      3  H4  UNL     1      -4.012  74.095  33.420  1.00  0.00     0.203 HD
HETATM    4  C10 UNL     1      -3.341  74.440  31.507  1.00  0.00     0.705 A 
HETATM    5  N6  UNL     1      -3.366  75.296  30.471  1.00  0.00    -0.022 N 
ATOM      6  H6  UNL     1      -2.848  75.068  29.622  1.00  0.00     0.203 HD
HETATM    7  C11 UNL     1      -4.058  76.444  30.528  1.00  0.00     0.709 A 
HETATM    8  N9  UNL     1      -4.727  76.710  31.660  1.00  0.00    -0.021 N 
ATOM      9  H9  UNL     1      -5.257  77.580  31.715  1.00  0.00     0.203 HD
ENDROOT
BRANCH   1  10
HETATM   10  N3  UNL     1      -5.392  76.195  33.787  1.00  0.00    -0.220 N 
ATOM     11  H3  UNL     1      -6.059  75.499  34.119  1.00  0.00     0.178 HD
BRANCH  10  12
HETATM   12  C8  UNL     1      -5.315  77.396  34.557  1.00  0.00     0.182 C 
BRANCH  12  13
HETATM   13  C7  UNL     1      -4.551  77.159  35.838  1.00  0.00     0.083 C 
BRANCH  13  14
HETATM   14  N1  UNL     1      -3.261  77.720  35.919  1.00  0.00    -0.372 N 
BRANCH  14  15
HETATM   15  C3  UNL     1      -3.221  78.921  36.656  1.00  0.00     0.062 C 
BRANCH  15  16
HETATM   16  C2  UNL     1      -1.851  79.259  37.212  1.00  0.00     0.040 C 
HETATM   17  C1  UNL     1      -1.775  80.628  37.814  1.00  0.00     0.010 C 
ENDBRANCH  15  16
ENDBRANCH  14  15
BRANCH  14  18
HETATM   18  C4  UNL     1      -2.201  76.794  36.108  1.00  0.00     0.128 C 
BRANCH  18  19
HETATM   19  C5  UNL     1      -1.623  76.268  34.818  1.00  0.00     0.047 C 
BRANCH  19  20
HETATM   20  C6  UNL     1      -0.998  77.368  33.989  1.00  0.00     0.231 C 
BRANCH  20  21
HETATM   21  N2  UNL     1      -1.113  77.067  32.577  1.00  0.00    -0.079 N 
ATOM     22  H23 UNL     1      -1.085  76.063  32.400  1.00  0.00     0.274 HD
ATOM     23  H22 UNL     1      -2.050  77.258  32.224  1.00  0.00     0.274 HD
ATOM     24  H21 UNL     1      -0.399  77.566  32.047  1.00  0.00     0.274 HD
ENDBRANCH  20  21
ENDBRANCH  19  20
ENDBRANCH  18  19
ENDBRANCH  14  18
ENDBRANCH  13  14
ENDBRANCH  12  13
ENDBRANCH  10  12
ENDBRANCH   1  10
BRANCH   4  25
HETATM   25  N5  UNL     1      -2.654  73.327  31.412  1.00  0.00    -0.234 N 
ATOM     26  H52 UNL     1      -2.771  72.600  32.119  1.00  0.00     0.174 HD
ATOM     27  H51 UNL     1      -2.001  73.173  30.644  1.00  0.00     0.174 HD
ENDBRANCH   4  25
BRANCH   7  28
HETATM   28  N7  UNL     1      -4.078  77.267  29.535  1.00  0.00    -0.193 N 
ATOM     29  H7  UNL     1      -4.269  78.249  29.737  1.00  0.00     0.180 HD
BRANCH  28  30
HETATM   30  C12 UNL     1      -3.852  76.904  28.178  1.00  0.00     0.335 C 
HETATM   31  N8  UNL     1      -2.464  76.825  27.767  1.00  0.00    -0.022 N 
HETATM   32  C13 UNL     1      -2.840  77.455  26.519  1.00  0.00     0.354 C 
ATOM     33  H82 UNL     1      -1.725  77.220  28.349  1.00  0.00     0.282 HD
ATOM     34  H81 UNL     1      -1.970  75.933  27.773  1.00  0.00     0.282 HD
HETATM   35  C14 UNL     1      -4.007  78.090  27.235  1.00  0.00     0.225 C 
BRANCH  32  36
HETATM   36  O1  UNL     1      -1.890  78.359  26.051  1.00  0.00    -0.368 OA
ATOM     37  H1  UNL     1      -1.822  78.376  25.104  1.00  0.00     0.212 HD
ENDBRANCH  32  36
BRANCH  35  38
HETATM   38  O2  UNL     1      -5.182  78.117  26.501  1.00  0.00    -0.387 OA
ATOM     39  H2  UNL     1      -5.193  77.563  25.729  1.00  0.00     0.210 HD
ENDBRANCH  35  38
ENDBRANCH  28  30
ENDBRANCH   7  28
TORSDOF 15
ENDMDL
MODEL 4
REMARK VINA RESULT: -6.817355447      1.660      3.078
REMARK  15 active torsions:
REMARK  status: ('A' for Active; 'I' for Inactive)
REMARK    1  A    between atoms: C2_2  and  C3_3 
REMARK    2  A    between atoms: C3_3  and  N1_4 
REMARK    3  A    between atoms: N1_4  and  C4_5 
REMARK    4  A    between atoms: N1_4  and  C7_12 
REMARK    5  A    between atoms: C4_5  and  C5_6 
REMARK    6  A    between atoms: C5_6  and  C6_7 
REMARK    7  A    between atoms: C6_7  and  N2_8 
REMARK    8  A    between atoms: C7_12  and  C8_13 
REMARK    9  A    between atoms: C8_13  and  N3_14 
REMARK   10  A    between atoms: N3_14  and  C9_16 
REMARK   11  A    between atoms: C10_19  and  N5_20 
REMARK   12  A    between atoms: C11_25  and  N7_26 
REMARK   13  A    between atoms: N7_26  and  C12_28 
REMARK   14  A    between atoms: C13_32  and  O1_33 
REMARK   15  A    between atoms: C14_35  and  O2_36 
ROOT
HETATM    1  C9  UNL     1      -2.072  76.481  32.163  1.00  0.00     0.707 A 
HETATM    2  N4  UNL     1      -2.283  75.176  32.387  1.00  0.00    -0.022 N 
ATOM      3  H4  UNL     1      -1.774  74.712  33.139  1.00  0.00     0.203 HD
HETATM    4  C10 UNL     1      -3.156  74.458  31.638  1.00  0.00     0.705 A 
HETATM    5  N6  UNL     1      -3.827  75.070  30.647  1.00  0.00    -0.022 N 
ATOM      6  H6  UNL     1      -4.484  74.531  30.082  1.00  0.00     0.203 HD
HETATM    7  C11 UNL     1      -3.651  76.373  30.383  1.00  0.00     0.709 A 
HETATM    8  N9  UNL     1      -2.779  77.049  31.145  1.00  0.00    -0.021 N 
ATOM      9  H9  UNL     1      -2.637  78.041  30.953  1.00  0.00     0.203 HD
ENDROOT
BRANCH   1  10
HETATM   10  N3  UNL     1      -1.255  77.181  32.847  1.00  0.00    -0.220 N 
ATOM     11  H3  UNL     1      -0.871  78.000  32.375  1.00  0.00     0.178 HD
BRANCH  10  12
HETATM   12  C8  UNL     1      -0.806  76.970  34.186  1.00  0.00     0.182 C 
BRANCH  12  13
HETATM   13  C7  UNL     1      -1.733  77.642  35.171  1.00  0.00     0.083 C 
BRANCH  13  14
HETATM   14  N1  UNL     1      -2.669  76.817  35.824  1.00  0.00    -0.372 N 
BRANCH  14  15
HETATM   15  C3  UNL     1      -2.183  76.271  37.030  1.00  0.00     0.062 C 
BRANCH  15  16
HETATM   16  C2  UNL     1      -1.340  77.232  37.847  1.00  0.00     0.040 C 
HETATM   17  C1  UNL     1      -2.120  77.957  38.901  1.00  0.00     0.010 C 
ENDBRANCH  15  16
ENDBRANCH  14  15
BRANCH  14  18
HETATM   18  C4  UNL     1      -4.012  77.276  35.802  1.00  0.00     0.128 C 
BRANCH  18  19
HETATM   19  C5  UNL     1      -4.301  78.241  34.679  1.00  0.00     0.047 C 
BRANCH  19  20
HETATM   20  C6  UNL     1      -5.341  77.701  33.724  1.00  0.00     0.231 C 
BRANCH  20  21
HETATM   21  N2  UNL     1      -5.354  76.254  33.753  1.00  0.00    -0.079 N 
ATOM     22  H23 UNL     1      -6.176  75.873  33.284  1.00  0.00     0.274 HD
ATOM     23  H22 UNL     1      -4.636  75.856  33.148  1.00  0.00     0.274 HD
ATOM     24  H21 UNL     1      -5.273  75.914  34.711  1.00  0.00     0.274 HD
ENDBRANCH  20  21
ENDBRANCH  19  20
ENDBRANCH  18  19
ENDBRANCH  14  18
ENDBRANCH  13  14
ENDBRANCH  12  13
ENDBRANCH  10  12
ENDBRANCH   1  10
BRANCH   4  25
HETATM   25  N5  UNL     1      -3.356  73.183  31.866  1.00  0.00    -0.234 N 
ATOM     26  H52 UNL     1      -4.234  72.877  32.287  1.00  0.00     0.174 HD
ATOM     27  H51 UNL     1      -2.648  72.487  31.633  1.00  0.00     0.174 HD
ENDBRANCH   4  25
BRANCH   7  28
HETATM   28  N7  UNL     1      -4.291  76.958  29.428  1.00  0.00    -0.193 N 
ATOM     29  H7  UNL     1      -5.049  77.591  29.684  1.00  0.00     0.180 HD
BRANCH  28  30
HETATM   30  C12 UNL     1      -4.017  76.783  28.043  1.00  0.00     0.335 C 
HETATM   31  N8  UNL     1      -2.617  76.682  27.683  1.00  0.00    -0.022 N 
HETATM   32  C13 UNL     1      -2.896  77.508  26.527  1.00  0.00     0.354 C 
ATOM     33  H82 UNL     1      -1.888  76.944  28.347  1.00  0.00     0.282 HD
ATOM     34  H81 UNL     1      -2.171  75.771  27.577  1.00  0.00     0.282 HD
HETATM   35  C14 UNL     1      -4.062  78.100  27.280  1.00  0.00     0.225 C 
BRANCH  32  36
HETATM   36  O1  UNL     1      -1.877  78.413  26.239  1.00  0.00    -0.368 OA
ATOM     37  H1  UNL     1      -2.028  79.277  26.604  1.00  0.00     0.212 HD
ENDBRANCH  32  36
BRANCH  35  38
HETATM   38  O2  UNL     1      -5.195  78.303  26.509  1.00  0.00    -0.387 OA
ATOM     39  H2  UNL     1      -5.152  77.963  25.623  1.00  0.00     0.210 HD
ENDBRANCH  35  38
ENDBRANCH  28  30
ENDBRANCH   7  28
TORSDOF 15
ENDMDL
MODEL 5
REMARK VINA RESULT: -6.694875252      2.208      3.939
REMARK  15 active torsions:
REMARK  status: ('A' for Active; 'I' for Inactive)
REMARK    1  A    between atoms: C2_2  and  C3_3 
REMARK    2  A    between atoms: C3_3  and  N1_4 
REMARK    3  A    between atoms: N1_4  and  C4_5 
REMARK    4  A    between atoms: N1_4  and  C7_12 
REMARK    5  A    between atoms: C4_5  and  C5_6 
REMARK    6  A    between atoms: C5_6  and  C6_7 
REMARK    7  A    between atoms: C6_7  and  N2_8 
REMARK    8  A    between atoms: C7_12  and  C8_13 
REMARK    9  A    between atoms: C8_13  and  N3_14 
REMARK   10  A    between atoms: N3_14  and  C9_16 
REMARK   11  A    between atoms: C10_19  and  N5_20 
REMARK   12  A    between atoms: C11_25  and  N7_26 
REMARK   13  A    between atoms: N7_26  and  C12_28 
REMARK   14  A    between atoms: C13_32  and  O1_33 
REMARK   15  A    between atoms: C14_35  and  O2_36 
ROOT
HETATM    1  C9  UNL     1      -1.908  76.944  33.561  1.00  0.00     0.707 A 
HETATM    2  N4  UNL     1      -3.045  77.092  34.256  1.00  0.00    -0.022 N 
ATOM      3  H4  UNL     1      -3.030  77.624  35.126  1.00  0.00     0.203 HD
HETATM    4  C10 UNL     1      -4.214  76.553  33.831  1.00  0.00     0.705 A 
HETATM    5  N6  UNL     1      -4.234  75.853  32.684  1.00  0.00    -0.022 N 
ATOM      6  H6  UNL     1      -5.113  75.446  32.362  1.00  0.00     0.203 HD
HETATM    7  C11 UNL     1      -3.124  75.676  31.952  1.00  0.00     0.709 A 
HETATM    8  N9  UNL     1      -1.988  76.224  32.406  1.00  0.00    -0.021 N 
ATOM      9  H9  UNL     1      -1.137  76.096  31.857  1.00  0.00     0.203 HD
ENDROOT
BRANCH   1  10
HETATM   10  N3  UNL     1      -0.794  77.435  33.936  1.00  0.00    -0.220 N 
ATOM     11  H3  UNL     1      -0.324  78.035  33.259  1.00  0.00     0.178 HD
BRANCH  10  12
HETATM   12  C8  UNL     1      -0.116  77.255  35.181  1.00  0.00     0.182 C 
BRANCH  12  13
HETATM   13  C7  UNL     1      -0.073  78.551  35.956  1.00  0.00     0.083 C 
BRANCH  13  14
HETATM   14  N1  UNL     1      -0.873  78.621  37.114  1.00  0.00    -0.372 N 
BRANCH  14  15
HETATM   15  C3  UNL     1      -1.896  79.587  37.026  1.00  0.00     0.062 C 
BRANCH  15  16
HETATM   16  C2  UNL     1      -1.581  80.886  37.743  1.00  0.00     0.040 C 
HETATM   17  C1  UNL     1      -2.759  81.468  38.463  1.00  0.00     0.010 C 
ENDBRANCH  15  16
ENDBRANCH  14  15
BRANCH  14  18
HETATM   18  C4  UNL     1      -1.192  77.375  37.716  1.00  0.00     0.128 C 
BRANCH  18  19
HETATM   19  C5  UNL     1      -2.610  77.296  38.223  1.00  0.00     0.047 C 
BRANCH  19  20
HETATM   20  C6  UNL     1      -3.369  76.147  37.599  1.00  0.00     0.231 C 
BRANCH  20  21
HETATM   21  N2  UNL     1      -2.452  75.143  37.103  1.00  0.00    -0.079 N 
ATOM     22  H23 UNL     1      -2.068  74.574  37.857  1.00  0.00     0.274 HD
ATOM     23  H22 UNL     1      -2.937  74.407  36.589  1.00  0.00     0.274 HD
ATOM     24  H21 UNL     1      -1.718  75.575  36.542  1.00  0.00     0.274 HD
ENDBRANCH  20  21
ENDBRANCH  19  20
ENDBRANCH  18  19
ENDBRANCH  14  18
ENDBRANCH  13  14
ENDBRANCH  12  13
ENDBRANCH  10  12
ENDBRANCH   1  10
BRANCH   4  25
HETATM   25  N5  UNL     1      -5.321  76.706  34.517  1.00  0.00    -0.234 N 
ATOM     26  H52 UNL     1      -5.316  77.281  35.360  1.00  0.00     0.174 HD
ATOM     27  H51 UNL     1      -6.189  76.257  34.226  1.00  0.00     0.174 HD
ENDBRANCH   4  25
BRANCH   7  28
HETATM   28  N7  UNL     1      -3.144  74.999  30.854  1.00  0.00    -0.193 N 
ATOM     29  H7  UNL     1      -2.596  74.139  30.818  1.00  0.00     0.180 HD
BRANCH  28  30
HETATM   30  C12 UNL     1      -3.874  75.367  29.689  1.00  0.00     0.335 C 
HETATM   31  N8  UNL     1      -3.128  75.361  28.447  1.00  0.00    -0.022 N 
HETATM   32  C13 UNL     1      -3.813  76.582  28.077  1.00  0.00     0.354 C 
ATOM     33  H82 UNL     1      -2.109  75.317  28.451  1.00  0.00     0.282 HD
ATOM     34  H81 UNL     1      -3.145  74.548  27.833  1.00  0.00     0.282 HD
HETATM   35  C14 UNL     1      -3.997  76.878  29.545  1.00  0.00     0.225 C 
BRANCH  32  36
HETATM   36  O1  UNL     1      -2.998  77.489  27.404  1.00  0.00    -0.368 OA
ATOM     37  H1  UNL     1      -2.499  78.049  27.987  1.00  0.00     0.212 HD
ENDBRANCH  32  36
BRANCH  35  38
HETATM   38  O2  UNL     1      -5.236  77.407  29.869  1.00  0.00    -0.387 OA
ATOM     39  H2  UNL     1      -5.282  78.356  29.890  1.00  0.00     0.210 HD
ENDBRANCH  35  38
ENDBRANCH  28  30
ENDBRANCH   7  28
TORSDOF 15
ENDMDL
