MODEL 1
REMARK VINA RESULT: -8.300120899      0.000      0.000
REMARK  6 active torsions:
REMARK  status: ('A' for Active; 'I' for Inactive)
REMARK    1  A    between atoms: C2_2  and  C3_3 
REMARK    2  A    between atoms: C3_3  and  C4_4 
REMARK    3  A    between atoms: C4_4  and  C5_5 
REMARK    4  A    between atoms: C5_5  and  C6_6 
REMARK    5  A    between atoms: C6_6  and  N1_7 
REMARK    6  A    between atoms: N1_7  and  C7_8 
ROOT
HETATM    1  C7  UNL     1      29.807  19.799  46.431  1.00  0.00     0.125 A 
HETATM    2  C8  UNL     1      30.122  19.470  47.756  1.00  0.00     0.032 A 
HETATM    3  C9  UNL     1      29.381  19.936  48.815  1.00  0.00     0.017 A 
HETATM    4  C10 UNL     1      29.678  19.621  50.146  1.00  0.00     0.001 A 
HETATM    5  C11 UNL     1      30.756  18.811  50.427  1.00  0.00     0.002 A 
HETATM    6  C12 UNL     1      31.505  18.338  49.373  1.00  0.00     0.030 A 
HETATM    7  C13 UNL     1      31.197  18.660  48.044  1.00  0.00     0.046 A 
HETATM    8  N2  UNL     1      31.942  18.189  47.029  1.00  0.00    -0.355 N 
ATOM      9  H2  UNL     1      32.737  17.590  47.252  1.00  0.00     0.166 HD
HETATM   10  C14 UNL     1      31.699  18.461  45.746  1.00  0.00     0.046 A 
HETATM   11  C15 UNL     1      32.501  17.948  44.715  1.00  0.00     0.030 A 
HETATM   12  C16 UNL     1      32.258  18.223  43.386  1.00  0.00     0.002 A 
HETATM   13  C17 UNL     1      31.183  19.035  43.069  1.00  0.00     0.001 A 
HETATM   14  C18 UNL     1      30.402  19.532  44.097  1.00  0.00     0.017 A 
HETATM   15  C19 UNL     1      30.643  19.259  45.419  1.00  0.00     0.032 A 
ENDROOT
BRANCH   1  16
HETATM   16  N1  UNL     1      28.881  20.501  46.116  1.00  0.00    -0.446 NA
BRANCH  16  17
HETATM   17  C6  UNL     1      27.809  21.304  46.210  1.00  0.00     0.218 C 
BRANCH  17  18
HETATM   18  C5  UNL     1      28.063  22.696  45.609  1.00  0.00     0.033 C 
BRANCH  18  19
HETATM   19  C4  UNL     1      28.714  22.544  44.269  1.00  0.00     0.002 C 
BRANCH  19  20
HETATM   20  C3  UNL     1      30.147  22.962  44.253  1.00  0.00    -0.000 C 
BRANCH  20  21
HETATM   21  C2  UNL     1      30.436  23.757  45.513  1.00  0.00    -0.005 C 
HETATM   22  C1  UNL     1      31.550  23.040  46.270  1.00  0.00     0.005 C 
ENDBRANCH  20  21
ENDBRANCH  19  20
ENDBRANCH  18  19
ENDBRANCH  17  18
ENDBRANCH  16  17
ENDBRANCH   1  16
TORSDOF 6
ENDMDL
MODEL 2
REMARK VINA RESULT: -8.239912357      0.456      3.935
REMARK  6 active torsions:
REMARK  status: ('A' for Active; 'I' for Inactive)
REMARK    1  A    between atoms: C2_2  and  C3_3 
REMARK    2  A    between atoms: C3_3  and  C4_4 
REMARK    3  A    between atoms: C4_4  and  C5_5 
REMARK    4  A    between atoms: C5_5  and  C6_6 
REMARK    5  A    between atoms: C6_6  and  N1_7 
REMARK    6  A    between atoms: N1_7  and  C7_8 
ROOT
HETATM    1  C7  UNL     1      30.008  19.714  46.699  1.00  0.00     0.125 A 
HETATM    2  C8  UNL     1      30.670  19.253  45.554  1.00  0.00     0.032 A 
HETATM    3  C9  UNL     1      30.205  19.525  44.289  1.00  0.00     0.017 A 
HETATM    4  C10 UNL     1      30.851  19.074  43.132  1.00  0.00     0.001 A 
HETATM    5  C11 UNL     1      32.001  18.324  43.243  1.00  0.00     0.002 A 
HETATM    6  C12 UNL     1      32.475  18.047  44.506  1.00  0.00     0.030 A 
HETATM    7  C13 UNL     1      31.820  18.505  45.658  1.00  0.00     0.046 A 
HETATM    8  N2  UNL     1      32.299  18.222  46.883  1.00  0.00    -0.355 N 
ATOM      9  H2  UNL     1      33.152  17.666  46.950  1.00  0.00     0.166 HD
HETATM   10  C14 UNL     1      31.721  18.629  48.013  1.00  0.00     0.046 A 
HETATM   11  C15 UNL     1      32.253  18.313  49.272  1.00  0.00     0.030 A 
HETATM   12  C16 UNL     1      31.664  18.729  50.447  1.00  0.00     0.002 A 
HETATM   13  C17 UNL     1      30.506  19.483  50.371  1.00  0.00     0.001 A 
HETATM   14  C18 UNL     1      29.994  19.786  49.121  1.00  0.00     0.017 A 
HETATM   15  C19 UNL     1      30.580  19.373  47.953  1.00  0.00     0.032 A 
ENDROOT
BRANCH   1  16
HETATM   16  N1  UNL     1      29.000  20.373  46.672  1.00  0.00    -0.446 NA
BRANCH  16  17
HETATM   17  C6  UNL     1      27.864  20.935  46.230  1.00  0.00     0.218 C 
BRANCH  17  18
HETATM   18  C5  UNL     1      28.043  22.420  45.876  1.00  0.00     0.033 C 
BRANCH  18  19
HETATM   19  C4  UNL     1      28.529  22.537  44.465  1.00  0.00     0.002 C 
BRANCH  19  20
HETATM   20  C3  UNL     1      29.988  22.836  44.360  1.00  0.00    -0.000 C 
BRANCH  20  21
HETATM   21  C2  UNL     1      30.389  23.714  45.531  1.00  0.00    -0.005 C 
HETATM   22  C1  UNL     1      31.549  23.030  46.249  1.00  0.00     0.005 C 
ENDBRANCH  20  21
ENDBRANCH  19  20
ENDBRANCH  18  19
ENDBRANCH  17  18
ENDBRANCH  16  17
ENDBRANCH   1  16
TORSDOF 6
ENDMDL
MODEL 3
REMARK VINA RESULT: -8.097014092      1.534      4.870
REMARK  6 active torsions:
REMARK  status: ('A' for Active; 'I' for Inactive)
REMARK    1  A    between atoms: C2_2  and  C3_3 
REMARK    2  A    between atoms: C3_3  and  C4_4 
REMARK    3  A    between atoms: C4_4  and  C5_5 
REMARK    4  A    between atoms: C5_5  and  C6_6 
REMARK    5  A    between atoms: C6_6  and  N1_7 
REMARK    6  A    between atoms: N1_7  and  C7_8 
ROOT
HETATM    1  C7  UNL     1      29.662  20.087  46.598  1.00  0.00     0.125 A 
HETATM    2  C8  UNL     1      29.094  21.056  45.760  1.00  0.00     0.032 A 
HETATM    3  C9  UNL     1      28.180  21.970  46.226  1.00  0.00     0.017 A 
HETATM    4  C10 UNL     1      27.599  22.946  45.406  1.00  0.00     0.001 A 
HETATM    5  C11 UNL     1      27.945  23.008  44.075  1.00  0.00     0.002 A 
HETATM    6  C12 UNL     1      28.861  22.097  43.599  1.00  0.00     0.030 A 
HETATM    7  C13 UNL     1      29.436  21.125  44.429  1.00  0.00     0.046 A 
HETATM    8  N2  UNL     1      30.329  20.243  43.944  1.00  0.00    -0.355 N 
ATOM      9  H2  UNL     1      30.576  20.301  42.956  1.00  0.00     0.166 HD
HETATM   10  C14 UNL     1      30.908  19.297  44.684  1.00  0.00     0.046 A 
HETATM   11  C15 UNL     1      31.836  18.395  44.140  1.00  0.00     0.030 A 
HETATM   12  C16 UNL     1      32.441  17.414  44.896  1.00  0.00     0.002 A 
HETATM   13  C17 UNL     1      32.114  17.323  46.237  1.00  0.00     0.001 A 
HETATM   14  C18 UNL     1      31.198  18.220  46.758  1.00  0.00     0.017 A 
HETATM   15  C19 UNL     1      30.597  19.196  46.007  1.00  0.00     0.032 A 
ENDROOT
BRANCH   1  16
HETATM   16  N1  UNL     1      29.404  19.977  47.769  1.00  0.00    -0.446 NA
BRANCH  16  17
HETATM   17  C6  UNL     1      29.470  20.127  49.101  1.00  0.00     0.218 C 
BRANCH  17  18
HETATM   18  C5  UNL     1      29.506  18.782  49.843  1.00  0.00     0.033 C 
BRANCH  18  19
HETATM   19  C4  UNL     1      30.768  18.691  50.643  1.00  0.00     0.002 C 
BRANCH  19  20
HETATM   20  C3  UNL     1      31.790  19.710  50.260  1.00  0.00    -0.000 C 
BRANCH  20  21
HETATM   21  C2  UNL     1      33.023  18.991  49.745  1.00  0.00    -0.005 C 
HETATM   22  C1  UNL     1      34.062  18.993  50.863  1.00  0.00     0.005 C 
ENDBRANCH  20  21
ENDBRANCH  19  20
ENDBRANCH  18  19
ENDBRANCH  17  18
ENDBRANCH  16  17
ENDBRANCH   1  16
TORSDOF 6
ENDMDL
MODEL 4
REMARK VINA RESULT: -8.081509712      1.538      4.980
REMARK  6 active torsions:
REMARK  status: ('A' for Active; 'I' for Inactive)
REMARK    1  A    between atoms: C2_2  and  C3_3 
REMARK    2  A    between atoms: C3_3  and  C4_4 
REMARK    3  A    between atoms: C4_4  and  C5_5 
REMARK    4  A    between atoms: C5_5  and  C6_6 
REMARK    5  A    between atoms: C6_6  and  N1_7 
REMARK    6  A    between atoms: N1_7  and  C7_8 
ROOT
HETATM    1  C7  UNL     1      29.682  20.086  46.601  1.00  0.00     0.125 A 
HETATM    2  C8  UNL     1      30.596  19.191  46.030  1.00  0.00     0.032 A 
HETATM    3  C9  UNL     1      31.214  18.214  46.774  1.00  0.00     0.017 A 
HETATM    4  C10 UNL     1      32.131  17.309  46.224  1.00  0.00     0.001 A 
HETATM    5  C11 UNL     1      32.441  17.386  44.885  1.00  0.00     0.002 A 
HETATM    6  C12 UNL     1      31.828  18.362  44.131  1.00  0.00     0.030 A 
HETATM    7  C13 UNL     1      30.911  19.261  44.693  1.00  0.00     0.046 A 
HETATM    8  N2  UNL     1      30.323  20.208  43.939  1.00  0.00    -0.355 N 
ATOM      9  H2  UNL     1      30.562  20.253  42.948  1.00  0.00     0.166 HD
HETATM   10  C14 UNL     1      29.445  21.091  44.416  1.00  0.00     0.046 A 
HETATM   11  C15 UNL     1      28.852  22.063  43.596  1.00  0.00     0.030 A 
HETATM   12  C16 UNL     1      27.943  22.980  44.078  1.00  0.00     0.002 A 
HETATM   13  C17 UNL     1      27.610  22.931  45.421  1.00  0.00     0.001 A 
HETATM   14  C18 UNL     1      28.202  21.966  46.215  1.00  0.00     0.017 A 
HETATM   15  C19 UNL     1      29.106  21.054  45.736  1.00  0.00     0.032 A 
ENDROOT
BRANCH   1  16
HETATM   16  N1  UNL     1      29.367  20.074  47.763  1.00  0.00    -0.446 NA
BRANCH  16  17
HETATM   17  C6  UNL     1      29.446  20.179  49.099  1.00  0.00     0.218 C 
BRANCH  17  18
HETATM   18  C5  UNL     1      29.518  18.810  49.793  1.00  0.00     0.033 C 
BRANCH  18  19
HETATM   19  C4  UNL     1      30.793  18.717  50.571  1.00  0.00     0.002 C 
BRANCH  19  20
HETATM   20  C3  UNL     1      31.795  19.760  50.200  1.00  0.00    -0.000 C 
BRANCH  20  21
HETATM   21  C2  UNL     1      33.060  19.071  49.722  1.00  0.00    -0.005 C 
HETATM   22  C1  UNL     1      34.025  19.001  50.902  1.00  0.00     0.005 C 
ENDBRANCH  20  21
ENDBRANCH  19  20
ENDBRANCH  18  19
ENDBRANCH  17  18
ENDBRANCH  16  17
ENDBRANCH   1  16
TORSDOF 6
ENDMDL
MODEL 5
REMARK VINA RESULT: -7.767574970      0.783      1.127
REMARK  6 active torsions:
REMARK  status: ('A' for Active; 'I' for Inactive)
REMARK    1  A    between atoms: C2_2  and  C3_3 
REMARK    2  A    between atoms: C3_3  and  C4_4 
REMARK    3  A    between atoms: C4_4  and  C5_5 
REMARK    4  A    between atoms: C5_5  and  C6_6 
REMARK    5  A    between atoms: C6_6  and  N1_7 
REMARK    6  A    between atoms: N1_7  and  C7_8 
ROOT
HETATM    1  C7  UNL     1      30.031  19.646  46.813  1.00  0.00     0.125 A 
HETATM    2  C8  UNL     1      30.611  19.331  48.048  1.00  0.00     0.032 A 
HETATM    3  C9  UNL     1      30.051  19.734  49.237  1.00  0.00     0.017 A 
HETATM    4  C10 UNL     1      30.615  19.431  50.482  1.00  0.00     0.001 A 
HETATM    5  C11 UNL     1      31.780  18.699  50.540  1.00  0.00     0.002 A 
HETATM    6  C12 UNL     1      32.349  18.290  49.355  1.00  0.00     0.030 A 
HETATM    7  C13 UNL     1      31.775  18.599  48.114  1.00  0.00     0.046 A 
HETATM    8  N2  UNL     1      32.347  18.190  46.967  1.00  0.00    -0.355 N 
ATOM      9  H2  UNL     1      33.210  17.648  47.026  1.00  0.00     0.166 HD
HETATM   10  C14 UNL     1      31.849  18.454  45.759  1.00  0.00     0.046 A 
HETATM   11  C15 UNL     1      32.477  18.008  44.586  1.00  0.00     0.030 A 
HETATM   12  C16 UNL     1      31.970  18.274  43.332  1.00  0.00     0.002 A 
HETATM   13  C17 UNL     1      30.801  19.008  43.238  1.00  0.00     0.001 A 
HETATM   14  C18 UNL     1      30.194  19.440  44.404  1.00  0.00     0.017 A 
HETATM   15  C19 UNL     1      30.698  19.175  45.651  1.00  0.00     0.032 A 
ENDROOT
BRANCH   1  16
HETATM   16  N1  UNL     1      29.015  20.281  46.691  1.00  0.00    -0.446 NA
BRANCH  16  17
HETATM   17  C6  UNL     1      27.714  20.576  46.543  1.00  0.00     0.218 C 
BRANCH  17  18
HETATM   18  C5  UNL     1      27.451  22.090  46.537  1.00  0.00     0.033 C 
BRANCH  18  19
HETATM   19  C4  UNL     1      28.140  22.706  45.360  1.00  0.00     0.002 C 
BRANCH  19  20
HETATM   20  C3  UNL     1      29.511  23.210  45.669  1.00  0.00    -0.000 C 
BRANCH  20  21
HETATM   21  C2  UNL     1      30.406  22.950  44.471  1.00  0.00    -0.005 C 
HETATM   22  C1  UNL     1      29.514  22.533  43.306  1.00  0.00     0.005 C 
ENDBRANCH  20  21
ENDBRANCH  19  20
ENDBRANCH  18  19
ENDBRANCH  17  18
ENDBRANCH  16  17
ENDBRANCH   1  16
TORSDOF 6
ENDMDL
