MODEL 1
REMARK VINA RESULT: -7.779240795      0.000      0.000
REMARK  5 active torsions:
REMARK  status: ('A' for Active; 'I' for Inactive)
REMARK    1  A    between atoms: C2_2  and  C3_3 
REMARK    2  A    between atoms: C6_6  and  C7_7 
REMARK    3  A    between atoms: C7_7  and  N1_8 
REMARK    4  A    between atoms: N1_8  and  C8_10 
REMARK    5  A    between atoms: C14_16  and  C15_17 
ROOT
HETATM    1  C3  UNL     1      33.188  18.716  50.709  1.00  0.00    -0.058 A 
HETATM    2  C4  UNL     1      32.030  18.952  51.415  1.00  0.00     0.007 A 
HETATM    3  C5  UNL     1      30.799  19.083  50.802  1.00  0.00     0.010 A 
HETATM    4  C6  UNL     1      30.649  18.983  49.419  1.00  0.00    -0.029 A 
HETATM    5  C14 UNL     1      31.802  18.747  48.711  1.00  0.00    -0.018 A 
HETATM    6  C21 UNL     1      33.050  18.616  49.348  1.00  0.00     0.020 A 
ENDROOT
BRANCH   4   7
HETATM    7  C7  UNL     1      29.324  19.131  48.770  1.00  0.00     0.159 C 
BRANCH   7   8
HETATM    8  N1  UNL     1      28.943  20.477  48.475  1.00  0.00    -0.386 N 
ATOM      9  H1  UNL     1      28.474  21.046  49.180  1.00  0.00     0.160 HD
BRANCH   8  10
HETATM   10  C8  UNL     1      29.227  21.018  47.179  1.00  0.00     0.028 A 
HETATM   11  C9  UNL     1      30.149  22.043  47.018  1.00  0.00     0.029 A 
HETATM   12  C10 UNL     1      30.475  22.599  45.801  1.00  0.00     0.002 A 
HETATM   13  C11 UNL     1      29.849  22.105  44.677  1.00  0.00     0.000 A 
HETATM   14  C12 UNL     1      28.925  21.088  44.769  1.00  0.00     0.002 A 
HETATM   15  C13 UNL     1      28.622  20.552  46.023  1.00  0.00     0.029 A 
ENDBRANCH   8  10
ENDBRANCH   7   8
ENDBRANCH   4   7
BRANCH   5  16
HETATM   16  C15 UNL     1      31.782  18.646  47.260  1.00  0.00    -0.025 A 
HETATM   17  C16 UNL     1      32.407  19.531  46.419  1.00  0.00     0.012 A 
HETATM   18  C17 UNL     1      32.351  19.419  45.024  1.00  0.00     0.001 A 
HETATM   19  C18 UNL     1      31.637  18.373  44.471  1.00  0.00     0.000 A 
HETATM   20  C19 UNL     1      30.996  17.460  45.281  1.00  0.00     0.001 A 
HETATM   21  C20 UNL     1      31.080  17.612  46.638  1.00  0.00     0.012 A 
ENDBRANCH   5  16
BRANCH   1  22
HETATM   22  C2  UNL     1      34.505  18.575  51.370  1.00  0.00     0.034 C 
HETATM   23  C1  UNL     1      34.712  19.578  52.479  1.00  0.00     0.010 C 
ENDBRANCH   1  22
TORSDOF 5
ENDMDL
MODEL 2
REMARK VINA RESULT: -7.760885594      0.031      1.014
REMARK  5 active torsions:
REMARK  status: ('A' for Active; 'I' for Inactive)
REMARK    1  A    between atoms: C2_2  and  C3_3 
REMARK    2  A    between atoms: C6_6  and  C7_7 
REMARK    3  A    between atoms: C7_7  and  N1_8 
REMARK    4  A    between atoms: N1_8  and  C8_10 
REMARK    5  A    between atoms: C14_16  and  C15_17 
ROOT
HETATM    1  C3  UNL     1      33.198  18.743  50.680  1.00  0.00    -0.058 A 
HETATM    2  C4  UNL     1      32.040  18.969  51.389  1.00  0.00     0.007 A 
HETATM    3  C5  UNL     1      30.805  19.084  50.778  1.00  0.00     0.010 A 
HETATM    4  C6  UNL     1      30.652  18.976  49.397  1.00  0.00    -0.029 A 
HETATM    5  C14 UNL     1      31.805  18.752  48.685  1.00  0.00    -0.018 A 
HETATM    6  C21 UNL     1      33.057  18.637  49.319  1.00  0.00     0.020 A 
ENDROOT
BRANCH   4   7
HETATM    7  C7  UNL     1      29.323  19.107  48.751  1.00  0.00     0.159 C 
BRANCH   7   8
HETATM    8  N1  UNL     1      28.923  20.448  48.458  1.00  0.00    -0.386 N 
ATOM      9  H1  UNL     1      28.412  20.996  49.150  1.00  0.00     0.160 HD
BRANCH   8  10
HETATM   10  C8  UNL     1      29.248  21.013  47.183  1.00  0.00     0.028 A 
HETATM   11  C9  UNL     1      28.640  20.558  46.022  1.00  0.00     0.029 A 
HETATM   12  C10 UNL     1      28.899  21.066  44.768  1.00  0.00     0.002 A 
HETATM   13  C11 UNL     1      29.817  22.089  44.663  1.00  0.00     0.000 A 
HETATM   14  C12 UNL     1      30.456  22.585  45.777  1.00  0.00     0.002 A 
HETATM   15  C13 UNL     1      30.165  22.042  47.031  1.00  0.00     0.029 A 
ENDBRANCH   8  10
ENDBRANCH   7   8
ENDBRANCH   4   7
BRANCH   5  16
HETATM   16  C15 UNL     1      31.782  18.645  47.235  1.00  0.00    -0.025 A 
HETATM   17  C16 UNL     1      32.401  19.529  46.389  1.00  0.00     0.012 A 
HETATM   18  C17 UNL     1      32.342  19.412  44.995  1.00  0.00     0.001 A 
HETATM   19  C18 UNL     1      31.631  18.361  44.448  1.00  0.00     0.000 A 
HETATM   20  C19 UNL     1      30.995  17.449  45.263  1.00  0.00     0.001 A 
HETATM   21  C20 UNL     1      31.081  17.607  46.619  1.00  0.00     0.012 A 
ENDBRANCH   5  16
BRANCH   1  22
HETATM   22  C2  UNL     1      34.518  18.620  51.336  1.00  0.00     0.034 C 
HETATM   23  C1  UNL     1      34.693  19.589  52.482  1.00  0.00     0.010 C 
ENDBRANCH   1  22
TORSDOF 5
ENDMDL
MODEL 3
REMARK VINA RESULT: -7.755213653      0.140      1.020
REMARK  5 active torsions:
REMARK  status: ('A' for Active; 'I' for Inactive)
REMARK    1  A    between atoms: C2_2  and  C3_3 
REMARK    2  A    between atoms: C6_6  and  C7_7 
REMARK    3  A    between atoms: C7_7  and  N1_8 
REMARK    4  A    between atoms: N1_8  and  C8_10 
REMARK    5  A    between atoms: C14_16  and  C15_17 
ROOT
HETATM    1  C3  UNL     1      33.234  18.867  50.565  1.00  0.00    -0.058 A 
HETATM    2  C4  UNL     1      32.105  19.166  51.293  1.00  0.00     0.007 A 
HETATM    3  C5  UNL     1      30.855  19.277  50.714  1.00  0.00     0.010 A 
HETATM    4  C6  UNL     1      30.656  19.091  49.347  1.00  0.00    -0.029 A 
HETATM    5  C14 UNL     1      31.781  18.794  48.616  1.00  0.00    -0.018 A 
HETATM    6  C21 UNL     1      33.048  18.684  49.218  1.00  0.00     0.020 A 
ENDROOT
BRANCH   4   7
HETATM    7  C7  UNL     1      29.311  19.219  48.734  1.00  0.00     0.159 C 
BRANCH   7   8
HETATM    8  N1  UNL     1      28.924  20.553  48.399  1.00  0.00    -0.386 N 
ATOM      9  H1  UNL     1      28.431  21.133  49.078  1.00  0.00     0.160 HD
BRANCH   8  10
HETATM   10  C8  UNL     1      29.238  21.068  47.099  1.00  0.00     0.028 A 
HETATM   11  C9  UNL     1      30.181  22.072  46.935  1.00  0.00     0.029 A 
HETATM   12  C10 UNL     1      30.536  22.602  45.715  1.00  0.00     0.002 A 
HETATM   13  C11 UNL     1      29.917  22.102  44.589  1.00  0.00     0.000 A 
HETATM   14  C12 UNL     1      28.972  21.105  44.684  1.00  0.00     0.002 A 
HETATM   15  C13 UNL     1      28.640  20.595  45.941  1.00  0.00     0.029 A 
ENDBRANCH   8  10
ENDBRANCH   7   8
ENDBRANCH   4   7
BRANCH   5  16
HETATM   16  C15 UNL     1      31.709  18.601  47.176  1.00  0.00    -0.025 A 
HETATM   17  C16 UNL     1      31.038  17.570  46.571  1.00  0.00     0.012 A 
HETATM   18  C17 UNL     1      31.006  17.399  45.181  1.00  0.00     0.001 A 
HETATM   19  C18 UNL     1      31.679  18.307  44.386  1.00  0.00     0.000 A 
HETATM   20  C19 UNL     1      32.365  19.360  44.954  1.00  0.00     0.001 A 
HETATM   21  C20 UNL     1      32.367  19.484  46.317  1.00  0.00     0.012 A 
ENDBRANCH   5  16
BRANCH   1  22
HETATM   22  C2  UNL     1      34.571  18.748  51.188  1.00  0.00     0.034 C 
HETATM   23  C1  UNL     1      34.710  19.587  52.436  1.00  0.00     0.010 C 
ENDBRANCH   1  22
TORSDOF 5
ENDMDL
MODEL 4
REMARK VINA RESULT: -7.646844938      1.757      3.496
REMARK  5 active torsions:
REMARK  status: ('A' for Active; 'I' for Inactive)
REMARK    1  A    between atoms: C2_2  and  C3_3 
REMARK    2  A    between atoms: C6_6  and  C7_7 
REMARK    3  A    between atoms: C7_7  and  N1_8 
REMARK    4  A    between atoms: N1_8  and  C8_10 
REMARK    5  A    between atoms: C14_16  and  C15_17 
ROOT
HETATM    1  C3  UNL     1      32.226  19.798  50.222  1.00  0.00    -0.058 A 
HETATM    2  C4  UNL     1      32.569  18.536  49.792  1.00  0.00     0.007 A 
HETATM    3  C5  UNL     1      32.106  18.005  48.604  1.00  0.00     0.010 A 
HETATM    4  C6  UNL     1      31.256  18.717  47.758  1.00  0.00    -0.029 A 
HETATM    5  C14 UNL     1      30.910  19.976  48.184  1.00  0.00    -0.018 A 
HETATM    6  C21 UNL     1      31.389  20.506  49.397  1.00  0.00     0.020 A 
ENDROOT
BRANCH   4   7
HETATM    7  C7  UNL     1      30.760  18.135  46.487  1.00  0.00     0.159 C 
BRANCH   7   8
HETATM    8  N1  UNL     1      31.523  18.476  45.328  1.00  0.00    -0.386 N 
ATOM      9  H1  UNL     1      32.475  18.127  45.217  1.00  0.00     0.160 HD
BRANCH   8  10
HETATM   10  C8  UNL     1      30.936  19.313  44.323  1.00  0.00     0.028 A 
HETATM   11  C9  UNL     1      29.567  19.308  44.098  1.00  0.00     0.029 A 
HETATM   12  C10 UNL     1      28.940  20.095  43.158  1.00  0.00     0.002 A 
HETATM   13  C11 UNL     1      29.721  20.939  42.397  1.00  0.00     0.000 A 
HETATM   14  C12 UNL     1      31.086  20.991  42.573  1.00  0.00     0.002 A 
HETATM   15  C13 UNL     1      31.683  20.176  43.537  1.00  0.00     0.029 A 
ENDBRANCH   8  10
ENDBRANCH   7   8
ENDBRANCH   4   7
BRANCH   5  16
HETATM   16  C15 UNL     1      30.010  20.810  47.404  1.00  0.00    -0.025 A 
HETATM   17  C16 UNL     1      28.649  20.646  47.364  1.00  0.00     0.012 A 
HETATM   18  C17 UNL     1      27.810  21.452  46.585  1.00  0.00     0.001 A 
HETATM   19  C18 UNL     1      28.377  22.456  45.824  1.00  0.00     0.000 A 
HETATM   20  C19 UNL     1      29.741  22.657  45.836  1.00  0.00     0.001 A 
HETATM   21  C20 UNL     1      30.518  21.843  46.613  1.00  0.00     0.012 A 
ENDBRANCH   5  16
BRANCH   1  22
HETATM   22  C2  UNL     1      32.724  20.365  51.496  1.00  0.00     0.034 C 
HETATM   23  C1  UNL     1      32.973  19.309  52.546  1.00  0.00     0.010 C 
ENDBRANCH   1  22
TORSDOF 5
ENDMDL
MODEL 5
REMARK VINA RESULT: -7.548949893      1.763      3.369
REMARK  5 active torsions:
REMARK  status: ('A' for Active; 'I' for Inactive)
REMARK    1  A    between atoms: C2_2  and  C3_3 
REMARK    2  A    between atoms: C6_6  and  C7_7 
REMARK    3  A    between atoms: C7_7  and  N1_8 
REMARK    4  A    between atoms: N1_8  and  C8_10 
REMARK    5  A    between atoms: C14_16  and  C15_17 
ROOT
HETATM    1  C3  UNL     1      32.205  19.804  50.203  1.00  0.00    -0.058 A 
HETATM    2  C4  UNL     1      32.551  18.539  49.785  1.00  0.00     0.007 A 
HETATM    3  C5  UNL     1      32.102  18.000  48.595  1.00  0.00     0.010 A 
HETATM    4  C6  UNL     1      31.264  18.707  47.734  1.00  0.00    -0.029 A 
HETATM    5  C14 UNL     1      30.915  19.970  48.147  1.00  0.00    -0.018 A 
HETATM    6  C21 UNL     1      31.379  20.508  49.362  1.00  0.00     0.020 A 
ENDROOT
BRANCH   4   7
HETATM    7  C7  UNL     1      30.782  18.117  46.461  1.00  0.00     0.159 C 
BRANCH   7   8
HETATM    8  N1  UNL     1      31.537  18.480  45.303  1.00  0.00    -0.386 N 
ATOM      9  H1  UNL     1      32.492  18.140  45.184  1.00  0.00     0.160 HD
BRANCH   8  10
HETATM   10  C8  UNL     1      30.939  19.325  44.313  1.00  0.00     0.028 A 
HETATM   11  C9  UNL     1      29.575  19.284  44.066  1.00  0.00     0.029 A 
HETATM   12  C10 UNL     1      28.937  20.076  43.138  1.00  0.00     0.002 A 
HETATM   13  C11 UNL     1      29.702  20.964  42.412  1.00  0.00     0.000 A 
HETATM   14  C12 UNL     1      31.062  21.053  42.609  1.00  0.00     0.002 A 
HETATM   15  C13 UNL     1      31.670  20.231  43.560  1.00  0.00     0.029 A 
ENDBRANCH   8  10
ENDBRANCH   7   8
ENDBRANCH   4   7
BRANCH   5  16
HETATM   16  C15 UNL     1      30.026  20.800  47.350  1.00  0.00    -0.025 A 
HETATM   17  C16 UNL     1      30.443  21.856  46.580  1.00  0.00     0.012 A 
HETATM   18  C17 UNL     1      29.560  22.651  45.840  1.00  0.00     0.001 A 
HETATM   19  C18 UNL     1      28.210  22.360  45.886  1.00  0.00     0.000 A 
HETATM   20  C19 UNL     1      27.748  21.306  46.646  1.00  0.00     0.001 A 
HETATM   21  C20 UNL     1      28.651  20.559  47.352  1.00  0.00     0.012 A 
ENDBRANCH   5  16
BRANCH   1  22
HETATM   22  C2  UNL     1      32.688  20.379  51.478  1.00  0.00     0.034 C 
HETATM   23  C1  UNL     1      33.035  19.322  52.500  1.00  0.00     0.010 C 
ENDBRANCH   1  22
TORSDOF 5
ENDMDL
