MODEL 1
REMARK VINA RESULT: -10.459329676      0.000      0.000
REMARK  5 active torsions:
REMARK  status: ('A' for Active; 'I' for Inactive)
REMARK    1  A    between atoms: C2_2  and  C3_3 
REMARK    2  A    between atoms: C6_6  and  C7_7 
REMARK    3  A    between atoms: C7_7  and  N1_8 
REMARK    4  A    between atoms: N1_8  and  C8_10 
REMARK    5  A    between atoms: C11_13  and  C12_14 
ROOT
HETATM    1  C8  UNL     1      32.146  18.966  49.399  1.00  0.00     0.028 A 
HETATM    2  C9  UNL     1      32.310  18.491  48.108  1.00  0.00     0.030 A 
HETATM    3  C10 UNL     1      31.787  19.203  47.052  1.00  0.00     0.014 A 
HETATM    4  C11 UNL     1      31.100  20.381  47.226  1.00  0.00    -0.026 A 
HETATM    5  C18 UNL     1      30.955  20.826  48.524  1.00  0.00     0.014 A 
HETATM    6  C19 UNL     1      31.464  20.140  49.603  1.00  0.00     0.030 A 
ENDROOT
BRANCH   1   7
HETATM    7  N1  UNL     1      32.663  18.272  50.518  1.00  0.00    -0.386 N 
ATOM      8  H1  UNL     1      33.060  17.343  50.377  1.00  0.00     0.160 HD
BRANCH   7   9
HETATM    9  C7  UNL     1      32.651  18.826  51.859  1.00  0.00     0.158 C 
BRANCH   9  10
HETATM   10  C6  UNL     1      33.962  18.596  52.539  1.00  0.00    -0.041 A 
HETATM   11  C5  UNL     1      34.074  18.640  53.913  1.00  0.00     0.009 A 
HETATM   12  C4  UNL     1      35.286  18.426  54.503  1.00  0.00     0.007 A 
HETATM   13  C3  UNL     1      36.420  18.161  53.744  1.00  0.00    -0.059 A 
HETATM   14  C21 UNL     1      36.337  18.110  52.369  1.00  0.00     0.007 A 
HETATM   15  C20 UNL     1      35.107  18.328  51.785  1.00  0.00     0.009 A 
BRANCH  13  16
HETATM   16  C2  UNL     1      37.749  17.924  54.353  1.00  0.00     0.034 C 
HETATM   17  C1  UNL     1      37.890  16.529  54.898  1.00  0.00     0.010 C 
ENDBRANCH  13  16
ENDBRANCH   9  10
ENDBRANCH   7   9
ENDBRANCH   1   7
BRANCH   4  18
HETATM   18  C12 UNL     1      30.557  21.111  46.081  1.00  0.00    -0.026 A 
HETATM   19  C13 UNL     1      30.014  20.433  45.011  1.00  0.00     0.012 A 
HETATM   20  C14 UNL     1      29.489  21.092  43.907  1.00  0.00     0.001 A 
HETATM   21  C15 UNL     1      29.533  22.475  43.925  1.00  0.00     0.000 A 
HETATM   22  C16 UNL     1      30.067  23.173  44.976  1.00  0.00     0.001 A 
HETATM   23  C17 UNL     1      30.580  22.489  46.056  1.00  0.00     0.012 A 
ENDBRANCH   4  18
TORSDOF 5
ENDMDL
MODEL 2
REMARK VINA RESULT: -10.446462099      0.038      1.020
REMARK  5 active torsions:
REMARK  status: ('A' for Active; 'I' for Inactive)
REMARK    1  A    between atoms: C2_2  and  C3_3 
REMARK    2  A    between atoms: C6_6  and  C7_7 
REMARK    3  A    between atoms: C7_7  and  N1_8 
REMARK    4  A    between atoms: N1_8  and  C8_10 
REMARK    5  A    between atoms: C11_13  and  C12_14 
ROOT
HETATM    1  C8  UNL     1      32.164  18.955  49.384  1.00  0.00     0.028 A 
HETATM    2  C9  UNL     1      32.314  18.476  48.092  1.00  0.00     0.030 A 
HETATM    3  C10 UNL     1      31.786  19.188  47.040  1.00  0.00     0.014 A 
HETATM    4  C11 UNL     1      31.104  20.370  47.216  1.00  0.00    -0.026 A 
HETATM    5  C18 UNL     1      30.972  20.818  48.514  1.00  0.00     0.014 A 
HETATM    6  C19 UNL     1      31.488  20.133  49.591  1.00  0.00     0.030 A 
ENDROOT
BRANCH   1   7
HETATM    7  N1  UNL     1      32.687  18.262  50.500  1.00  0.00    -0.386 N 
ATOM      8  H1  UNL     1      33.102  17.341  50.353  1.00  0.00     0.160 HD
BRANCH   7   9
HETATM    9  C7  UNL     1      32.659  18.805  51.845  1.00  0.00     0.158 C 
BRANCH   9  10
HETATM   10  C6  UNL     1      33.967  18.582  52.534  1.00  0.00    -0.041 A 
HETATM   11  C5  UNL     1      34.081  18.680  53.905  1.00  0.00     0.009 A 
HETATM   12  C4  UNL     1      35.290  18.469  54.503  1.00  0.00     0.007 A 
HETATM   13  C3  UNL     1      36.419  18.155  53.756  1.00  0.00    -0.059 A 
HETATM   14  C21 UNL     1      36.334  18.050  52.385  1.00  0.00     0.007 A 
HETATM   15  C20 UNL     1      35.107  18.265  51.791  1.00  0.00     0.009 A 
BRANCH  13  16
HETATM   16  C2  UNL     1      37.743  17.921  54.374  1.00  0.00     0.034 C 
HETATM   17  C1  UNL     1      37.892  16.519  54.899  1.00  0.00     0.010 C 
ENDBRANCH  13  16
ENDBRANCH   9  10
ENDBRANCH   7   9
ENDBRANCH   1   7
BRANCH   4  18
HETATM   18  C12 UNL     1      30.555  21.099  46.075  1.00  0.00    -0.026 A 
HETATM   19  C13 UNL     1      30.525  22.478  46.072  1.00  0.00     0.012 A 
HETATM   20  C14 UNL     1      30.011  23.204  45.006  1.00  0.00     0.001 A 
HETATM   21  C15 UNL     1      29.525  22.478  43.932  1.00  0.00     0.000 A 
HETATM   22  C16 UNL     1      29.543  21.110  43.909  1.00  0.00     0.001 A 
HETATM   23  C17 UNL     1      30.059  20.419  44.983  1.00  0.00     0.012 A 
ENDBRANCH   4  18
TORSDOF 5
ENDMDL
MODEL 3
REMARK VINA RESULT: -10.428374545      0.137      1.447
REMARK  5 active torsions:
REMARK  status: ('A' for Active; 'I' for Inactive)
REMARK    1  A    between atoms: C2_2  and  C3_3 
REMARK    2  A    between atoms: C6_6  and  C7_7 
REMARK    3  A    between atoms: C7_7  and  N1_8 
REMARK    4  A    between atoms: N1_8  and  C8_10 
REMARK    5  A    between atoms: C11_13  and  C12_14 
ROOT
HETATM    1  C8  UNL     1      32.109  19.071  49.419  1.00  0.00     0.028 A 
HETATM    2  C9  UNL     1      32.330  18.585  48.141  1.00  0.00     0.030 A 
HETATM    3  C10 UNL     1      31.813  19.261  47.060  1.00  0.00     0.014 A 
HETATM    4  C11 UNL     1      31.076  20.414  47.195  1.00  0.00    -0.026 A 
HETATM    5  C18 UNL     1      30.874  20.871  48.481  1.00  0.00     0.014 A 
HETATM    6  C19 UNL     1      31.377  20.221  49.585  1.00  0.00     0.030 A 
ENDROOT
BRANCH   1   7
HETATM    7  N1  UNL     1      32.618  18.413  50.564  1.00  0.00    -0.386 N 
ATOM      8  H1  UNL     1      32.913  17.440  50.478  1.00  0.00     0.160 HD
BRANCH   7   9
HETATM    9  C7  UNL     1      32.738  19.064  51.855  1.00  0.00     0.158 C 
BRANCH   9  10
HETATM   10  C6  UNL     1      34.066  18.771  52.475  1.00  0.00    -0.041 A 
HETATM   11  C5  UNL     1      35.185  18.547  51.701  1.00  0.00     0.009 A 
HETATM   12  C4  UNL     1      36.383  18.281  52.299  1.00  0.00     0.007 A 
HETATM   13  C3  UNL     1      36.502  18.231  53.684  1.00  0.00    -0.059 A 
HETATM   14  C21 UNL     1      35.401  18.452  54.481  1.00  0.00     0.007 A 
HETATM   15  C20 UNL     1      34.196  18.719  53.865  1.00  0.00     0.009 A 
BRANCH  13  16
HETATM   16  C2  UNL     1      37.786  17.945  54.362  1.00  0.00     0.034 C 
HETATM   17  C1  UNL     1      37.846  16.546  54.912  1.00  0.00     0.010 C 
ENDBRANCH  13  16
ENDBRANCH   9  10
ENDBRANCH   7   9
ENDBRANCH   1   7
BRANCH   4  18
HETATM   18  C12 UNL     1      30.541  21.106  46.024  1.00  0.00    -0.026 A 
HETATM   19  C13 UNL     1      30.623  22.479  45.922  1.00  0.00     0.012 A 
HETATM   20  C14 UNL     1      30.127  23.170  44.825  1.00  0.00     0.001 A 
HETATM   21  C15 UNL     1      29.538  22.416  43.825  1.00  0.00     0.000 A 
HETATM   22  C16 UNL     1      29.444  21.052  43.901  1.00  0.00     0.001 A 
HETATM   23  C17 UNL     1      29.946  20.396  45.003  1.00  0.00     0.012 A 
ENDBRANCH   4  18
TORSDOF 5
ENDMDL
MODEL 4
REMARK VINA RESULT: -10.427259839      1.285      2.221
REMARK  5 active torsions:
REMARK  status: ('A' for Active; 'I' for Inactive)
REMARK    1  A    between atoms: C2_2  and  C3_3 
REMARK    2  A    between atoms: C6_6  and  C7_7 
REMARK    3  A    between atoms: C7_7  and  N1_8 
REMARK    4  A    between atoms: N1_8  and  C8_10 
REMARK    5  A    between atoms: C11_13  and  C12_14 
ROOT
HETATM    1  C8  UNL     1      31.897  18.802  50.053  1.00  0.00     0.028 A 
HETATM    2  C9  UNL     1      30.613  18.513  49.620  1.00  0.00     0.030 A 
HETATM    3  C10 UNL     1      30.307  18.626  48.283  1.00  0.00     0.014 A 
HETATM    4  C11 UNL     1      31.232  19.019  47.345  1.00  0.00    -0.026 A 
HETATM    5  C18 UNL     1      32.500  19.299  47.809  1.00  0.00     0.014 A 
HETATM    6  C19 UNL     1      32.843  19.197  49.138  1.00  0.00     0.030 A 
ENDROOT
BRANCH   1   7
HETATM    7  N1  UNL     1      32.264  18.703  51.415  1.00  0.00    -0.386 N 
ATOM      8  H1  UNL     1      31.970  17.880  51.942  1.00  0.00     0.160 HD
BRANCH   7   9
HETATM    9  C7  UNL     1      33.041  19.723  52.095  1.00  0.00     0.158 C 
BRANCH   9  10
HETATM   10  C6  UNL     1      34.326  19.157  52.607  1.00  0.00    -0.041 A 
HETATM   11  C5  UNL     1      35.349  18.811  51.750  1.00  0.00     0.009 A 
HETATM   12  C4  UNL     1      36.510  18.296  52.250  1.00  0.00     0.007 A 
HETATM   13  C3  UNL     1      36.687  18.112  53.617  1.00  0.00    -0.059 A 
HETATM   14  C21 UNL     1      35.682  18.449  54.496  1.00  0.00     0.007 A 
HETATM   15  C20 UNL     1      34.513  18.968  53.979  1.00  0.00     0.009 A 
BRANCH  13  16
HETATM   16  C2  UNL     1      37.934  17.556  54.190  1.00  0.00     0.034 C 
HETATM   17  C1  UNL     1      37.678  16.365  55.073  1.00  0.00     0.010 C 
ENDBRANCH  13  16
ENDBRANCH   9  10
ENDBRANCH   7   9
ENDBRANCH   1   7
BRANCH   4  18
HETATM   18  C12 UNL     1      30.870  19.129  45.933  1.00  0.00    -0.026 A 
HETATM   19  C13 UNL     1      30.102  20.183  45.485  1.00  0.00     0.012 A 
HETATM   20  C14 UNL     1      29.740  20.320  44.152  1.00  0.00     0.001 A 
HETATM   21  C15 UNL     1      30.188  19.344  43.279  1.00  0.00     0.000 A 
HETATM   22  C16 UNL     1      30.952  18.288  43.697  1.00  0.00     0.001 A 
HETATM   23  C17 UNL     1      31.294  18.180  45.027  1.00  0.00     0.012 A 
ENDBRANCH   4  18
TORSDOF 5
ENDMDL
MODEL 5
REMARK VINA RESULT: -10.422558232      0.170      1.034
REMARK  5 active torsions:
REMARK  status: ('A' for Active; 'I' for Inactive)
REMARK    1  A    between atoms: C2_2  and  C3_3 
REMARK    2  A    between atoms: C6_6  and  C7_7 
REMARK    3  A    between atoms: C7_7  and  N1_8 
REMARK    4  A    between atoms: N1_8  and  C8_10 
REMARK    5  A    between atoms: C11_13  and  C12_14 
ROOT
HETATM    1  C8  UNL     1      32.097  19.111  49.421  1.00  0.00     0.028 A 
HETATM    2  C9  UNL     1      32.338  18.626  48.145  1.00  0.00     0.030 A 
HETATM    3  C10 UNL     1      31.825  19.296  47.059  1.00  0.00     0.014 A 
HETATM    4  C11 UNL     1      31.072  20.441  47.184  1.00  0.00    -0.026 A 
HETATM    5  C18 UNL     1      30.851  20.895  48.468  1.00  0.00     0.014 A 
HETATM    6  C19 UNL     1      31.349  20.252  49.578  1.00  0.00     0.030 A 
ENDROOT
BRANCH   1   7
HETATM    7  N1  UNL     1      32.601  18.460  50.572  1.00  0.00    -0.386 N 
ATOM      8  H1  UNL     1      32.874  17.480  50.498  1.00  0.00     0.160 HD
BRANCH   7   9
HETATM    9  C7  UNL     1      32.747  19.128  51.851  1.00  0.00     0.158 C 
BRANCH   9  10
HETATM   10  C6  UNL     1      34.073  18.816  52.464  1.00  0.00    -0.041 A 
HETATM   11  C5  UNL     1      35.178  18.545  51.685  1.00  0.00     0.009 A 
HETATM   12  C4  UNL     1      36.375  18.264  52.277  1.00  0.00     0.007 A 
HETATM   13  C3  UNL     1      36.508  18.244  53.661  1.00  0.00    -0.059 A 
HETATM   14  C21 UNL     1      35.422  18.512  54.464  1.00  0.00     0.007 A 
HETATM   15  C20 UNL     1      34.217  18.794  53.854  1.00  0.00     0.009 A 
BRANCH  13  16
HETATM   16  C2  UNL     1      37.793  17.943  54.333  1.00  0.00     0.034 C 
HETATM   17  C1  UNL     1      37.834  16.545  54.889  1.00  0.00     0.010 C 
ENDBRANCH  13  16
ENDBRANCH   9  10
ENDBRANCH   7   9
ENDBRANCH   1   7
BRANCH   4  18
HETATM   18  C12 UNL     1      30.542  21.126  46.007  1.00  0.00    -0.026 A 
HETATM   19  C13 UNL     1      29.934  20.413  44.995  1.00  0.00     0.012 A 
HETATM   20  C14 UNL     1      29.419  21.029  43.863  1.00  0.00     0.001 A 
HETATM   21  C15 UNL     1      29.540  22.405  43.791  1.00  0.00     0.000 A 
HETATM   22  C16 UNL     1      30.138  23.137  44.781  1.00  0.00     0.001 A 
HETATM   23  C17 UNL     1      30.640  22.496  45.892  1.00  0.00     0.012 A 
ENDBRANCH   4  18
TORSDOF 5
ENDMDL
