MODEL 1
REMARK VINA RESULT: -8.199350593      0.000      0.000
REMARK  5 active torsions:
REMARK  status: ('A' for Active; 'I' for Inactive)
REMARK    1  A    between atoms: C4_4  and  C5_5 
REMARK    2  A    between atoms: C5_5  and  S1_6 
REMARK    3  A    between atoms: S1_6  and  C6_7 
REMARK    4  A    between atoms: C6_7  and  C7_8 
REMARK    5  A    between atoms: C6_7  and  C13_14 
ROOT
HETATM    1  C6  UNL     1      30.397  18.773  47.439  1.00  0.00     0.113 C 
ENDROOT
BRANCH   1   2
HETATM    2  S1  UNL     1      31.818  18.123  46.485  1.00  0.00    -0.150 SA
BRANCH   2   3
HETATM    3  C5  UNL     1      31.208  17.601  44.877  1.00  0.00     0.113 C 
BRANCH   3   4
HETATM    4  C4  UNL     1      30.758  18.758  44.041  1.00  0.00    -0.049 A 
HETATM    5  C3  UNL     1      29.449  18.989  43.693  1.00  0.00     0.008 A 
HETATM    6  C2  UNL     1      29.084  20.078  42.914  1.00  0.00     0.001 A 
HETATM    7  C1  UNL     1      30.021  20.978  42.454  1.00  0.00     0.000 A 
HETATM    8  C20 UNL     1      31.336  20.755  42.799  1.00  0.00     0.001 A 
HETATM    9  C19 UNL     1      31.704  19.677  43.569  1.00  0.00     0.008 A 
ENDBRANCH   3   4
ENDBRANCH   2   3
ENDBRANCH   1   2
BRANCH   1  10
HETATM   10  C7  UNL     1      30.169  20.154  46.931  1.00  0.00    -0.040 A 
HETATM   11  C8  UNL     1      28.910  20.556  46.609  1.00  0.00     0.009 A 
HETATM   12  C9  UNL     1      28.671  21.829  46.127  1.00  0.00     0.001 A 
HETATM   13  C10 UNL     1      29.681  22.740  45.954  1.00  0.00     0.000 A 
HETATM   14  C11 UNL     1      30.960  22.335  46.282  1.00  0.00     0.001 A 
HETATM   15  C12 UNL     1      31.204  21.054  46.766  1.00  0.00     0.009 A 
ENDBRANCH   1  10
BRANCH   1  16
HETATM   16  C13 UNL     1      30.646  18.697  48.881  1.00  0.00    -0.040 A 
HETATM   17  C14 UNL     1      31.893  18.700  49.456  1.00  0.00     0.009 A 
HETATM   18  C15 UNL     1      32.020  18.627  50.817  1.00  0.00     0.001 A 
HETATM   19  C16 UNL     1      30.932  18.548  51.656  1.00  0.00     0.000 A 
HETATM   20  C17 UNL     1      29.653  18.544  51.096  1.00  0.00     0.001 A 
HETATM   21  C18 UNL     1      29.544  18.618  49.727  1.00  0.00     0.009 A 
ENDBRANCH   1  16
TORSDOF 5
ENDMDL
MODEL 2
REMARK VINA RESULT: -8.188118427      0.036      1.029
REMARK  5 active torsions:
REMARK  status: ('A' for Active; 'I' for Inactive)
REMARK    1  A    between atoms: C4_4  and  C5_5 
REMARK    2  A    between atoms: C5_5  and  S1_6 
REMARK    3  A    between atoms: S1_6  and  C6_7 
REMARK    4  A    between atoms: C6_7  and  C7_8 
REMARK    5  A    between atoms: C6_7  and  C13_14 
ROOT
HETATM    1  C6  UNL     1      30.400  18.760  47.448  1.00  0.00     0.113 C 
ENDROOT
BRANCH   1   2
HETATM    2  S1  UNL     1      31.805  18.092  46.483  1.00  0.00    -0.150 SA
BRANCH   2   3
HETATM    3  C5  UNL     1      31.183  17.610  44.867  1.00  0.00     0.113 C 
BRANCH   3   4
HETATM    4  C4  UNL     1      30.803  18.792  44.032  1.00  0.00    -0.049 A 
HETATM    5  C3  UNL     1      31.705  19.706  43.541  1.00  0.00     0.008 A 
HETATM    6  C2  UNL     1      31.300  20.786  42.771  1.00  0.00     0.001 A 
HETATM    7  C1  UNL     1      29.973  20.991  42.462  1.00  0.00     0.000 A 
HETATM    8  C20 UNL     1      29.062  20.079  42.949  1.00  0.00     0.001 A 
HETATM    9  C19 UNL     1      29.457  19.008  43.715  1.00  0.00     0.008 A 
ENDBRANCH   3   4
ENDBRANCH   2   3
ENDBRANCH   1   2
BRANCH   1  10
HETATM   10  C7  UNL     1      30.182  20.142  46.940  1.00  0.00    -0.040 A 
HETATM   11  C8  UNL     1      28.927  20.553  46.615  1.00  0.00     0.009 A 
HETATM   12  C9  UNL     1      28.698  21.827  46.132  1.00  0.00     0.001 A 
HETATM   13  C10 UNL     1      29.714  22.730  45.961  1.00  0.00     0.000 A 
HETATM   14  C11 UNL     1      30.989  22.317  46.291  1.00  0.00     0.001 A 
HETATM   15  C12 UNL     1      31.224  21.034  46.777  1.00  0.00     0.009 A 
ENDBRANCH   1  10
BRANCH   1  16
HETATM   16  C13 UNL     1      30.660  18.684  48.888  1.00  0.00    -0.040 A 
HETATM   17  C14 UNL     1      31.913  18.670  49.452  1.00  0.00     0.009 A 
HETATM   18  C15 UNL     1      32.050  18.598  50.812  1.00  0.00     0.001 A 
HETATM   19  C16 UNL     1      30.969  18.537  51.661  1.00  0.00     0.000 A 
HETATM   20  C17 UNL     1      29.685  18.550  51.112  1.00  0.00     0.001 A 
HETATM   21  C18 UNL     1      29.565  18.623  49.744  1.00  0.00     0.009 A 
ENDBRANCH   1  16
TORSDOF 5
ENDMDL
MODEL 3
REMARK VINA RESULT: -7.841126050      1.683      4.841
REMARK  5 active torsions:
REMARK  status: ('A' for Active; 'I' for Inactive)
REMARK    1  A    between atoms: C4_4  and  C5_5 
REMARK    2  A    between atoms: C5_5  and  S1_6 
REMARK    3  A    between atoms: S1_6  and  C6_7 
REMARK    4  A    between atoms: C6_7  and  C7_8 
REMARK    5  A    between atoms: C6_7  and  C13_14 
ROOT
HETATM    1  C6  UNL     1      30.455  18.417  48.281  1.00  0.00     0.113 C 
ENDROOT
BRANCH   1   2
HETATM    2  S1  UNL     1      29.256  19.797  48.369  1.00  0.00    -0.150 SA
BRANCH   2   3
HETATM    3  C5  UNL     1      30.186  21.335  48.373  1.00  0.00     0.113 C 
BRANCH   3   4
HETATM    4  C4  UNL     1      30.169  22.008  47.037  1.00  0.00    -0.049 A 
HETATM    5  C3  UNL     1      31.248  22.667  46.496  1.00  0.00     0.008 A 
HETATM    6  C2  UNL     1      31.180  23.276  45.251  1.00  0.00     0.001 A 
HETATM    7  C1  UNL     1      30.025  23.247  44.500  1.00  0.00     0.000 A 
HETATM    8  C20 UNL     1      28.938  22.589  45.034  1.00  0.00     0.001 A 
HETATM    9  C19 UNL     1      28.999  21.985  46.268  1.00  0.00     0.008 A 
ENDBRANCH   3   4
ENDBRANCH   2   3
ENDBRANCH   1   2
BRANCH   1  10
HETATM   10  C7  UNL     1      31.461  18.689  49.343  1.00  0.00    -0.040 A 
HETATM   11  C8  UNL     1      31.088  18.661  50.651  1.00  0.00     0.009 A 
HETATM   12  C9  UNL     1      31.999  18.919  51.658  1.00  0.00     0.001 A 
HETATM   13  C10 UNL     1      33.311  19.210  51.389  1.00  0.00     0.000 A 
HETATM   14  C11 UNL     1      33.694  19.237  50.063  1.00  0.00     0.001 A 
HETATM   15  C12 UNL     1      32.779  18.979  49.047  1.00  0.00     0.009 A 
ENDBRANCH   1  10
BRANCH   1  16
HETATM   16  C13 UNL     1      31.022  18.291  46.935  1.00  0.00    -0.040 A 
HETATM   17  C14 UNL     1      32.064  17.458  46.606  1.00  0.00     0.009 A 
HETATM   18  C15 UNL     1      32.521  17.412  45.316  1.00  0.00     0.001 A 
HETATM   19  C16 UNL     1      31.975  18.177  44.311  1.00  0.00     0.000 A 
HETATM   20  C17 UNL     1      30.914  19.031  44.621  1.00  0.00     0.001 A 
HETATM   21  C18 UNL     1      30.467  19.065  45.921  1.00  0.00     0.009 A 
ENDBRANCH   1  16
TORSDOF 5
ENDMDL
MODEL 4
REMARK VINA RESULT: -7.730305744      1.710      4.911
REMARK  5 active torsions:
REMARK  status: ('A' for Active; 'I' for Inactive)
REMARK    1  A    between atoms: C4_4  and  C5_5 
REMARK    2  A    between atoms: C5_5  and  S1_6 
REMARK    3  A    between atoms: S1_6  and  C6_7 
REMARK    4  A    between atoms: C6_7  and  C7_8 
REMARK    5  A    between atoms: C6_7  and  C13_14 
ROOT
HETATM    1  C6  UNL     1      30.445  18.482  48.301  1.00  0.00     0.113 C 
ENDROOT
BRANCH   1   2
HETATM    2  S1  UNL     1      29.291  19.894  48.457  1.00  0.00    -0.150 SA
BRANCH   2   3
HETATM    3  C5  UNL     1      30.259  21.407  48.376  1.00  0.00     0.113 C 
BRANCH   3   4
HETATM    4  C4  UNL     1      30.191  22.049  47.026  1.00  0.00    -0.049 A 
HETATM    5  C3  UNL     1      31.237  22.728  46.446  1.00  0.00     0.008 A 
HETATM    6  C2  UNL     1      31.122  23.306  45.190  1.00  0.00     0.001 A 
HETATM    7  C1  UNL     1      29.952  23.224  44.466  1.00  0.00     0.000 A 
HETATM    8  C20 UNL     1      28.899  22.545  45.039  1.00  0.00     0.001 A 
HETATM    9  C19 UNL     1      29.006  21.971  46.284  1.00  0.00     0.008 A 
ENDBRANCH   3   4
ENDBRANCH   2   3
ENDBRANCH   1   2
BRANCH   1  10
HETATM   10  C7  UNL     1      31.485  18.695  49.345  1.00  0.00    -0.040 A 
HETATM   11  C8  UNL     1      31.153  18.596  50.660  1.00  0.00     0.009 A 
HETATM   12  C9  UNL     1      32.097  18.798  51.650  1.00  0.00     0.001 A 
HETATM   13  C10 UNL     1      33.400  19.102  51.356  1.00  0.00     0.000 A 
HETATM   14  C11 UNL     1      33.741  19.201  50.022  1.00  0.00     0.001 A 
HETATM   15  C12 UNL     1      32.794  19.000  49.023  1.00  0.00     0.009 A 
ENDBRANCH   1  10
BRANCH   1  16
HETATM   16  C13 UNL     1      30.975  18.375  46.939  1.00  0.00    -0.040 A 
HETATM   17  C14 UNL     1      30.482  19.066  45.858  1.00  0.00     0.009 A 
HETATM   18  C15 UNL     1      31.049  18.897  44.623  1.00  0.00     0.001 A 
HETATM   19  C16 UNL     1      32.111  18.050  44.407  1.00  0.00     0.000 A 
HETATM   20  C17 UNL     1      32.630  17.338  45.491  1.00  0.00     0.001 A 
HETATM   21  C18 UNL     1      32.049  17.519  46.724  1.00  0.00     0.009 A 
ENDBRANCH   1  16
TORSDOF 5
ENDMDL
MODEL 5
REMARK VINA RESULT: -7.705122866      1.714      4.816
REMARK  5 active torsions:
REMARK  status: ('A' for Active; 'I' for Inactive)
REMARK    1  A    between atoms: C4_4  and  C5_5 
REMARK    2  A    between atoms: C5_5  and  S1_6 
REMARK    3  A    between atoms: S1_6  and  C6_7 
REMARK    4  A    between atoms: C6_7  and  C7_8 
REMARK    5  A    between atoms: C6_7  and  C13_14 
ROOT
HETATM    1  C6  UNL     1      30.446  18.444  48.247  1.00  0.00     0.113 C 
ENDROOT
BRANCH   1   2
HETATM    2  S1  UNL     1      29.244  19.814  48.418  1.00  0.00    -0.150 SA
BRANCH   2   3
HETATM    3  C5  UNL     1      30.165  21.358  48.411  1.00  0.00     0.113 C 
BRANCH   3   4
HETATM    4  C4  UNL     1      30.137  22.026  47.072  1.00  0.00    -0.049 A 
HETATM    5  C3  UNL     1      29.047  22.020  46.234  1.00  0.00     0.008 A 
HETATM    6  C2  UNL     1      29.073  22.655  45.001  1.00  0.00     0.001 A 
HETATM    7  C1  UNL     1      30.195  23.323  44.561  1.00  0.00     0.000 A 
HETATM    8  C20 UNL     1      31.293  23.335  45.394  1.00  0.00     0.001 A 
HETATM    9  C19 UNL     1      31.274  22.706  46.617  1.00  0.00     0.008 A 
ENDBRANCH   3   4
ENDBRANCH   2   3
ENDBRANCH   1   2
BRANCH   1  10
HETATM   10  C7  UNL     1      31.482  18.685  49.289  1.00  0.00    -0.040 A 
HETATM   11  C8  UNL     1      31.153  18.585  50.605  1.00  0.00     0.009 A 
HETATM   12  C9  UNL     1      32.093  18.812  51.593  1.00  0.00     0.001 A 
HETATM   13  C10 UNL     1      33.389  19.143  51.296  1.00  0.00     0.000 A 
HETATM   14  C11 UNL     1      33.726  19.244  49.961  1.00  0.00     0.001 A 
HETATM   15  C12 UNL     1      32.783  19.017  48.964  1.00  0.00     0.009 A 
ENDBRANCH   1  10
BRANCH   1  16
HETATM   16  C13 UNL     1      30.973  18.366  46.882  1.00  0.00    -0.040 A 
HETATM   17  C14 UNL     1      30.524  19.129  45.832  1.00  0.00     0.009 A 
HETATM   18  C15 UNL     1      31.085  18.982  44.591  1.00  0.00     0.001 A 
HETATM   19  C16 UNL     1      32.099  18.086  44.341  1.00  0.00     0.000 A 
HETATM   20  C17 UNL     1      32.572  17.300  45.393  1.00  0.00     0.001 A 
HETATM   21  C18 UNL     1      31.998  17.460  46.632  1.00  0.00     0.009 A 
ENDBRANCH   1  16
TORSDOF 5
ENDMDL
