MODEL 1
REMARK VINA RESULT: -9.380046277      0.000      0.000
REMARK  8 active torsions:
REMARK  status: ('A' for Active; 'I' for Inactive)
REMARK    1  A    between atoms: C2_2  and  C3_3 
REMARK    2  A    between atoms: C3_3  and  C4_4 
REMARK    3  A    between atoms: C4_4  and  C5_5 
REMARK    4  A    between atoms: C6_6  and  C7_7 
REMARK    5  A    between atoms: C7_7  and  C8_8 
REMARK    6  A    between atoms: C10_12  and  C11_13 
REMARK    7  A    between atoms: C19_24  and  C20_25 
REMARK    8  A    between atoms: C20_25  and  C22_27 
ROOT
HETATM    1  C8  UNL     1      -1.418  -7.309  -8.364  1.00  0.00     0.118 C 
HETATM    2  C9  UNL     1      -0.634  -6.055  -8.086  1.00  0.00     0.268 C 
HETATM    3  O1  UNL     1      -1.165  -5.021  -7.621  1.00  0.00    -0.265 OA
HETATM    4  O2  UNL     1       0.702  -6.089  -8.365  1.00  0.00    -0.289 OA
HETATM    5  C10 UNL     1       1.492  -7.254  -8.230  1.00  0.00     0.276 C 
HETATM    6  O5  UNL     1       0.716  -8.389  -8.082  1.00  0.00    -0.354 OA
HETATM    7  C19 UNL     1      -0.449  -8.338  -8.843  1.00  0.00     0.144 C 
ENDROOT
BRANCH   5   8
HETATM    8  C11 UNL     1       2.447  -7.147  -7.065  1.00  0.00     0.076 C 
HETATM    9  C12 UNL     1       2.075  -6.134  -6.047  1.00  0.00     0.013 C 
HETATM   10  C13 UNL     1       2.750  -4.814  -6.127  1.00  0.00     0.015 C 
HETATM   11  C14 UNL     1       4.232  -4.970  -6.424  1.00  0.00     0.088 C 
HETATM   12  C15 UNL     1       4.285  -5.590  -7.828  1.00  0.00     0.053 C 
HETATM   13  C18 UNL     1       4.825  -6.076  -5.629  1.00  0.00     0.264 C 
HETATM   14  C16 UNL     1       3.882  -7.003  -7.507  1.00  0.00     0.076 C 
HETATM   15  C17 UNL     1       4.264  -8.001  -8.550  1.00  0.00     0.047 C 
HETATM   16  O3  UNL     1       4.681  -7.256  -6.347  1.00  0.00    -0.310 OA
HETATM   17  O4  UNL     1       5.376  -6.022  -4.502  1.00  0.00    -0.265 OA
ENDBRANCH   5   8
BRANCH   7  18
HETATM   18  C20 UNL     1      -0.968  -9.687  -9.090  1.00  0.00     0.040 C 
HETATM   19  C21 UNL     1       0.230 -10.680  -8.898  1.00  0.00     0.015 C 
BRANCH  18  20
HETATM   20  C22 UNL     1      -2.038 -10.265  -8.273  1.00  0.00     0.128 C 
HETATM   21  C23 UNL     1      -1.822 -10.650  -6.872  1.00  0.00     0.033 C 
HETATM   22  C24 UNL     1      -3.200 -10.604  -6.193  1.00  0.00     0.009 C 
HETATM   23  C25 UNL     1      -4.312 -10.676  -7.168  1.00  0.00     0.010 C 
HETATM   24  C26 UNL     1      -5.448 -11.490  -6.528  1.00  0.00     0.012 C 
HETATM   25  C27 UNL     1      -4.039 -11.290  -8.489  1.00  0.00     0.121 C 
HETATM   26  C28 UNL     1      -4.727 -12.635  -8.670  1.00  0.00     0.040 C 
HETATM   27  O6  UNL     1      -2.714 -11.334  -8.885  1.00  0.00    -0.380 OA
ENDBRANCH  18  20
ENDBRANCH   7  18
BRANCH   1  28
HETATM   28  C7  UNL     1      -2.448  -6.970  -9.429  1.00  0.00     0.044 C 
BRANCH  28  29
HETATM   29  C6  UNL     1      -2.097  -7.342 -10.778  1.00  0.00    -0.030 C 
HETATM   30  C5  UNL     1      -1.599  -6.548 -11.688  1.00  0.00    -0.031 C 
BRANCH  30  31
HETATM   31  C4  UNL     1      -1.306  -5.116 -11.495  1.00  0.00     0.027 C 
BRANCH  31  32
HETATM   32  C3  UNL     1      -0.946  -4.459 -12.824  1.00  0.00     0.003 C 
BRANCH  32  33
HETATM   33  C2  UNL     1      -0.966  -2.947 -12.693  1.00  0.00    -0.004 C 
HETATM   34  C1  UNL     1       0.077  -2.280 -13.541  1.00  0.00     0.005 C 
ENDBRANCH  32  33
ENDBRANCH  31  32
ENDBRANCH  30  31
ENDBRANCH  28  29
ENDBRANCH   1  28
TORSDOF 8
ENDMDL
MODEL 2
REMARK VINA RESULT: -9.276196752      0.828      1.066
REMARK  8 active torsions:
REMARK  status: ('A' for Active; 'I' for Inactive)
REMARK    1  A    between atoms: C2_2  and  C3_3 
REMARK    2  A    between atoms: C3_3  and  C4_4 
REMARK    3  A    between atoms: C4_4  and  C5_5 
REMARK    4  A    between atoms: C6_6  and  C7_7 
REMARK    5  A    between atoms: C7_7  and  C8_8 
REMARK    6  A    between atoms: C10_12  and  C11_13 
REMARK    7  A    between atoms: C19_24  and  C20_25 
REMARK    8  A    between atoms: C20_25  and  C22_27 
ROOT
HETATM    1  C8  UNL     1      -1.294  -6.820  -8.495  1.00  0.00     0.118 C 
HETATM    2  C9  UNL     1      -0.415  -5.633  -8.206  1.00  0.00     0.268 C 
HETATM    3  O1  UNL     1      -0.874  -4.546  -7.789  1.00  0.00    -0.265 OA
HETATM    4  O2  UNL     1       0.924  -5.791  -8.419  1.00  0.00    -0.289 OA
HETATM    5  C10 UNL     1       1.600  -7.017  -8.220  1.00  0.00     0.276 C 
HETATM    6  O5  UNL     1       0.721  -8.076  -8.086  1.00  0.00    -0.354 OA
HETATM    7  C19 UNL     1      -0.399  -7.942  -8.904  1.00  0.00     0.144 C 
ENDROOT
BRANCH   5   8
HETATM    8  C11 UNL     1       2.505  -6.965  -7.013  1.00  0.00     0.076 C 
HETATM    9  C12 UNL     1       2.123  -5.958  -5.992  1.00  0.00     0.013 C 
HETATM   10  C13 UNL     1       2.847  -4.661  -6.018  1.00  0.00     0.015 C 
HETATM   11  C14 UNL     1       4.335  -4.864  -6.252  1.00  0.00     0.088 C 
HETATM   12  C15 UNL     1       4.429  -5.462  -7.664  1.00  0.00     0.053 C 
HETATM   13  C18 UNL     1       4.853  -6.005  -5.453  1.00  0.00     0.264 C 
HETATM   14  C16 UNL     1       3.962  -6.865  -7.388  1.00  0.00     0.076 C 
HETATM   15  C17 UNL     1       4.356  -7.857  -8.433  1.00  0.00     0.047 C 
HETATM   16  O3  UNL     1       4.700  -7.167  -6.199  1.00  0.00    -0.310 OA
HETATM   17  O4  UNL     1       5.355  -5.991  -4.302  1.00  0.00    -0.265 OA
ENDBRANCH   5   8
BRANCH   7  18
HETATM   18  C20 UNL     1      -1.023  -9.246  -9.148  1.00  0.00     0.040 C 
HETATM   19  C21 UNL     1       0.135 -10.300  -9.228  1.00  0.00     0.015 C 
BRANCH  18  20
HETATM   20  C22 UNL     1      -1.972  -9.838  -8.201  1.00  0.00     0.128 C 
HETATM   21  C23 UNL     1      -2.835  -9.008  -7.349  1.00  0.00     0.033 C 
HETATM   22  C24 UNL     1      -4.055  -9.875  -6.997  1.00  0.00     0.009 C 
HETATM   23  C25 UNL     1      -3.792 -11.321  -7.176  1.00  0.00     0.010 C 
HETATM   24  C26 UNL     1      -4.545 -12.077  -6.070  1.00  0.00     0.012 C 
HETATM   25  C27 UNL     1      -2.385 -11.782  -7.127  1.00  0.00     0.121 C 
HETATM   26  C28 UNL     1      -2.071 -12.597  -5.881  1.00  0.00     0.040 C 
HETATM   27  O6  UNL     1      -1.415 -10.825  -7.370  1.00  0.00    -0.380 OA
ENDBRANCH  18  20
ENDBRANCH   7  18
BRANCH   1  28
HETATM   28  C7  UNL     1      -2.239  -6.419  -9.616  1.00  0.00     0.044 C 
BRANCH  28  29
HETATM   29  C6  UNL     1      -1.802  -6.754 -10.950  1.00  0.00    -0.030 C 
HETATM   30  C5  UNL     1      -1.297  -5.923 -11.822  1.00  0.00    -0.031 C 
BRANCH  30  31
HETATM   31  C4  UNL     1      -1.083  -4.482 -11.595  1.00  0.00     0.027 C 
BRANCH  31  32
HETATM   32  C3  UNL     1      -1.386  -3.690 -12.864  1.00  0.00     0.003 C 
BRANCH  32  33
HETATM   33  C2  UNL     1      -0.383  -2.563 -13.040  1.00  0.00    -0.004 C 
HETATM   34  C1  UNL     1       0.870  -3.010 -13.734  1.00  0.00     0.005 C 
ENDBRANCH  32  33
ENDBRANCH  31  32
ENDBRANCH  30  31
ENDBRANCH  28  29
ENDBRANCH   1  28
TORSDOF 8
ENDMDL
MODEL 3
REMARK VINA RESULT: -9.267296166      1.392      2.209
REMARK  8 active torsions:
REMARK  status: ('A' for Active; 'I' for Inactive)
REMARK    1  A    between atoms: C2_2  and  C3_3 
REMARK    2  A    between atoms: C3_3  and  C4_4 
REMARK    3  A    between atoms: C4_4  and  C5_5 
REMARK    4  A    between atoms: C6_6  and  C7_7 
REMARK    5  A    between atoms: C7_7  and  C8_8 
REMARK    6  A    between atoms: C10_12  and  C11_13 
REMARK    7  A    between atoms: C19_24  and  C20_25 
REMARK    8  A    between atoms: C20_25  and  C22_27 
ROOT
HETATM    1  C8  UNL     1      -1.110  -6.530  -8.408  1.00  0.00     0.118 C 
HETATM    2  C9  UNL     1      -0.189  -5.385  -8.083  1.00  0.00     0.268 C 
HETATM    3  O1  UNL     1      -0.610  -4.292  -7.642  1.00  0.00    -0.265 OA
HETATM    4  O2  UNL     1       1.145  -5.589  -8.289  1.00  0.00    -0.289 OA
HETATM    5  C10 UNL     1       1.772  -6.845  -8.116  1.00  0.00     0.276 C 
HETATM    6  O5  UNL     1       0.852  -7.872  -8.016  1.00  0.00    -0.354 OA
HETATM    7  C19 UNL     1      -0.254  -7.675  -8.839  1.00  0.00     0.144 C 
ENDROOT
BRANCH   5   8
HETATM    8  C11 UNL     1       2.667  -6.857  -6.900  1.00  0.00     0.076 C 
HETATM    9  C12 UNL     1       2.400  -5.777  -5.919  1.00  0.00     0.013 C 
HETATM   10  C13 UNL     1       3.273  -4.577  -5.981  1.00  0.00     0.015 C 
HETATM   11  C14 UNL     1       4.728  -4.963  -6.190  1.00  0.00     0.088 C 
HETATM   12  C15 UNL     1       4.761  -5.617  -7.579  1.00  0.00     0.053 C 
HETATM   13  C18 UNL     1       5.101  -6.128  -5.347  1.00  0.00     0.264 C 
HETATM   14  C16 UNL     1       4.129  -6.944  -7.261  1.00  0.00     0.076 C 
HETATM   15  C17 UNL     1       4.410  -8.012  -8.267  1.00  0.00     0.047 C 
HETATM   16  O3  UNL     1       4.816  -7.289  -6.054  1.00  0.00    -0.310 OA
HETATM   17  O4  UNL     1       5.592  -6.132  -4.191  1.00  0.00    -0.265 OA
ENDBRANCH   5   8
BRANCH   7  18
HETATM   18  C20 UNL     1      -0.926  -8.948  -9.121  1.00  0.00     0.040 C 
HETATM   19  C21 UNL     1       0.194 -10.040  -9.237  1.00  0.00     0.015 C 
BRANCH  18  20
HETATM   20  C22 UNL     1      -1.893  -9.534  -8.189  1.00  0.00     0.128 C 
HETATM   21  C23 UNL     1      -2.744  -8.700  -7.329  1.00  0.00     0.033 C 
HETATM   22  C24 UNL     1      -3.985  -9.546  -6.999  1.00  0.00     0.009 C 
HETATM   23  C25 UNL     1      -3.750 -10.994  -7.200  1.00  0.00     0.010 C 
HETATM   24  C26 UNL     1      -4.526 -11.752  -6.110  1.00  0.00     0.012 C 
HETATM   25  C27 UNL     1      -2.353 -11.485  -7.149  1.00  0.00     0.121 C 
HETATM   26  C28 UNL     1      -2.066 -12.326  -5.914  1.00  0.00     0.040 C 
HETATM   27  O6  UNL     1      -1.363 -10.546  -7.371  1.00  0.00    -0.380 OA
ENDBRANCH  18  20
ENDBRANCH   7  18
BRANCH   1  28
HETATM   28  C7  UNL     1      -2.029  -6.066  -9.527  1.00  0.00     0.044 C 
BRANCH  28  29
HETATM   29  C6  UNL     1      -1.381  -5.749 -10.776  1.00  0.00    -0.030 C 
HETATM   30  C5  UNL     1      -1.657  -6.278 -11.939  1.00  0.00    -0.031 C 
BRANCH  30  31
HETATM   31  C4  UNL     1      -2.688  -7.303 -12.180  1.00  0.00     0.027 C 
BRANCH  31  32
HETATM   32  C3  UNL     1      -2.100  -8.483 -12.949  1.00  0.00     0.003 C 
BRANCH  32  33
HETATM   33  C2  UNL     1      -3.149  -9.102 -13.857  1.00  0.00    -0.004 C 
HETATM   34  C1  UNL     1      -4.185  -8.113 -14.299  1.00  0.00     0.005 C 
ENDBRANCH  32  33
ENDBRANCH  31  32
ENDBRANCH  30  31
ENDBRANCH  28  29
ENDBRANCH   1  28
TORSDOF 8
ENDMDL
MODEL 4
REMARK VINA RESULT: -9.233286332      1.308      2.037
REMARK  8 active torsions:
REMARK  status: ('A' for Active; 'I' for Inactive)
REMARK    1  A    between atoms: C2_2  and  C3_3 
REMARK    2  A    between atoms: C3_3  and  C4_4 
REMARK    3  A    between atoms: C4_4  and  C5_5 
REMARK    4  A    between atoms: C6_6  and  C7_7 
REMARK    5  A    between atoms: C7_7  and  C8_8 
REMARK    6  A    between atoms: C10_12  and  C11_13 
REMARK    7  A    between atoms: C19_24  and  C20_25 
REMARK    8  A    between atoms: C20_25  and  C22_27 
ROOT
HETATM    1  C8  UNL     1      -1.242  -6.752  -7.724  1.00  0.00     0.118 C 
HETATM    2  C9  UNL     1      -0.199  -5.693  -7.960  1.00  0.00     0.268 C 
HETATM    3  O1  UNL     1      -0.449  -4.471  -7.851  1.00  0.00    -0.265 OA
HETATM    4  O2  UNL     1       1.050  -6.122  -8.302  1.00  0.00    -0.289 OA
HETATM    5  C10 UNL     1       1.613  -7.328  -7.821  1.00  0.00     0.276 C 
HETATM    6  O5  UNL     1       0.663  -8.142  -7.231  1.00  0.00    -0.354 OA
HETATM    7  C19 UNL     1      -0.568  -8.075  -7.878  1.00  0.00     0.144 C 
ENDROOT
BRANCH   5   8
HETATM    8  C11 UNL     1       2.729  -7.068  -6.838  1.00  0.00     0.076 C 
HETATM    9  C12 UNL     1       2.582  -5.823  -6.045  1.00  0.00     0.013 C 
HETATM   10  C13 UNL     1       3.336  -4.632  -6.511  1.00  0.00     0.015 C 
HETATM   11  C14 UNL     1       4.746  -5.004  -6.941  1.00  0.00     0.088 C 
HETATM   12  C15 UNL     1       4.552  -5.920  -8.158  1.00  0.00     0.053 C 
HETATM   13  C18 UNL     1       5.361  -5.965  -5.989  1.00  0.00     0.264 C 
HETATM   14  C16 UNL     1       4.093  -7.177  -7.471  1.00  0.00     0.076 C 
HETATM   15  C17 UNL     1       4.247  -8.415  -8.294  1.00  0.00     0.047 C 
HETATM   16  O3  UNL     1       5.028  -7.252  -6.390  1.00  0.00    -0.310 OA
HETATM   17  O4  UNL     1       6.069  -5.722  -4.980  1.00  0.00    -0.265 OA
ENDBRANCH   5   8
BRANCH   7  18
HETATM   18  C20 UNL     1      -1.366  -9.273  -7.599  1.00  0.00     0.040 C 
HETATM   19  C21 UNL     1      -2.661  -8.797  -6.854  1.00  0.00     0.015 C 
BRANCH  18  20
HETATM   20  C22 UNL     1      -1.875 -10.130  -8.674  1.00  0.00     0.128 C 
HETATM   21  C23 UNL     1      -2.741 -11.285  -8.401  1.00  0.00     0.033 C 
HETATM   22  C24 UNL     1      -3.547 -11.533  -9.687  1.00  0.00     0.009 C 
HETATM   23  C25 UNL     1      -2.914 -10.922 -10.877  1.00  0.00     0.010 C 
HETATM   24  C26 UNL     1      -3.156 -11.859 -12.072  1.00  0.00     0.012 C 
HETATM   25  C27 UNL     1      -1.457 -10.658 -10.831  1.00  0.00     0.121 C 
HETATM   26  C28 UNL     1      -0.659 -11.573 -11.748  1.00  0.00     0.040 C 
HETATM   27  O6  UNL     1      -0.887 -10.571  -9.573  1.00  0.00    -0.380 OA
ENDBRANCH  18  20
ENDBRANCH   7  18
BRANCH   1  28
HETATM   28  C7  UNL     1      -2.330  -6.553  -8.766  1.00  0.00     0.044 C 
BRANCH  28  29
HETATM   29  C6  UNL     1      -2.065  -7.126 -10.063  1.00  0.00    -0.030 C 
HETATM   30  C5  UNL     1      -1.631  -6.479 -11.113  1.00  0.00    -0.031 C 
BRANCH  30  31
HETATM   31  C4  UNL     1      -1.335  -5.036 -11.156  1.00  0.00     0.027 C 
BRANCH  31  32
HETATM   32  C3  UNL     1      -0.986  -4.603 -12.577  1.00  0.00     0.003 C 
BRANCH  32  33
HETATM   33  C2  UNL     1      -0.995  -3.089 -12.691  1.00  0.00    -0.004 C 
HETATM   34  C1  UNL     1       0.066  -2.573 -13.617  1.00  0.00     0.005 C 
ENDBRANCH  32  33
ENDBRANCH  31  32
ENDBRANCH  30  31
ENDBRANCH  28  29
ENDBRANCH   1  28
TORSDOF 8
ENDMDL
MODEL 5
REMARK VINA RESULT: -9.150446805      1.922      3.029
REMARK  8 active torsions:
REMARK  status: ('A' for Active; 'I' for Inactive)
REMARK    1  A    between atoms: C2_2  and  C3_3 
REMARK    2  A    between atoms: C3_3  and  C4_4 
REMARK    3  A    between atoms: C4_4  and  C5_5 
REMARK    4  A    between atoms: C6_6  and  C7_7 
REMARK    5  A    between atoms: C7_7  and  C8_8 
REMARK    6  A    between atoms: C10_12  and  C11_13 
REMARK    7  A    between atoms: C19_24  and  C20_25 
REMARK    8  A    between atoms: C20_25  and  C22_27 
ROOT
HETATM    1  C8  UNL     1      -1.337  -6.973  -8.398  1.00  0.00     0.118 C 
HETATM    2  C9  UNL     1      -0.396  -5.802  -8.312  1.00  0.00     0.268 C 
HETATM    3  O1  UNL     1      -0.797  -4.634  -8.107  1.00  0.00    -0.265 OA
HETATM    4  O2  UNL     1       0.934  -6.066  -8.470  1.00  0.00    -0.289 OA
HETATM    5  C10 UNL     1       1.540  -7.270  -8.041  1.00  0.00     0.276 C 
HETATM    6  O5  UNL     1       0.602  -8.240  -7.734  1.00  0.00    -0.354 OA
HETATM    7  C19 UNL     1      -0.502  -8.196  -8.583  1.00  0.00     0.144 C 
ENDROOT
BRANCH   5   8
HETATM    8  C11 UNL     1       2.436  -7.048  -6.847  1.00  0.00     0.076 C 
HETATM    9  C12 UNL     1       2.035  -5.922  -5.968  1.00  0.00     0.013 C 
HETATM   10  C13 UNL     1       2.742  -4.630  -6.160  1.00  0.00     0.015 C 
HETATM   11  C14 UNL     1       4.234  -4.841  -6.359  1.00  0.00     0.088 C 
HETATM   12  C15 UNL     1       4.344  -5.617  -7.680  1.00  0.00     0.053 C 
HETATM   13  C18 UNL     1       4.762  -5.861  -5.416  1.00  0.00     0.264 C 
HETATM   14  C16 UNL     1       3.894  -6.978  -7.226  1.00  0.00     0.076 C 
HETATM   15  C17 UNL     1       4.307  -8.092  -8.130  1.00  0.00     0.047 C 
HETATM   16  O3  UNL     1       4.629  -7.112  -6.004  1.00  0.00    -0.310 OA
HETATM   17  O4  UNL     1       5.257  -5.689  -4.274  1.00  0.00    -0.265 OA
ENDBRANCH   5   8
BRANCH   7  18
HETATM   18  C20 UNL     1      -1.195  -9.488  -8.599  1.00  0.00     0.040 C 
HETATM   19  C21 UNL     1      -2.637  -9.241  -8.034  1.00  0.00     0.015 C 
BRANCH  18  20
HETATM   20  C22 UNL     1      -1.427 -10.226  -9.844  1.00  0.00     0.128 C 
HETATM   21  C23 UNL     1      -0.605 -10.003 -11.041  1.00  0.00     0.033 C 
HETATM   22  C24 UNL     1      -0.690 -11.295 -11.870  1.00  0.00     0.009 C 
HETATM   23  C25 UNL     1      -1.867 -12.119 -11.511  1.00  0.00     0.010 C 
HETATM   24  C26 UNL     1      -2.388 -12.780 -12.798  1.00  0.00     0.012 C 
HETATM   25  C27 UNL     1      -3.024 -11.442 -10.881  1.00  0.00     0.121 C 
HETATM   26  C28 UNL     1      -4.237 -11.366 -11.796  1.00  0.00     0.040 C 
HETATM   27  O6  UNL     1      -2.767 -10.227 -10.269  1.00  0.00    -0.380 OA
ENDBRANCH  18  20
ENDBRANCH   7  18
BRANCH   1  28
HETATM   28  C7  UNL     1      -2.249  -6.732  -9.590  1.00  0.00     0.044 C 
BRANCH  28  29
HETATM   29  C6  UNL     1      -1.589  -6.351 -10.815  1.00  0.00    -0.030 C 
HETATM   30  C5  UNL     1      -1.955  -6.693 -12.022  1.00  0.00    -0.031 C 
BRANCH  30  31
HETATM   31  C4  UNL     1      -3.117  -7.538 -12.348  1.00  0.00     0.027 C 
BRANCH  31  32
HETATM   32  C3  UNL     1      -2.774  -8.509 -13.474  1.00  0.00     0.003 C 
BRANCH  32  33
HETATM   33  C2  UNL     1      -3.918  -8.594 -14.470  1.00  0.00    -0.004 C 
HETATM   34  C1  UNL     1      -5.233  -8.189 -13.874  1.00  0.00     0.005 C 
ENDBRANCH  32  33
ENDBRANCH  31  32
ENDBRANCH  30  31
ENDBRANCH  28  29
ENDBRANCH   1  28
TORSDOF 8
ENDMDL
