MODEL 1
REMARK VINA RESULT: -8.219724844      0.000      0.000
REMARK  10 active torsions:
REMARK  status: ('A' for Active; 'I' for Inactive)
REMARK    1  A    between atoms: C2_2  and  O1_4 
REMARK    2  A    between atoms: O1_4  and  C4_5 
REMARK    3  A    between atoms: C4_5  and  C5_7 
REMARK    4  A    between atoms: C5_7  and  C6_8 
REMARK    5  A    between atoms: C12_14  and  C13_15 
REMARK    6  A    between atoms: C17_19  and  O3_20 
REMARK    7  A    between atoms: O3_20  and  C18_21 
REMARK    8  A    between atoms: C18_21  and  C19_23 
REMARK    9  A    between atoms: C25_29  and  C27_31 
REMARK   10  A    between atoms: C27_31  and  O6_33 
ROOT
HETATM    1  C6  UNL     1      -1.114  -7.997  -7.753  1.00  0.00     0.013 C 
HETATM    2  C7  UNL     1      -0.900  -6.713  -6.886  1.00  0.00     0.007 C 
HETATM    3  C8  UNL     1       0.421  -6.847  -6.248  1.00  0.00     0.010 C 
HETATM    4  C9  UNL     1       1.450  -6.603  -7.329  1.00  0.00    -0.034 C 
HETATM    5  C10 UNL     1       1.425  -5.140  -7.719  1.00  0.00     0.016 C 
HETATM    6  C11 UNL     1       2.770  -7.184  -6.975  1.00  0.00     0.007 C 
HETATM    7  C12 UNL     1       4.024  -6.459  -7.293  1.00  0.00     0.021 C 
HETATM    8  C16 UNL     1       5.164  -7.461  -7.304  1.00  0.00     0.042 C 
HETATM    9  C17 UNL     1       4.807  -8.780  -7.838  1.00  0.00     0.136 C 
HETATM   10  C21 UNL     1       3.579  -8.722  -8.782  1.00  0.00     0.016 C 
HETATM   11  C22 UNL     1       3.902  -8.007 -10.011  1.00  0.00     0.013 C 
HETATM   12  C23 UNL     1       2.442  -8.317  -7.931  1.00  0.00     0.003 C 
HETATM   13  C24 UNL     1       1.301  -7.557  -8.477  1.00  0.00     0.017 C 
HETATM   14  C25 UNL     1      -0.015  -8.206  -8.692  1.00  0.00     0.053 C 
HETATM   15  C26 UNL     1      -0.456  -7.920 -10.142  1.00  0.00     0.027 C 
ENDROOT
BRANCH   1  16
HETATM   16  C5  UNL     1      -2.511  -7.872  -8.182  1.00  0.00     0.117 C 
BRANCH  16  17
HETATM   17  C4  UNL     1      -3.601  -8.484  -7.425  1.00  0.00     0.264 C 
HETATM   18  O2  UNL     1      -4.277  -7.931  -6.551  1.00  0.00    -0.265 OA
BRANCH  17  19
HETATM   19  O1  UNL     1      -3.961  -9.830  -7.668  1.00  0.00    -0.284 OA
BRANCH  19  20
HETATM   20  C2  UNL     1      -3.902 -10.831  -6.721  1.00  0.00     0.043 C 
HETATM   21  C1  UNL     1      -4.963 -11.613  -6.661  1.00  0.00     0.046 C 
HETATM   22  C3  UNL     1      -2.755 -11.052  -5.824  1.00  0.00     0.076 C 
ENDBRANCH  19  20
ENDBRANCH  17  19
ENDBRANCH  16  17
ENDBRANCH   1  16
BRANCH  14  23
HETATM   23  C27 UNL     1       0.295  -9.694  -8.728  1.00  0.00     0.267 C 
HETATM   24  O5  UNL     1      -0.127 -10.490  -7.865  1.00  0.00    -0.264 OA
BRANCH  23  25
HETATM   25  O6  UNL     1       1.080 -10.234  -9.760  1.00  0.00    -0.326 OA
HETATM   26  C28 UNL     1       1.361 -11.609  -9.867  1.00  0.00     0.213 C 
ENDBRANCH  23  25
ENDBRANCH  14  23
BRANCH   7  27
HETATM   27  C13 UNL     1       4.349  -5.508  -6.201  1.00  0.00    -0.088 C 
HETATM   28  C14 UNL     1       4.969  -5.918  -5.109  1.00  0.00     0.014 C 
HETATM   29  C15 UNL     1       4.003  -4.060  -6.247  1.00  0.00     0.043 C 
ENDBRANCH   7  27
BRANCH   9  30
HETATM   30  O3  UNL     1       5.883  -9.293  -8.598  1.00  0.00    -0.316 OA
BRANCH  30  31
HETATM   31  C18 UNL     1       7.002  -9.856  -8.004  1.00  0.00     0.258 C 
HETATM   32  O4  UNL     1       7.043 -11.096  -7.879  1.00  0.00    -0.265 OA
BRANCH  31  33
HETATM   33  C19 UNL     1       8.088  -8.975  -7.551  1.00  0.00     0.106 C 
HETATM   34  C20 UNL     1       8.847  -9.708  -6.447  1.00  0.00     0.015 C 
ENDBRANCH  31  33
ENDBRANCH  30  31
ENDBRANCH   9  30
TORSDOF 10
ENDMDL
MODEL 2
REMARK VINA RESULT: -7.913618608      1.445      1.961
REMARK  10 active torsions:
REMARK  status: ('A' for Active; 'I' for Inactive)
REMARK    1  A    between atoms: C2_2  and  O1_4 
REMARK    2  A    between atoms: O1_4  and  C4_5 
REMARK    3  A    between atoms: C4_5  and  C5_7 
REMARK    4  A    between atoms: C5_7  and  C6_8 
REMARK    5  A    between atoms: C12_14  and  C13_15 
REMARK    6  A    between atoms: C17_19  and  O3_20 
REMARK    7  A    between atoms: O3_20  and  C18_21 
REMARK    8  A    between atoms: C18_21  and  C19_23 
REMARK    9  A    between atoms: C25_29  and  C27_31 
REMARK   10  A    between atoms: C27_31  and  O6_33 
ROOT
HETATM    1  C6  UNL     1      -1.211  -9.858  -9.035  1.00  0.00     0.013 C 
HETATM    2  C7  UNL     1      -1.643  -8.557  -8.282  1.00  0.00     0.007 C 
HETATM    3  C8  UNL     1      -0.538  -8.206  -7.373  1.00  0.00     0.010 C 
HETATM    4  C9  UNL     1       0.571  -7.648  -8.236  1.00  0.00    -0.034 C 
HETATM    5  C10 UNL     1       0.151  -6.297  -8.774  1.00  0.00     0.016 C 
HETATM    6  C11 UNL     1       1.889  -7.725  -7.556  1.00  0.00     0.007 C 
HETATM    7  C12 UNL     1       2.868  -6.617  -7.681  1.00  0.00     0.021 C 
HETATM    8  C16 UNL     1       4.246  -7.160  -7.349  1.00  0.00     0.042 C 
HETATM    9  C17 UNL     1       4.482  -8.535  -7.804  1.00  0.00     0.136 C 
HETATM   10  C21 UNL     1       3.559  -8.933  -8.983  1.00  0.00     0.016 C 
HETATM   11  C22 UNL     1       3.900  -8.184 -10.187  1.00  0.00     0.013 C 
HETATM   12  C23 UNL     1       2.188  -8.926  -8.435  1.00  0.00     0.003 C 
HETATM   13  C24 UNL     1       1.018  -8.625  -9.283  1.00  0.00     0.017 C 
HETATM   14  C25 UNL     1       0.080  -9.697  -9.697  1.00  0.00     0.053 C 
HETATM   15  C26 UNL     1      -0.083  -9.621 -11.229  1.00  0.00     0.027 C 
ENDROOT
BRANCH   1  16
HETATM   16  C5  UNL     1      -2.431 -10.238  -9.756  1.00  0.00     0.117 C 
BRANCH  16  17
HETATM   17  C4  UNL     1      -3.346 -11.249  -9.230  1.00  0.00     0.264 C 
HETATM   18  O2  UNL     1      -3.332 -12.454  -9.504  1.00  0.00    -0.265 OA
BRANCH  17  19
HETATM   19  O1  UNL     1      -4.364 -10.876  -8.321  1.00  0.00    -0.284 OA
BRANCH  19  20
HETATM   20  C2  UNL     1      -4.388 -11.240  -6.991  1.00  0.00     0.043 C 
HETATM   21  C1  UNL     1      -5.564 -11.623  -6.533  1.00  0.00     0.046 C 
HETATM   22  C3  UNL     1      -3.209 -11.220  -6.109  1.00  0.00     0.076 C 
ENDBRANCH  19  20
ENDBRANCH  17  19
ENDBRANCH  16  17
ENDBRANCH   1  16
BRANCH  14  23
HETATM   23  C27 UNL     1       0.867 -10.984  -9.511  1.00  0.00     0.267 C 
HETATM   24  O5  UNL     1       1.851 -11.280 -10.218  1.00  0.00    -0.264 OA
BRANCH  23  25
HETATM   25  O6  UNL     1       0.505 -11.903  -8.511  1.00  0.00    -0.326 OA
HETATM   26  C28 UNL     1       0.148 -13.235  -8.790  1.00  0.00     0.213 C 
ENDBRANCH  23  25
ENDBRANCH  14  23
BRANCH   7  27
HETATM   27  C13 UNL     1       2.596  -5.583  -6.652  1.00  0.00    -0.088 C 
HETATM   28  C14 UNL     1       2.005  -5.901  -5.514  1.00  0.00     0.014 C 
HETATM   29  C15 UNL     1       2.950  -4.146  -6.821  1.00  0.00     0.043 C 
ENDBRANCH   7  27
BRANCH   9  30
HETATM   30  O3  UNL     1       5.812  -8.661  -8.266  1.00  0.00    -0.316 OA
BRANCH  30  31
HETATM   31  C18 UNL     1       6.726  -9.507  -7.656  1.00  0.00     0.258 C 
HETATM   32  O4  UNL     1       6.587 -10.736  -7.808  1.00  0.00    -0.265 OA
BRANCH  31  33
HETATM   33  C19 UNL     1       7.818  -8.922  -6.863  1.00  0.00     0.106 C 
HETATM   34  C20 UNL     1       7.252  -8.569  -5.489  1.00  0.00     0.015 C 
ENDBRANCH  31  33
ENDBRANCH  30  31
ENDBRANCH   9  30
TORSDOF 10
ENDMDL
MODEL 3
REMARK VINA RESULT: -7.876785375      1.878      2.757
REMARK  10 active torsions:
REMARK  status: ('A' for Active; 'I' for Inactive)
REMARK    1  A    between atoms: C2_2  and  O1_4 
REMARK    2  A    between atoms: O1_4  and  C4_5 
REMARK    3  A    between atoms: C4_5  and  C5_7 
REMARK    4  A    between atoms: C5_7  and  C6_8 
REMARK    5  A    between atoms: C12_14  and  C13_15 
REMARK    6  A    between atoms: C17_19  and  O3_20 
REMARK    7  A    between atoms: O3_20  and  C18_21 
REMARK    8  A    between atoms: C18_21  and  C19_23 
REMARK    9  A    between atoms: C25_29  and  C27_31 
REMARK   10  A    between atoms: C27_31  and  O6_33 
ROOT
HETATM    1  C6  UNL     1      -2.970  -9.536  -7.381  1.00  0.00     0.013 C 
HETATM    2  C7  UNL     1      -3.017  -8.103  -6.756  1.00  0.00     0.007 C 
HETATM    3  C8  UNL     1      -1.652  -7.798  -6.292  1.00  0.00     0.010 C 
HETATM    4  C9  UNL     1      -0.829  -7.514  -7.528  1.00  0.00    -0.034 C 
HETATM    5  C10 UNL     1      -1.270  -6.196  -8.128  1.00  0.00     0.016 C 
HETATM    6  C11 UNL     1       0.624  -7.687  -7.273  1.00  0.00     0.007 C 
HETATM    7  C12 UNL     1       1.611  -6.752  -7.866  1.00  0.00     0.021 C 
HETATM    8  C16 UNL     1       2.966  -7.435  -7.880  1.00  0.00     0.042 C 
HETATM    9  C17 UNL     1       2.916  -8.876  -8.154  1.00  0.00     0.136 C 
HETATM   10  C21 UNL     1       1.632  -9.287  -8.919  1.00  0.00     0.016 C 
HETATM   11  C22 UNL     1       1.641  -8.751 -10.275  1.00  0.00     0.013 C 
HETATM   12  C23 UNL     1       0.514  -9.019  -7.993  1.00  0.00     0.003 C 
HETATM   13  C24 UNL     1      -0.832  -8.668  -8.487  1.00  0.00     0.017 C 
HETATM   14  C25 UNL     1      -1.948  -9.641  -8.418  1.00  0.00     0.053 C 
HETATM   15  C26 UNL     1      -2.582  -9.738  -9.821  1.00  0.00     0.027 C 
ENDROOT
BRANCH   1  16
HETATM   16  C5  UNL     1      -4.386  -9.830  -7.629  1.00  0.00     0.117 C 
BRANCH  16  17
HETATM   17  C4  UNL     1      -4.975 -11.116  -7.262  1.00  0.00     0.264 C 
HETATM   18  O2  UNL     1      -4.846 -11.690  -6.175  1.00  0.00    -0.265 OA
BRANCH  17  19
HETATM   19  O1  UNL     1      -5.774 -11.818  -8.193  1.00  0.00    -0.284 OA
BRANCH  19  20
HETATM   20  C2  UNL     1      -5.308 -12.333  -9.384  1.00  0.00     0.043 C 
HETATM   21  C1  UNL     1      -6.030 -12.038 -10.448  1.00  0.00     0.046 C 
HETATM   22  C3  UNL     1      -4.092 -13.155  -9.507  1.00  0.00     0.076 C 
ENDBRANCH  19  20
ENDBRANCH  17  19
ENDBRANCH  16  17
ENDBRANCH   1  16
BRANCH  14  23
HETATM   23  C27 UNL     1      -1.267 -10.992  -8.270  1.00  0.00     0.267 C 
HETATM   24  O5  UNL     1      -1.181 -11.587  -7.176  1.00  0.00    -0.264 OA
BRANCH  23  25
HETATM   25  O6  UNL     1      -0.702 -11.633  -9.386  1.00  0.00    -0.326 OA
HETATM   26  C28 UNL     1      -0.146 -12.925  -9.325  1.00  0.00     0.213 C 
ENDBRANCH  23  25
ENDBRANCH  14  23
BRANCH   7  27
HETATM   27  C13 UNL     1       1.778  -5.568  -6.986  1.00  0.00    -0.088 C 
HETATM   28  C14 UNL     1       2.122  -5.712  -5.719  1.00  0.00     0.014 C 
HETATM   29  C15 UNL     1       1.568  -4.168  -7.449  1.00  0.00     0.043 C 
ENDBRANCH   7  27
BRANCH   9  30
HETATM   30  O3  UNL     1       4.012  -9.244  -8.968  1.00  0.00    -0.316 OA
BRANCH  30  31
HETATM   31  C18 UNL     1       5.323  -9.135  -8.529  1.00  0.00     0.258 C 
HETATM   32  O4  UNL     1       5.730  -9.949  -7.677  1.00  0.00    -0.265 OA
BRANCH  31  33
HETATM   33  C19 UNL     1       6.175  -8.076  -9.087  1.00  0.00     0.106 C 
HETATM   34  C20 UNL     1       5.688  -7.791 -10.507  1.00  0.00     0.015 C 
ENDBRANCH  31  33
ENDBRANCH  30  31
ENDBRANCH   9  30
TORSDOF 10
ENDMDL
MODEL 4
REMARK VINA RESULT: -7.714962657      1.629      2.151
REMARK  10 active torsions:
REMARK  status: ('A' for Active; 'I' for Inactive)
REMARK    1  A    between atoms: C2_2  and  O1_4 
REMARK    2  A    between atoms: O1_4  and  C4_5 
REMARK    3  A    between atoms: C4_5  and  C5_7 
REMARK    4  A    between atoms: C5_7  and  C6_8 
REMARK    5  A    between atoms: C12_14  and  C13_15 
REMARK    6  A    between atoms: C17_19  and  O3_20 
REMARK    7  A    between atoms: O3_20  and  C18_21 
REMARK    8  A    between atoms: C18_21  and  C19_23 
REMARK    9  A    between atoms: C25_29  and  C27_31 
REMARK   10  A    between atoms: C27_31  and  O6_33 
ROOT
HETATM    1  C6  UNL     1      -2.469  -8.955  -7.389  1.00  0.00     0.013 C 
HETATM    2  C7  UNL     1      -2.411  -7.541  -6.722  1.00  0.00     0.007 C 
HETATM    3  C8  UNL     1      -1.036  -7.363  -6.224  1.00  0.00     0.010 C 
HETATM    4  C9  UNL     1      -0.167  -7.112  -7.436  1.00  0.00    -0.034 C 
HETATM    5  C10 UNL     1      -0.487  -5.745  -8.003  1.00  0.00     0.016 C 
HETATM    6  C11 UNL     1       1.261  -7.412  -7.160  1.00  0.00     0.007 C 
HETATM    7  C12 UNL     1       2.334  -6.544  -7.706  1.00  0.00     0.021 C 
HETATM    8  C16 UNL     1       3.628  -7.336  -7.717  1.00  0.00     0.042 C 
HETATM    9  C17 UNL     1       3.466  -8.760  -8.035  1.00  0.00     0.136 C 
HETATM   10  C21 UNL     1       2.169  -9.041  -8.836  1.00  0.00     0.016 C 
HETATM   11  C22 UNL     1       2.249  -8.468 -10.174  1.00  0.00     0.013 C 
HETATM   12  C23 UNL     1       1.058  -8.709  -7.922  1.00  0.00     0.003 C 
HETATM   13  C24 UNL     1      -0.244  -8.234  -8.429  1.00  0.00     0.017 C 
HETATM   14  C25 UNL     1      -1.437  -9.114  -8.411  1.00  0.00     0.053 C 
HETATM   15  C26 UNL     1      -2.049  -9.117  -9.827  1.00  0.00     0.027 C 
ENDROOT
BRANCH   1  16
HETATM   16  C5  UNL     1      -3.899  -9.124  -7.671  1.00  0.00     0.117 C 
BRANCH  16  17
HETATM   17  C4  UNL     1      -4.599 -10.366  -7.351  1.00  0.00     0.264 C 
HETATM   18  O2  UNL     1      -4.278 -11.175  -6.474  1.00  0.00    -0.265 OA
BRANCH  17  19
HETATM   19  O1  UNL     1      -5.756 -10.732  -8.078  1.00  0.00    -0.284 OA
BRANCH  19  20
HETATM   20  C2  UNL     1      -5.905 -11.927  -8.749  1.00  0.00     0.043 C 
HETATM   21  C1  UNL     1      -5.100 -12.099  -9.781  1.00  0.00     0.046 C 
HETATM   22  C3  UNL     1      -6.877 -12.968  -8.374  1.00  0.00     0.076 C 
ENDBRANCH  19  20
ENDBRANCH  17  19
ENDBRANCH  16  17
ENDBRANCH   1  16
BRANCH  14  23
HETATM   23  C27 UNL     1      -0.872 -10.520  -8.291  1.00  0.00     0.267 C 
HETATM   24  O5  UNL     1      -1.001 -11.212  -7.261  1.00  0.00    -0.264 OA
BRANCH  23  25
HETATM   25  O6  UNL     1      -0.174 -11.102  -9.363  1.00  0.00    -0.326 OA
HETATM   26  C28 UNL     1       0.404 -12.383  -9.293  1.00  0.00     0.213 C 
ENDBRANCH  23  25
ENDBRANCH  14  23
BRANCH   7  27
HETATM   27  C13 UNL     1       2.579  -5.404  -6.788  1.00  0.00    -0.088 C 
HETATM   28  C14 UNL     1       2.638  -5.590  -5.482  1.00  0.00     0.014 C 
HETATM   29  C15 UNL     1       2.763  -4.002  -7.255  1.00  0.00     0.043 C 
ENDBRANCH   7  27
BRANCH   9  30
HETATM   30  O3  UNL     1       4.545  -9.192  -8.840  1.00  0.00    -0.316 OA
BRANCH  30  31
HETATM   31  C18 UNL     1       5.847  -8.773  -8.613  1.00  0.00     0.258 C 
HETATM   32  O4  UNL     1       6.327  -7.904  -9.366  1.00  0.00    -0.265 OA
BRANCH  31  33
HETATM   33  C19 UNL     1       6.601  -9.364  -7.498  1.00  0.00     0.106 C 
HETATM   34  C20 UNL     1       6.920  -8.243  -6.512  1.00  0.00     0.015 C 
ENDBRANCH  31  33
ENDBRANCH  30  31
ENDBRANCH   9  30
TORSDOF 10
ENDMDL
MODEL 5
REMARK VINA RESULT: -7.679863510      1.078      1.234
REMARK  10 active torsions:
REMARK  status: ('A' for Active; 'I' for Inactive)
REMARK    1  A    between atoms: C2_2  and  O1_4 
REMARK    2  A    between atoms: O1_4  and  C4_5 
REMARK    3  A    between atoms: C4_5  and  C5_7 
REMARK    4  A    between atoms: C5_7  and  C6_8 
REMARK    5  A    between atoms: C12_14  and  C13_15 
REMARK    6  A    between atoms: C17_19  and  O3_20 
REMARK    7  A    between atoms: O3_20  and  C18_21 
REMARK    8  A    between atoms: C18_21  and  C19_23 
REMARK    9  A    between atoms: C25_29  and  C27_31 
REMARK   10  A    between atoms: C27_31  and  O6_33 
ROOT
HETATM    1  C6  UNL     1      -1.246  -8.429  -7.901  1.00  0.00     0.013 C 
HETATM    2  C7  UNL     1      -1.181  -7.093  -7.090  1.00  0.00     0.007 C 
HETATM    3  C8  UNL     1       0.133  -7.063  -6.426  1.00  0.00     0.010 C 
HETATM    4  C9  UNL     1       1.154  -6.763  -7.501  1.00  0.00    -0.034 C 
HETATM    5  C10 UNL     1       0.989  -5.329  -7.958  1.00  0.00     0.016 C 
HETATM    6  C11 UNL     1       2.518  -7.191  -7.099  1.00  0.00     0.007 C 
HETATM    7  C12 UNL     1       3.699  -6.356  -7.430  1.00  0.00     0.021 C 
HETATM    8  C16 UNL     1       4.935  -7.236  -7.377  1.00  0.00     0.042 C 
HETATM    9  C17 UNL     1       4.724  -8.607  -7.855  1.00  0.00     0.136 C 
HETATM   10  C21 UNL     1       3.516  -8.716  -8.820  1.00  0.00     0.016 C 
HETATM   11  C22 UNL     1       3.790  -8.027 -10.076  1.00  0.00     0.013 C 
HETATM   12  C23 UNL     1       2.327  -8.392  -8.008  1.00  0.00     0.003 C 
HETATM   13  C24 UNL     1       1.126  -7.777  -8.606  1.00  0.00     0.017 C 
HETATM   14  C25 UNL     1      -0.113  -8.566  -8.811  1.00  0.00     0.053 C 
HETATM   15  C26 UNL     1      -0.551  -8.391 -10.280  1.00  0.00     0.027 C 
ENDROOT
BRANCH   1  16
HETATM   16  C5  UNL     1      -2.640  -8.466  -8.357  1.00  0.00     0.117 C 
BRANCH  16  17
HETATM   17  C4  UNL     1      -3.560  -9.515  -7.921  1.00  0.00     0.264 C 
HETATM   18  O2  UNL     1      -4.041  -9.633  -6.790  1.00  0.00    -0.265 OA
BRANCH  17  19
HETATM   19  O1  UNL     1      -3.971 -10.516  -8.831  1.00  0.00    -0.284 OA
BRANCH  19  20
HETATM   20  C2  UNL     1      -3.145 -11.505  -9.323  1.00  0.00     0.043 C 
HETATM   21  C1  UNL     1      -2.929 -12.518  -8.506  1.00  0.00     0.046 C 
HETATM   22  C3  UNL     1      -2.530 -11.475 -10.660  1.00  0.00     0.076 C 
ENDBRANCH  19  20
ENDBRANCH  17  19
ENDBRANCH  16  17
ENDBRANCH   1  16
BRANCH  14  23
HETATM   23  C27 UNL     1       0.347 -10.014  -8.774  1.00  0.00     0.267 C 
HETATM   24  O5  UNL     1       0.010 -10.804  -7.869  1.00  0.00    -0.264 OA
BRANCH  23  25
HETATM   25  O6  UNL     1       1.181 -10.525  -9.783  1.00  0.00    -0.326 OA
HETATM   26  C28 UNL     1       1.459 -11.897  -9.923  1.00  0.00     0.213 C 
ENDBRANCH  23  25
ENDBRANCH  14  23
BRANCH   7  27
HETATM   27  C13 UNL     1       3.904  -5.329  -6.379  1.00  0.00    -0.088 C 
HETATM   28  C14 UNL     1       4.217  -5.679  -5.144  1.00  0.00     0.014 C 
HETATM   29  C15 UNL     1       3.766  -3.866  -6.624  1.00  0.00     0.043 C 
ENDBRANCH   7  27
BRANCH   9  30
HETATM   30  O3  UNL     1       5.862  -9.040  -8.574  1.00  0.00    -0.316 OA
BRANCH  30  31
HETATM   31  C18 UNL     1       6.885  -9.756  -7.971  1.00  0.00     0.258 C 
HETATM   32  O4  UNL     1       6.773 -10.996  -7.897  1.00  0.00    -0.265 OA
BRANCH  31  33
HETATM   33  C19 UNL     1       8.052  -9.030  -7.451  1.00  0.00     0.106 C 
HETATM   34  C20 UNL     1       7.897  -8.932  -5.936  1.00  0.00     0.015 C 
ENDBRANCH  31  33
ENDBRANCH  30  31
ENDBRANCH   9  30
TORSDOF 10
ENDMDL
