MODEL 1
REMARK VINA RESULT: -6.750724639      0.000      0.000
REMARK  11 active torsions:
REMARK  status: ('A' for Active; 'I' for Inactive)
REMARK    1  A    between atoms: C2_2  and  C3_3 
REMARK    2  A    between atoms: C3_3  and  C6_6 
REMARK    3  A    between atoms: C6_6  and  O1_7 
REMARK    4  A    between atoms: C6_6  and  C12_15 
REMARK    5  A    between atoms: O1_7  and  C7_8 
REMARK    6  A    between atoms: C7_8  and  O3_10 
REMARK    7  A    between atoms: O3_10  and  C8_11 
REMARK    8  A    between atoms: C13_17  and  O5_18 
REMARK    9  A    between atoms: C15_20  and  O6_21 
REMARK   10  A    between atoms: O6_21  and  C16_22 
REMARK   11  A    between atoms: C23_29  and  N1_30 
ROOT
HETATM    1  C12 UNL     1      -0.997  -8.251  -8.764  1.00  0.00     0.178 C 
HETATM    2  O4  UNL     1      -0.109  -9.272  -8.257  1.00  0.00    -0.349 OA
HETATM    3  C13 UNL     1       1.159  -8.585  -8.072  1.00  0.00     0.288 C 
HETATM    4  C15 UNL     1       0.895  -7.382  -7.213  1.00  0.00     0.179 C 
HETATM    5  C22 UNL     1      -0.462  -7.611  -6.487  1.00  0.00     0.065 C 
HETATM    6  C23 UNL     1      -1.564  -7.656  -7.568  1.00  0.00     0.117 C 
ENDROOT
BRANCH   1   7
HETATM    7  C6  UNL     1      -1.728  -8.656  -9.946  1.00  0.00     0.176 C 
BRANCH   7   8
HETATM    8  C3  UNL     1      -1.775  -8.037 -11.257  1.00  0.00    -0.001 C 
HETATM    9  C4  UNL     1      -0.674  -8.554 -12.217  1.00  0.00     0.021 C 
HETATM   10  C5  UNL     1      -1.373  -6.580 -11.098  1.00  0.00     0.021 C 
BRANCH   8  11
HETATM   11  C2  UNL     1      -3.066  -7.992 -11.972  1.00  0.00    -0.026 C 
HETATM   12  C1  UNL     1      -3.218  -7.957 -13.288  1.00  0.00     0.008 C 
ENDBRANCH   8  11
ENDBRANCH   7   8
BRANCH   7  13
HETATM   13  O1  UNL     1      -1.406 -10.047 -10.202  1.00  0.00    -0.289 OA
BRANCH  13  14
HETATM   14  C7  UNL     1      -2.369 -11.014 -10.131  1.00  0.00     0.407 C 
HETATM   15  O2  UNL     1      -2.075 -12.028  -9.393  1.00  0.00    -0.229 OA
BRANCH  14  16
HETATM   16  O3  UNL     1      -3.594 -11.112 -10.704  1.00  0.00    -0.288 OA
BRANCH  16  17
HETATM   17  C8  UNL     1      -3.907 -11.746 -11.904  1.00  0.00     0.062 C 
HETATM   18  C9  UNL     1      -5.116 -11.070 -12.509  1.00  0.00     0.046 C 
HETATM   19  C10 UNL     1      -2.772 -11.684 -12.885  1.00  0.00     0.046 C 
HETATM   20  C11 UNL     1      -4.296 -13.203 -11.727  1.00  0.00     0.046 C 
ENDBRANCH  16  17
ENDBRANCH  14  16
ENDBRANCH  13  14
ENDBRANCH   7  13
ENDBRANCH   1   7
BRANCH   6  21
HETATM   21  N1  UNL     1      -2.641  -8.140  -6.857  1.00  0.00    -0.386 N 
HETATM   22  C24 UNL     1      -2.335  -9.267  -6.031  1.00  0.00     0.123 C 
HETATM   23  C25 UNL     1      -3.207 -10.362  -6.606  1.00  0.00     0.025 C 
HETATM   24  C26 UNL     1      -4.304  -9.652  -7.380  1.00  0.00     0.046 C 
HETATM   25  C27 UNL     1      -3.941  -8.197  -7.192  1.00  0.00     0.058 C 
ENDBRANCH   6  21
BRANCH   3  26
HETATM   26  O5  UNL     1       1.591  -8.201  -9.303  1.00  0.00    -0.363 OA
HETATM   27  C14 UNL     1       2.676  -8.937  -9.723  1.00  0.00     0.204 C 
ENDBRANCH   3  26
BRANCH   4  28
HETATM   28  O6  UNL     1       1.918  -7.097  -6.373  1.00  0.00    -0.376 OA
BRANCH  28  29
HETATM   29  C16 UNL     1       2.058  -5.809  -5.969  1.00  0.00     0.122 C 
HETATM   30  C17 UNL     1       3.506  -5.580  -5.600  1.00  0.00     0.032 C 
HETATM   31  C18 UNL     1       4.308  -5.367  -6.895  1.00  0.00     0.002 C 
HETATM   32  C19 UNL     1       4.094  -3.929  -7.337  1.00  0.00     0.000 C 
HETATM   33  C20 UNL     1       2.674  -3.584  -6.936  1.00  0.00     0.002 C 
HETATM   34  C21 UNL     1       1.774  -4.825  -7.109  1.00  0.00     0.032 C 
ENDBRANCH  28  29
ENDBRANCH   4  28
TORSDOF 11
ENDMDL
MODEL 2
REMARK VINA RESULT: -6.500499375      0.655      1.021
REMARK  11 active torsions:
REMARK  status: ('A' for Active; 'I' for Inactive)
REMARK    1  A    between atoms: C2_2  and  C3_3 
REMARK    2  A    between atoms: C3_3  and  C6_6 
REMARK    3  A    between atoms: C6_6  and  O1_7 
REMARK    4  A    between atoms: C6_6  and  C12_15 
REMARK    5  A    between atoms: O1_7  and  C7_8 
REMARK    6  A    between atoms: C7_8  and  O3_10 
REMARK    7  A    between atoms: O3_10  and  C8_11 
REMARK    8  A    between atoms: C13_17  and  O5_18 
REMARK    9  A    between atoms: C15_20  and  O6_21 
REMARK   10  A    between atoms: O6_21  and  C16_22 
REMARK   11  A    between atoms: C23_29  and  N1_30 
ROOT
HETATM    1  C12 UNL     1      -0.791  -8.422  -8.732  1.00  0.00     0.178 C 
HETATM    2  O4  UNL     1       0.116  -9.371  -8.129  1.00  0.00    -0.349 OA
HETATM    3  C13 UNL     1       1.347  -8.619  -7.939  1.00  0.00     0.288 C 
HETATM    4  C15 UNL     1       0.999  -7.380  -7.167  1.00  0.00     0.179 C 
HETATM    5  C22 UNL     1      -0.376  -7.623  -6.480  1.00  0.00     0.065 C 
HETATM    6  C23 UNL     1      -1.430  -7.781  -7.597  1.00  0.00     0.117 C 
ENDROOT
BRANCH   1   7
HETATM    7  C6  UNL     1      -1.456  -8.930  -9.913  1.00  0.00     0.176 C 
BRANCH   7   8
HETATM    8  C3  UNL     1      -1.631  -8.305 -11.211  1.00  0.00    -0.001 C 
HETATM    9  C4  UNL     1      -2.778  -8.932 -12.042  1.00  0.00     0.021 C 
HETATM   10  C5  UNL     1      -0.421  -8.653 -12.062  1.00  0.00     0.021 C 
BRANCH   8  11
HETATM   11  C2  UNL     1      -1.726  -6.833 -11.280  1.00  0.00    -0.026 C 
HETATM   12  C1  UNL     1      -1.385  -6.086 -12.320  1.00  0.00     0.008 C 
ENDBRANCH   8  11
ENDBRANCH   7   8
BRANCH   7  13
HETATM   13  O1  UNL     1      -0.897 -10.237 -10.201  1.00  0.00    -0.289 OA
BRANCH  13  14
HETATM   14  C7  UNL     1      -1.582 -11.376  -9.889  1.00  0.00     0.407 C 
HETATM   15  O2  UNL     1      -0.980 -12.175  -9.078  1.00  0.00    -0.229 OA
BRANCH  14  16
HETATM   16  O3  UNL     1      -2.796 -11.836 -10.281  1.00  0.00    -0.288 OA
BRANCH  16  17
HETATM   17  C8  UNL     1      -3.064 -12.667 -11.367  1.00  0.00     0.062 C 
HETATM   18  C9  UNL     1      -4.411 -12.295 -11.942  1.00  0.00     0.046 C 
HETATM   19  C10 UNL     1      -2.023 -12.540 -12.441  1.00  0.00     0.046 C 
HETATM   20  C11 UNL     1      -3.170 -14.133 -10.986  1.00  0.00     0.046 C 
ENDBRANCH  16  17
ENDBRANCH  14  16
ENDBRANCH  13  14
ENDBRANCH   7  13
ENDBRANCH   1   7
BRANCH   6  21
HETATM   21  N1  UNL     1      -2.515  -8.268  -6.900  1.00  0.00    -0.386 N 
HETATM   22  C24 UNL     1      -2.215  -9.390  -6.065  1.00  0.00     0.123 C 
HETATM   23  C25 UNL     1      -3.073 -10.492  -6.648  1.00  0.00     0.025 C 
HETATM   24  C26 UNL     1      -4.163  -9.790  -7.439  1.00  0.00     0.046 C 
HETATM   25  C27 UNL     1      -3.810  -8.333  -7.252  1.00  0.00     0.058 C 
ENDBRANCH   6  21
BRANCH   3  26
HETATM   26  O5  UNL     1       1.813  -8.293  -9.174  1.00  0.00    -0.363 OA
HETATM   27  C14 UNL     1       3.030  -8.878  -9.439  1.00  0.00     0.204 C 
ENDBRANCH   3  26
BRANCH   4  28
HETATM   28  O6  UNL     1       1.974  -7.000  -6.308  1.00  0.00    -0.376 OA
BRANCH  28  29
HETATM   29  C16 UNL     1       2.017  -5.693  -5.946  1.00  0.00     0.122 C 
HETATM   30  C17 UNL     1       3.427  -5.366  -5.507  1.00  0.00     0.032 C 
HETATM   31  C18 UNL     1       4.288  -5.152  -6.764  1.00  0.00     0.002 C 
HETATM   32  C19 UNL     1       4.018  -3.744  -7.272  1.00  0.00     0.000 C 
HETATM   33  C20 UNL     1       2.561  -3.470  -6.962  1.00  0.00     0.002 C 
HETATM   34  C21 UNL     1       1.743  -4.767  -7.137  1.00  0.00     0.032 C 
ENDBRANCH  28  29
ENDBRANCH   4  28
TORSDOF 11
ENDMDL
MODEL 3
REMARK VINA RESULT: -6.478314012      1.596      2.454
REMARK  11 active torsions:
REMARK  status: ('A' for Active; 'I' for Inactive)
REMARK    1  A    between atoms: C2_2  and  C3_3 
REMARK    2  A    between atoms: C3_3  and  C6_6 
REMARK    3  A    between atoms: C6_6  and  O1_7 
REMARK    4  A    between atoms: C6_6  and  C12_15 
REMARK    5  A    between atoms: O1_7  and  C7_8 
REMARK    6  A    between atoms: C7_8  and  O3_10 
REMARK    7  A    between atoms: O3_10  and  C8_11 
REMARK    8  A    between atoms: C13_17  and  O5_18 
REMARK    9  A    between atoms: C15_20  and  O6_21 
REMARK   10  A    between atoms: O6_21  and  C16_22 
REMARK   11  A    between atoms: C23_29  and  N1_30 
ROOT
HETATM    1  C12 UNL     1      -0.694  -8.661  -8.810  1.00  0.00     0.178 C 
HETATM    2  O4  UNL     1       0.232  -9.557  -8.155  1.00  0.00    -0.349 OA
HETATM    3  C13 UNL     1       1.448  -8.772  -8.009  1.00  0.00     0.288 C 
HETATM    4  C15 UNL     1       1.076  -7.498  -7.308  1.00  0.00     0.179 C 
HETATM    5  C22 UNL     1      -0.294  -7.728  -6.607  1.00  0.00     0.065 C 
HETATM    6  C23 UNL     1      -1.345  -7.969  -7.712  1.00  0.00     0.117 C 
ENDROOT
BRANCH   1   7
HETATM    7  C6  UNL     1      -1.349  -9.247  -9.959  1.00  0.00     0.176 C 
BRANCH   7   8
HETATM    8  C3  UNL     1      -1.674  -8.645 -11.239  1.00  0.00    -0.001 C 
HETATM    9  C4  UNL     1      -2.702  -9.466 -12.057  1.00  0.00     0.021 C 
HETATM   10  C5  UNL     1      -0.443  -8.740 -12.124  1.00  0.00     0.021 C 
BRANCH   8  11
HETATM   11  C2  UNL     1      -2.050  -7.217 -11.274  1.00  0.00    -0.026 C 
HETATM   12  C1  UNL     1      -1.601  -6.322 -12.142  1.00  0.00     0.008 C 
ENDBRANCH   8  11
ENDBRANCH   7   8
BRANCH   7  13
HETATM   13  O1  UNL     1      -0.639 -10.467 -10.291  1.00  0.00    -0.289 OA
BRANCH  13  14
HETATM   14  C7  UNL     1      -1.011 -11.664  -9.747  1.00  0.00     0.407 C 
HETATM   15  O2  UNL     1      -2.262 -11.952  -9.856  1.00  0.00    -0.229 OA
BRANCH  14  16
HETATM   16  O3  UNL     1      -0.301 -12.621  -9.100  1.00  0.00    -0.288 OA
BRANCH  16  17
HETATM   17  C8  UNL     1       0.862 -13.244  -9.547  1.00  0.00     0.062 C 
HETATM   18  C9  UNL     1       1.033 -14.545  -8.798  1.00  0.00     0.046 C 
HETATM   19  C10 UNL     1       0.815 -13.532 -11.019  1.00  0.00     0.046 C 
HETATM   20  C11 UNL     1       2.118 -12.439  -9.264  1.00  0.00     0.046 C 
ENDBRANCH  16  17
ENDBRANCH  14  16
ENDBRANCH  13  14
ENDBRANCH   7  13
ENDBRANCH   1   7
BRANCH   6  21
HETATM   21  N1  UNL     1      -2.420  -8.437  -6.987  1.00  0.00    -0.386 N 
HETATM   22  C24 UNL     1      -2.119  -9.565  -6.162  1.00  0.00     0.123 C 
HETATM   23  C25 UNL     1      -3.014 -10.650  -6.723  1.00  0.00     0.025 C 
HETATM   24  C26 UNL     1      -4.110  -9.926  -7.485  1.00  0.00     0.046 C 
HETATM   25  C27 UNL     1      -3.725  -8.476  -7.305  1.00  0.00     0.058 C 
ENDBRANCH   6  21
BRANCH   3  26
HETATM   26  O5  UNL     1       1.907  -8.507  -9.261  1.00  0.00    -0.363 OA
HETATM   27  C14 UNL     1       3.238  -8.825  -9.401  1.00  0.00     0.204 C 
ENDBRANCH   3  26
BRANCH   4  28
HETATM   28  O6  UNL     1       2.044  -7.052  -6.472  1.00  0.00    -0.376 OA
BRANCH  28  29
HETATM   29  C16 UNL     1       1.967  -5.763  -6.054  1.00  0.00     0.122 C 
HETATM   30  C17 UNL     1       3.314  -5.361  -5.499  1.00  0.00     0.032 C 
HETATM   31  C18 UNL     1       4.244  -5.029  -6.679  1.00  0.00     0.002 C 
HETATM   32  C19 UNL     1       3.909  -3.621  -7.146  1.00  0.00     0.000 C 
HETATM   33  C20 UNL     1       2.418  -3.463  -6.933  1.00  0.00     0.002 C 
HETATM   34  C21 UNL     1       1.711  -4.804  -7.222  1.00  0.00     0.032 C 
ENDBRANCH  28  29
ENDBRANCH   4  28
TORSDOF 11
ENDMDL
MODEL 4
REMARK VINA RESULT: -6.452608094      2.036      4.075
REMARK  11 active torsions:
REMARK  status: ('A' for Active; 'I' for Inactive)
REMARK    1  A    between atoms: C2_2  and  C3_3 
REMARK    2  A    between atoms: C3_3  and  C6_6 
REMARK    3  A    between atoms: C6_6  and  O1_7 
REMARK    4  A    between atoms: C6_6  and  C12_15 
REMARK    5  A    between atoms: O1_7  and  C7_8 
REMARK    6  A    between atoms: C7_8  and  O3_10 
REMARK    7  A    between atoms: O3_10  and  C8_11 
REMARK    8  A    between atoms: C13_17  and  O5_18 
REMARK    9  A    between atoms: C15_20  and  O6_21 
REMARK   10  A    between atoms: O6_21  and  C16_22 
REMARK   11  A    between atoms: C23_29  and  N1_30 
ROOT
HETATM    1  C12 UNL     1      -0.888  -9.579  -8.483  1.00  0.00     0.178 C 
HETATM    2  O4  UNL     1      -0.657  -8.574  -9.495  1.00  0.00    -0.349 OA
HETATM    3  C13 UNL     1       0.116  -7.548  -8.813  1.00  0.00     0.288 C 
HETATM    4  C15 UNL     1       1.307  -8.222  -8.195  1.00  0.00     0.179 C 
HETATM    5  C22 UNL     1       1.499  -9.590  -8.913  1.00  0.00     0.065 C 
HETATM    6  C23 UNL     1       0.262 -10.457  -8.594  1.00  0.00     0.117 C 
ENDROOT
BRANCH   1   7
HETATM    7  C6  UNL     1      -2.272  -9.990  -8.384  1.00  0.00     0.176 C 
BRANCH   7   8
HETATM    8  C3  UNL     1      -3.207  -9.820  -7.288  1.00  0.00    -0.001 C 
HETATM    9  C4  UNL     1      -3.499  -8.335  -6.957  1.00  0.00     0.021 C 
HETATM   10  C5  UNL     1      -2.519 -10.279  -6.013  1.00  0.00     0.021 C 
BRANCH   8  11
HETATM   11  C2  UNL     1      -4.477 -10.573  -7.318  1.00  0.00    -0.026 C 
HETATM   12  C1  UNL     1      -4.746 -11.661  -6.613  1.00  0.00     0.008 C 
ENDBRANCH   8  11
ENDBRANCH   7   8
BRANCH   7  13
HETATM   13  O1  UNL     1      -2.966  -9.473  -9.548  1.00  0.00    -0.289 OA
BRANCH  13  14
HETATM   14  C7  UNL     1      -3.113 -10.235 -10.672  1.00  0.00     0.407 C 
HETATM   15  O2  UNL     1      -2.892 -11.494 -10.515  1.00  0.00    -0.229 OA
BRANCH  14  16
HETATM   16  O3  UNL     1      -3.448  -9.911 -11.945  1.00  0.00    -0.288 OA
BRANCH  16  17
HETATM   17  C8  UNL     1      -2.861  -8.928 -12.740  1.00  0.00     0.062 C 
HETATM   18  C9  UNL     1      -1.360  -9.091 -12.683  1.00  0.00     0.046 C 
HETATM   19  C10 UNL     1      -3.309  -9.021 -14.169  1.00  0.00     0.046 C 
HETATM   20  C11 UNL     1      -3.140  -7.518 -12.250  1.00  0.00     0.046 C 
ENDBRANCH  16  17
ENDBRANCH  14  16
ENDBRANCH  13  14
ENDBRANCH   7  13
ENDBRANCH   1   7
BRANCH   6  21
HETATM   21  N1  UNL     1       0.401 -11.495  -9.491  1.00  0.00    -0.386 N 
HETATM   22  C24 UNL     1      -0.035 -12.761  -8.989  1.00  0.00     0.123 C 
HETATM   23  C25 UNL     1       1.229 -13.594  -9.012  1.00  0.00     0.025 C 
HETATM   24  C26 UNL     1       2.160 -12.901  -9.991  1.00  0.00     0.046 C 
HETATM   25  C27 UNL     1       1.342 -11.708 -10.426  1.00  0.00     0.058 C 
ENDBRANCH   6  21
BRANCH   3  26
HETATM   26  O5  UNL     1      -0.682  -7.020  -7.846  1.00  0.00    -0.363 OA
HETATM   27  C14 UNL     1      -0.938  -5.685  -8.060  1.00  0.00     0.204 C 
ENDBRANCH   3  26
BRANCH   4  28
HETATM   28  O6  UNL     1       2.417  -7.446  -8.202  1.00  0.00    -0.376 OA
BRANCH  28  29
HETATM   29  C16 UNL     1       3.004  -7.181  -7.007  1.00  0.00     0.122 C 
HETATM   30  C17 UNL     1       4.425  -6.733  -7.264  1.00  0.00     0.032 C 
HETATM   31  C18 UNL     1       4.397  -5.256  -7.693  1.00  0.00     0.002 C 
HETATM   32  C19 UNL     1       4.257  -4.414  -6.435  1.00  0.00     0.000 C 
HETATM   33  C20 UNL     1       3.398  -5.229  -5.491  1.00  0.00     0.002 C 
HETATM   34  C21 UNL     1       2.333  -6.000  -6.298  1.00  0.00     0.032 C 
ENDBRANCH  28  29
ENDBRANCH   4  28
TORSDOF 11
ENDMDL
MODEL 5
REMARK VINA RESULT: -6.367857132      2.501      4.364
REMARK  11 active torsions:
REMARK  status: ('A' for Active; 'I' for Inactive)
REMARK    1  A    between atoms: C2_2  and  C3_3 
REMARK    2  A    between atoms: C3_3  and  C6_6 
REMARK    3  A    between atoms: C6_6  and  O1_7 
REMARK    4  A    between atoms: C6_6  and  C12_15 
REMARK    5  A    between atoms: O1_7  and  C7_8 
REMARK    6  A    between atoms: C7_8  and  O3_10 
REMARK    7  A    between atoms: O3_10  and  C8_11 
REMARK    8  A    between atoms: C13_17  and  O5_18 
REMARK    9  A    between atoms: C15_20  and  O6_21 
REMARK   10  A    between atoms: O6_21  and  C16_22 
REMARK   11  A    between atoms: C23_29  and  N1_30 
ROOT
HETATM    1  C12 UNL     1       0.512  -8.506  -9.130  1.00  0.00     0.178 C 
HETATM    2  O4  UNL     1       0.855  -9.613  -8.267  1.00  0.00    -0.349 OA
HETATM    3  C13 UNL     1       2.051 -10.181  -8.870  1.00  0.00     0.288 C 
HETATM    4  C15 UNL     1       3.045  -9.066  -9.026  1.00  0.00     0.179 C 
HETATM    5  C22 UNL     1       2.613  -7.914  -8.074  1.00  0.00     0.065 C 
HETATM    6  C23 UNL     1       1.250  -7.388  -8.572  1.00  0.00     0.117 C 
ENDROOT
BRANCH   1   7
HETATM    7  C6  UNL     1      -0.878  -8.497  -9.532  1.00  0.00     0.176 C 
BRANCH   7   8
HETATM    8  C3  UNL     1      -1.454  -8.658 -10.854  1.00  0.00    -0.001 C 
HETATM    9  C4  UNL     1      -2.078 -10.057 -11.084  1.00  0.00     0.021 C 
HETATM   10  C5  UNL     1      -0.316  -8.669 -11.860  1.00  0.00     0.021 C 
BRANCH   8  11
HETATM   11  C2  UNL     1      -2.382  -7.622 -11.352  1.00  0.00    -0.026 C 
HETATM   12  C1  UNL     1      -2.777  -7.479 -12.608  1.00  0.00     0.008 C 
ENDBRANCH   8  11
ENDBRANCH   7   8
BRANCH   7  13
HETATM   13  O1  UNL     1      -1.579  -9.457  -8.701  1.00  0.00    -0.289 OA
BRANCH  13  14
HETATM   14  C7  UNL     1      -2.662  -9.082  -7.959  1.00  0.00     0.407 C 
HETATM   15  O2  UNL     1      -2.553  -7.946  -7.363  1.00  0.00    -0.229 OA
BRANCH  14  16
HETATM   16  O3  UNL     1      -3.850  -9.693  -7.723  1.00  0.00    -0.288 OA
BRANCH  16  17
HETATM   17  C8  UNL     1      -4.044 -10.999  -7.275  1.00  0.00     0.062 C 
HETATM   18  C9  UNL     1      -3.122 -11.252  -6.105  1.00  0.00     0.046 C 
HETATM   19  C10 UNL     1      -5.460 -11.238  -6.841  1.00  0.00     0.046 C 
HETATM   20  C11 UNL     1      -3.687 -12.046  -8.315  1.00  0.00     0.046 C 
ENDBRANCH  16  17
ENDBRANCH  14  16
ENDBRANCH  13  14
ENDBRANCH   7  13
ENDBRANCH   1   7
BRANCH   6  21
HETATM   21  N1  UNL     1       0.845  -6.599  -7.516  1.00  0.00    -0.386 N 
HETATM   22  C24 UNL     1       0.417  -5.289  -7.900  1.00  0.00     0.123 C 
HETATM   23  C25 UNL     1       1.402  -4.384  -7.192  1.00  0.00     0.025 C 
HETATM   24  C26 UNL     1       1.993  -5.218  -6.068  1.00  0.00     0.046 C 
HETATM   25  C27 UNL     1       1.298  -6.547  -6.253  1.00  0.00     0.058 C 
ENDBRANCH   6  21
BRANCH   3  26
HETATM   26  O5  UNL     1       1.693 -10.669 -10.088  1.00  0.00    -0.363 OA
HETATM   27  C14 UNL     1       1.255 -11.971 -10.014  1.00  0.00     0.204 C 
ENDBRANCH   3  26
BRANCH   4  28
HETATM   28  O6  UNL     1       4.325  -9.470  -8.843  1.00  0.00    -0.376 OA
BRANCH  28  29
HETATM   29  C16 UNL     1       5.123  -8.693  -8.068  1.00  0.00     0.122 C 
HETATM   30  C17 UNL     1       5.845  -9.584  -7.084  1.00  0.00     0.032 C 
HETATM   31  C18 UNL     1       7.026 -10.250  -7.810  1.00  0.00     0.002 C 
HETATM   32  C19 UNL     1       8.159  -9.238  -7.870  1.00  0.00     0.000 C 
HETATM   33  C20 UNL     1       7.492  -7.886  -8.013  1.00  0.00     0.002 C 
HETATM   34  C21 UNL     1       6.230  -8.023  -8.890  1.00  0.00     0.032 C 
ENDBRANCH  28  29
ENDBRANCH   4  28
TORSDOF 11
ENDMDL
