MODEL 1
REMARK VINA RESULT: -7.316166479      0.000      0.000
REMARK  10 active torsions:
REMARK  status: ('A' for Active; 'I' for Inactive)
REMARK    1  A    between atoms: C2_2  and  O1_4 
REMARK    2  A    between atoms: O1_4  and  C4_5 
REMARK    3  A    between atoms: C4_5  and  C5_6 
REMARK    4  A    between atoms: C8_10  and  O3_11 
REMARK    5  A    between atoms: O3_11  and  C9_12 
REMARK    6  A    between atoms: C14_18  and  C15_19 
REMARK    7  A    between atoms: C15_19  and  O5_21 
REMARK    8  A    between atoms: O5_21  and  C17_22 
REMARK    9  A    between atoms: C24_30  and  O7_31 
REMARK   10  A    between atoms: O7_31  and  C25_32 
ROOT
HETATM    1  C5  UNL     1       1.500  -6.973  -7.049  1.00  0.00     0.176 C 
HETATM    2  O2  UNL     1       0.244  -7.443  -6.738  1.00  0.00    -0.367 OA
HETATM    3  C6  UNL     1      -0.211  -8.182  -7.822  1.00  0.00     0.091 C 
HETATM    4  C7  UNL     1      -0.944  -7.318  -8.730  1.00  0.00     0.049 C 
HETATM    5  C8  UNL     1      -1.169  -9.285  -7.361  1.00  0.00     0.166 C 
HETATM    6  C11 UNL     1      -1.458 -10.143  -8.573  1.00  0.00     0.041 C 
HETATM    7  C12 UNL     1      -0.232 -10.726  -9.175  1.00  0.00    -0.003 C 
HETATM    8  C13 UNL     1      -0.590 -11.553 -10.352  1.00  0.00     0.012 C 
HETATM    9  C14 UNL     1      -0.579 -10.900 -11.679  1.00  0.00     0.015 C 
HETATM   10  C19 UNL     1      -0.181  -9.448 -11.647  1.00  0.00     0.008 C 
HETATM   11  C20 UNL     1       0.999  -9.183 -10.757  1.00  0.00     0.010 C 
HETATM   12  C21 UNL     1       0.928  -9.791  -9.401  1.00  0.00    -0.031 C 
HETATM   13  C22 UNL     1       2.149 -10.734  -9.304  1.00  0.00     0.016 C 
HETATM   14  C23 UNL     1       1.028  -8.889  -8.236  1.00  0.00     0.062 C 
HETATM   15  C24 UNL     1       2.101  -7.907  -8.111  1.00  0.00     0.161 C 
ENDROOT
BRANCH   9  16
HETATM   16  C15 UNL     1      -1.929 -10.960 -12.383  1.00  0.00     0.132 C 
HETATM   17  C16 UNL     1      -2.448  -9.568 -12.678  1.00  0.00     0.040 C 
BRANCH  16  18
HETATM   18  O5  UNL     1      -2.815 -11.601 -11.479  1.00  0.00    -0.316 OA
BRANCH  18  19
HETATM   19  C17 UNL     1      -4.165 -11.784 -11.727  1.00  0.00     0.255 C 
HETATM   20  C18 UNL     1      -4.645 -12.514 -12.945  1.00  0.00     0.126 C 
HETATM   21  O6  UNL     1      -4.997 -11.335 -10.925  1.00  0.00    -0.266 OA
ENDBRANCH  18  19
ENDBRANCH  16  18
ENDBRANCH   9  16
BRANCH   5  22
HETATM   22  O3  UNL     1      -2.367  -8.782  -6.854  1.00  0.00    -0.313 OA
BRANCH  22  23
HETATM   23  C9  UNL     1      -3.454  -9.647  -6.773  1.00  0.00     0.255 C 
HETATM   24  C10 UNL     1      -3.321 -10.907  -5.999  1.00  0.00     0.126 C 
HETATM   25  O4  UNL     1      -4.556  -9.416  -7.329  1.00  0.00    -0.266 OA
ENDBRANCH  22  23
ENDBRANCH   5  22
BRANCH  15  26
HETATM   26  O7  UNL     1       3.256  -8.460  -7.718  1.00  0.00    -0.378 OA
BRANCH  26  27
HETATM   27  C25 UNL     1       4.470  -8.068  -8.138  1.00  0.00     0.114 C 
HETATM   28  C26 UNL     1       5.610  -8.887  -7.505  1.00  0.00     0.039 C 
HETATM   29  C27 UNL     1       4.761  -7.962  -9.599  1.00  0.00     0.039 C 
ENDBRANCH  26  27
ENDBRANCH  15  26
BRANCH   1  30
HETATM   30  C4  UNL     1       1.422  -5.548  -7.454  1.00  0.00     0.209 C 
BRANCH  30  31
HETATM   31  O1  UNL     1       2.180  -4.655  -6.662  1.00  0.00    -0.354 OA
BRANCH  31  32
HETATM   32  C2  UNL     1       3.551  -4.776  -6.564  1.00  0.00     0.033 C 
HETATM   33  C1  UNL     1       4.302  -4.359  -7.558  1.00  0.00     0.045 C 
HETATM   34  C3  UNL     1       4.187  -5.360  -5.368  1.00  0.00     0.075 C 
ENDBRANCH  31  32
ENDBRANCH  30  31
ENDBRANCH   1  30
TORSDOF 10
ENDMDL
MODEL 2
REMARK VINA RESULT: -7.297991300      1.060      1.342
REMARK  10 active torsions:
REMARK  status: ('A' for Active; 'I' for Inactive)
REMARK    1  A    between atoms: C2_2  and  O1_4 
REMARK    2  A    between atoms: O1_4  and  C4_5 
REMARK    3  A    between atoms: C4_5  and  C5_6 
REMARK    4  A    between atoms: C8_10  and  O3_11 
REMARK    5  A    between atoms: O3_11  and  C9_12 
REMARK    6  A    between atoms: C14_18  and  C15_19 
REMARK    7  A    between atoms: C15_19  and  O5_21 
REMARK    8  A    between atoms: O5_21  and  C17_22 
REMARK    9  A    between atoms: C24_30  and  O7_31 
REMARK   10  A    between atoms: O7_31  and  C25_32 
ROOT
HETATM    1  C5  UNL     1       1.418  -7.064  -6.994  1.00  0.00     0.176 C 
HETATM    2  O2  UNL     1       0.184  -7.561  -6.640  1.00  0.00    -0.367 OA
HETATM    3  C6  UNL     1      -0.343  -8.212  -7.747  1.00  0.00     0.091 C 
HETATM    4  C7  UNL     1      -1.132  -7.280  -8.533  1.00  0.00     0.049 C 
HETATM    5  C8  UNL     1      -1.273  -9.350  -7.313  1.00  0.00     0.166 C 
HETATM    6  C11 UNL     1      -1.643 -10.110  -8.567  1.00  0.00     0.041 C 
HETATM    7  C12 UNL     1      -0.460 -10.640  -9.294  1.00  0.00    -0.003 C 
HETATM    8  C13 UNL     1      -0.897 -11.371 -10.506  1.00  0.00     0.012 C 
HETATM    9  C14 UNL     1      -0.972 -10.615 -11.775  1.00  0.00     0.015 C 
HETATM   10  C19 UNL     1      -0.568  -9.169 -11.654  1.00  0.00     0.008 C 
HETATM   11  C20 UNL     1       0.668  -8.973 -10.825  1.00  0.00     0.010 C 
HETATM   12  C21 UNL     1       0.684  -9.687  -9.520  1.00  0.00    -0.031 C 
HETATM   13  C22 UNL     1       1.907 -10.632  -9.579  1.00  0.00     0.016 C 
HETATM   14  C23 UNL     1       0.863  -8.880  -8.296  1.00  0.00     0.062 C 
HETATM   15  C24 UNL     1       1.945  -7.910  -8.164  1.00  0.00     0.161 C 
ENDROOT
BRANCH   9  16
HETATM   16  C15 UNL     1      -2.365 -10.621 -12.391  1.00  0.00     0.132 C 
HETATM   17  C16 UNL     1      -2.612 -11.903 -13.159  1.00  0.00     0.040 C 
BRANCH  16  18
HETATM   18  O5  UNL     1      -2.400  -9.528 -13.294  1.00  0.00    -0.316 OA
BRANCH  18  19
HETATM   19  C17 UNL     1      -3.520  -8.739 -13.501  1.00  0.00     0.255 C 
HETATM   20  C18 UNL     1      -4.284  -8.789 -14.790  1.00  0.00     0.126 C 
HETATM   21  O6  UNL     1      -3.901  -7.975 -12.602  1.00  0.00    -0.266 OA
ENDBRANCH  18  19
ENDBRANCH  16  18
ENDBRANCH   9  16
BRANCH   5  22
HETATM   22  O3  UNL     1      -2.433  -8.893  -6.689  1.00  0.00    -0.313 OA
BRANCH  22  23
HETATM   23  C9  UNL     1      -3.550  -9.722  -6.703  1.00  0.00     0.255 C 
HETATM   24  C10 UNL     1      -3.483 -11.039  -6.020  1.00  0.00     0.126 C 
HETATM   25  O4  UNL     1      -4.627  -9.413  -7.271  1.00  0.00    -0.266 OA
ENDBRANCH  22  23
ENDBRANCH   5  22
BRANCH  15  26
HETATM   26  O7  UNL     1       3.122  -8.489  -7.893  1.00  0.00    -0.378 OA
BRANCH  26  27
HETATM   27  C25 UNL     1       4.317  -7.997  -8.261  1.00  0.00     0.114 C 
HETATM   28  C26 UNL     1       5.474  -8.549  -7.409  1.00  0.00     0.039 C 
HETATM   29  C27 UNL     1       4.748  -8.063  -9.689  1.00  0.00     0.039 C 
ENDBRANCH  26  27
ENDBRANCH  15  26
BRANCH   1  30
HETATM   30  C4  UNL     1       1.317  -5.612  -7.278  1.00  0.00     0.209 C 
BRANCH  30  31
HETATM   31  O1  UNL     1       2.085  -4.778  -6.432  1.00  0.00    -0.354 OA
BRANCH  31  32
HETATM   32  C2  UNL     1       3.463  -4.849  -6.421  1.00  0.00     0.033 C 
HETATM   33  C1  UNL     1       4.137  -4.338  -7.427  1.00  0.00     0.045 C 
HETATM   34  C3  UNL     1       4.192  -5.483  -5.306  1.00  0.00     0.075 C 
ENDBRANCH  31  32
ENDBRANCH  30  31
ENDBRANCH   1  30
TORSDOF 10
ENDMDL
MODEL 3
REMARK VINA RESULT: -7.111442624      1.217      1.449
REMARK  10 active torsions:
REMARK  status: ('A' for Active; 'I' for Inactive)
REMARK    1  A    between atoms: C2_2  and  O1_4 
REMARK    2  A    between atoms: O1_4  and  C4_5 
REMARK    3  A    between atoms: C4_5  and  C5_6 
REMARK    4  A    between atoms: C8_10  and  O3_11 
REMARK    5  A    between atoms: O3_11  and  C9_12 
REMARK    6  A    between atoms: C14_18  and  C15_19 
REMARK    7  A    between atoms: C15_19  and  O5_21 
REMARK    8  A    between atoms: O5_21  and  C17_22 
REMARK    9  A    between atoms: C24_30  and  O7_31 
REMARK   10  A    between atoms: O7_31  and  C25_32 
ROOT
HETATM    1  C5  UNL     1       0.819  -7.314  -7.020  1.00  0.00     0.176 C 
HETATM    2  O2  UNL     1      -0.409  -7.889  -6.786  1.00  0.00    -0.367 OA
HETATM    3  C6  UNL     1      -0.961  -8.223  -8.016  1.00  0.00     0.091 C 
HETATM    4  C7  UNL     1      -1.763  -7.117  -8.508  1.00  0.00     0.049 C 
HETATM    5  C8  UNL     1      -1.886  -9.438  -7.881  1.00  0.00     0.166 C 
HETATM    6  C11 UNL     1      -2.284  -9.836  -9.284  1.00  0.00     0.041 C 
HETATM    7  C12 UNL     1      -1.118 -10.151 -10.150  1.00  0.00    -0.003 C 
HETATM    8  C13 UNL     1      -1.583 -10.535 -11.504  1.00  0.00     0.012 C 
HETATM    9  C14 UNL     1      -1.681  -9.468 -12.524  1.00  0.00     0.015 C 
HETATM   10  C19 UNL     1      -1.269  -8.105 -12.031  1.00  0.00     0.008 C 
HETATM   11  C20 UNL     1      -0.016  -8.135 -11.205  1.00  0.00     0.010 C 
HETATM   12  C21 UNL     1       0.025  -9.171 -10.138  1.00  0.00    -0.031 C 
HETATM   13  C22 UNL     1       1.242 -10.063 -10.472  1.00  0.00     0.016 C 
HETATM   14  C23 UNL     1       0.232  -8.719  -8.747  1.00  0.00     0.062 C 
HETATM   15  C24 UNL     1       1.319  -7.816  -8.384  1.00  0.00     0.161 C 
ENDROOT
BRANCH   9  16
HETATM   16  C15 UNL     1      -3.087  -9.313 -13.091  1.00  0.00     0.132 C 
HETATM   17  C16 UNL     1      -3.575  -7.888 -12.944  1.00  0.00     0.040 C 
BRANCH  16  18
HETATM   18  O5  UNL     1      -3.916 -10.168 -12.320  1.00  0.00    -0.316 OA
BRANCH  18  19
HETATM   19  C17 UNL     1      -5.074 -10.754 -12.805  1.00  0.00     0.255 C 
HETATM   20  C18 UNL     1      -5.035 -11.767 -13.909  1.00  0.00     0.126 C 
HETATM   21  O6  UNL     1      -6.168 -10.436 -12.314  1.00  0.00    -0.266 OA
ENDBRANCH  18  19
ENDBRANCH  16  18
ENDBRANCH   9  16
BRANCH   5  22
HETATM   22  O3  UNL     1      -3.031  -9.165  -7.134  1.00  0.00    -0.313 OA
BRANCH  22  23
HETATM   23  C9  UNL     1      -3.994 -10.165  -7.030  1.00  0.00     0.255 C 
HETATM   24  C10 UNL     1      -3.673 -11.403  -6.278  1.00  0.00     0.126 C 
HETATM   25  O4  UNL     1      -5.135 -10.074  -7.547  1.00  0.00    -0.266 OA
ENDBRANCH  22  23
ENDBRANCH   5  22
BRANCH  15  26
HETATM   26  O7  UNL     1       2.500  -8.444  -8.301  1.00  0.00    -0.378 OA
BRANCH  26  27
HETATM   27  C25 UNL     1       3.690  -7.861  -8.517  1.00  0.00     0.114 C 
HETATM   28  C26 UNL     1       4.568  -7.820  -7.253  1.00  0.00     0.039 C 
HETATM   29  C27 UNL     1       4.558  -8.317  -9.643  1.00  0.00     0.039 C 
ENDBRANCH  26  27
ENDBRANCH  15  26
BRANCH   1  30
HETATM   30  C4  UNL     1       0.718  -5.838  -6.905  1.00  0.00     0.209 C 
BRANCH  30  31
HETATM   31  O1  UNL     1       1.842  -5.200  -6.332  1.00  0.00    -0.354 OA
BRANCH  31  32
HETATM   32  C2  UNL     1       2.424  -4.103  -6.935  1.00  0.00     0.033 C 
HETATM   33  C1  UNL     1       1.702  -3.023  -7.128  1.00  0.00     0.045 C 
HETATM   34  C3  UNL     1       3.836  -4.120  -7.362  1.00  0.00     0.075 C 
ENDBRANCH  31  32
ENDBRANCH  30  31
ENDBRANCH   1  30
TORSDOF 10
ENDMDL
MODEL 4
REMARK VINA RESULT: -7.021681427      2.070      7.451
REMARK  10 active torsions:
REMARK  status: ('A' for Active; 'I' for Inactive)
REMARK    1  A    between atoms: C2_2  and  O1_4 
REMARK    2  A    between atoms: O1_4  and  C4_5 
REMARK    3  A    between atoms: C4_5  and  C5_6 
REMARK    4  A    between atoms: C8_10  and  O3_11 
REMARK    5  A    between atoms: O3_11  and  C9_12 
REMARK    6  A    between atoms: C14_18  and  C15_19 
REMARK    7  A    between atoms: C15_19  and  O5_21 
REMARK    8  A    between atoms: O5_21  and  C17_22 
REMARK    9  A    between atoms: C24_30  and  O7_31 
REMARK   10  A    between atoms: O7_31  and  C25_32 
ROOT
HETATM    1  C5  UNL     1      -2.001  -9.666  -9.670  1.00  0.00     0.176 C 
HETATM    2  O2  UNL     1      -0.661  -9.979  -9.619  1.00  0.00    -0.367 OA
HETATM    3  C6  UNL     1       0.007  -8.890  -9.075  1.00  0.00     0.091 C 
HETATM    4  C7  UNL     1       0.429  -7.995 -10.137  1.00  0.00     0.049 C 
HETATM    5  C8  UNL     1       1.265  -9.345  -8.328  1.00  0.00     0.166 C 
HETATM    6  C11 UNL     1       1.813  -8.126  -7.620  1.00  0.00     0.041 C 
HETATM    7  C12 UNL     1       0.836  -7.511  -6.685  1.00  0.00    -0.003 C 
HETATM    8  C13 UNL     1       1.440  -6.328  -6.028  1.00  0.00     0.012 C 
HETATM    9  C14 UNL     1       1.226  -5.008  -6.658  1.00  0.00     0.015 C 
HETATM   10  C19 UNL     1       0.387  -5.052  -7.909  1.00  0.00     0.008 C 
HETATM   11  C20 UNL     1      -0.817  -5.938  -7.775  1.00  0.00     0.010 C 
HETATM   12  C21 UNL     1      -0.559  -7.289  -7.206  1.00  0.00    -0.031 C 
HETATM   13  C22 UNL     1      -1.419  -7.369  -5.923  1.00  0.00     0.016 C 
HETATM   14  C23 UNL     1      -0.943  -8.462  -8.017  1.00  0.00     0.062 C 
HETATM   15  C24 UNL     1      -2.272  -8.591  -8.605  1.00  0.00     0.161 C 
ENDROOT
BRANCH   9  16
HETATM   16  C15 UNL     1       2.526  -4.311  -7.038  1.00  0.00     0.132 C 
HETATM   17  C16 UNL     1       2.253  -3.039  -7.813  1.00  0.00     0.040 C 
BRANCH  16  18
HETATM   18  O5  UNL     1       3.228  -5.218  -7.873  1.00  0.00    -0.316 OA
BRANCH  18  19
HETATM   19  C17 UNL     1       4.554  -5.571  -7.679  1.00  0.00     0.255 C 
HETATM   20  C18 UNL     1       5.231  -6.581  -8.555  1.00  0.00     0.126 C 
HETATM   21  O6  UNL     1       5.197  -5.039  -6.761  1.00  0.00    -0.266 OA
ENDBRANCH  18  19
ENDBRANCH  16  18
ENDBRANCH   9  16
BRANCH   5  22
HETATM   22  O3  UNL     1       2.240  -9.864  -9.178  1.00  0.00    -0.313 OA
BRANCH  22  23
HETATM   23  C9  UNL     1       2.647 -11.179  -8.977  1.00  0.00     0.255 C 
HETATM   24  C10 UNL     1       1.957 -12.271  -9.709  1.00  0.00     0.126 C 
HETATM   25  O4  UNL     1       3.578 -11.497  -8.197  1.00  0.00    -0.266 OA
ENDBRANCH  22  23
ENDBRANCH   5  22
BRANCH  15  26
HETATM   26  O7  UNL     1      -3.193  -8.972  -7.710  1.00  0.00    -0.378 OA
BRANCH  26  27
HETATM   27  C25 UNL     1      -3.510 -10.249  -7.438  1.00  0.00     0.114 C 
HETATM   28  C26 UNL     1      -2.814 -10.776  -6.170  1.00  0.00     0.039 C 
HETATM   29  C27 UNL     1      -4.941 -10.669  -7.365  1.00  0.00     0.039 C 
ENDBRANCH  26  27
ENDBRANCH  15  26
BRANCH   1  30
HETATM   30  C4  UNL     1      -2.378  -9.276 -11.051  1.00  0.00     0.209 C 
BRANCH  30  31
HETATM   31  O1  UNL     1      -2.765  -7.926 -11.211  1.00  0.00    -0.354 OA
BRANCH  31  32
HETATM   32  C2  UNL     1      -2.541  -7.255 -12.396  1.00  0.00     0.033 C 
HETATM   33  C1  UNL     1      -3.136  -7.675 -13.490  1.00  0.00     0.045 C 
HETATM   34  C3  UNL     1      -1.653  -6.079 -12.458  1.00  0.00     0.075 C 
ENDBRANCH  31  32
ENDBRANCH  30  31
ENDBRANCH   1  30
TORSDOF 10
ENDMDL
MODEL 5
REMARK VINA RESULT: -6.830235314      1.916      4.510
REMARK  10 active torsions:
REMARK  status: ('A' for Active; 'I' for Inactive)
REMARK    1  A    between atoms: C2_2  and  O1_4 
REMARK    2  A    between atoms: O1_4  and  C4_5 
REMARK    3  A    between atoms: C4_5  and  C5_6 
REMARK    4  A    between atoms: C8_10  and  O3_11 
REMARK    5  A    between atoms: O3_11  and  C9_12 
REMARK    6  A    between atoms: C14_18  and  C15_19 
REMARK    7  A    between atoms: C15_19  and  O5_21 
REMARK    8  A    between atoms: O5_21  and  C17_22 
REMARK    9  A    between atoms: C24_30  and  O7_31 
REMARK   10  A    between atoms: O7_31  and  C25_32 
ROOT
HETATM    1  C5  UNL     1       2.091  -8.243  -8.593  1.00  0.00     0.176 C 
HETATM    2  O2  UNL     1       1.231  -8.138  -9.663  1.00  0.00    -0.367 OA
HETATM    3  C6  UNL     1      -0.027  -8.544  -9.236  1.00  0.00     0.091 C 
HETATM    4  C7  UNL     1      -0.184  -9.969  -9.466  1.00  0.00     0.049 C 
HETATM    5  C8  UNL     1      -1.123  -7.825 -10.029  1.00  0.00     0.166 C 
HETATM    6  C11 UNL     1      -2.438  -8.185  -9.373  1.00  0.00     0.041 C 
HETATM    7  C12 UNL     1      -2.490  -7.810  -7.936  1.00  0.00    -0.003 C 
HETATM    8  C13 UNL     1      -3.803  -8.188  -7.362  1.00  0.00     0.012 C 
HETATM    9  C14 UNL     1      -3.914  -9.515  -6.718  1.00  0.00     0.015 C 
HETATM   10  C19 UNL     1      -2.635 -10.312  -6.726  1.00  0.00     0.008 C 
HETATM   11  C20 UNL     1      -1.430  -9.489  -6.370  1.00  0.00     0.010 C 
HETATM   12  C21 UNL     1      -1.305  -8.191  -7.088  1.00  0.00    -0.031 C 
HETATM   13  C22 UNL     1      -1.311  -7.106  -5.987  1.00  0.00     0.016 C 
HETATM   14  C23 UNL     1      -0.078  -7.954  -7.875  1.00  0.00     0.062 C 
HETATM   15  C24 UNL     1       1.251  -8.157  -7.308  1.00  0.00     0.161 C 
ENDROOT
BRANCH   9  16
HETATM   16  C15 UNL     1      -4.974 -10.401  -7.358  1.00  0.00     0.132 C 
HETATM   17  C16 UNL     1      -5.316 -11.572  -6.461  1.00  0.00     0.040 C 
BRANCH  16  18
HETATM   18  O5  UNL     1      -4.403 -10.892  -8.561  1.00  0.00    -0.316 OA
BRANCH  18  19
HETATM   19  C17 UNL     1      -5.040 -11.786  -9.405  1.00  0.00     0.255 C 
HETATM   20  C18 UNL     1      -4.424 -13.107  -9.755  1.00  0.00     0.126 C 
HETATM   21  O6  UNL     1      -6.146 -11.489  -9.882  1.00  0.00    -0.266 OA
ENDBRANCH  18  19
ENDBRANCH  16  18
ENDBRANCH   9  16
BRANCH   5  22
HETATM   22  O3  UNL     1      -1.157  -8.203 -11.370  1.00  0.00    -0.313 OA
BRANCH  22  23
HETATM   23  C9  UNL     1      -1.785  -7.349 -12.272  1.00  0.00     0.255 C 
HETATM   24  C10 UNL     1      -1.439  -5.906 -12.264  1.00  0.00     0.126 C 
HETATM   25  O4  UNL     1      -2.642  -7.740 -13.103  1.00  0.00    -0.266 OA
ENDBRANCH  22  23
ENDBRANCH   5  22
BRANCH  15  26
HETATM   26  O7  UNL     1       1.627  -7.146  -6.512  1.00  0.00    -0.378 OA
BRANCH  26  27
HETATM   27  C25 UNL     1       2.478  -6.170  -6.871  1.00  0.00     0.114 C 
HETATM   28  C26 UNL     1       1.760  -4.844  -7.184  1.00  0.00     0.039 C 
HETATM   29  C27 UNL     1       3.653  -5.844  -6.009  1.00  0.00     0.039 C 
ENDBRANCH  26  27
ENDBRANCH  15  26
BRANCH   1  30
HETATM   30  C4  UNL     1       2.906  -9.475  -8.716  1.00  0.00     0.209 C 
BRANCH  30  31
HETATM   31  O1  UNL     1       4.228  -9.279  -9.178  1.00  0.00    -0.354 OA
BRANCH  31  32
HETATM   32  C2  UNL     1       5.090  -8.417  -8.531  1.00  0.00     0.033 C 
HETATM   33  C1  UNL     1       5.572  -8.757  -7.357  1.00  0.00     0.045 C 
HETATM   34  C3  UNL     1       5.480  -7.126  -9.130  1.00  0.00     0.075 C 
ENDBRANCH  31  32
ENDBRANCH  30  31
ENDBRANCH   1  30
TORSDOF 10
ENDMDL
