MODEL 1
REMARK VINA RESULT: -7.852214911      0.000      0.000
REMARK  7 active torsions:
REMARK  status: ('A' for Active; 'I' for Inactive)
REMARK    1  A    between atoms: C4_4  and  C5_5 
REMARK    2  A    between atoms: C5_5  and  C6_6 
REMARK    3  A    between atoms: C21_26  and  O6_27 
REMARK    4  A    between atoms: O6_27  and  C22_28 
REMARK    5  A    between atoms: C22_28  and  C23_30 
REMARK    6  A    between atoms: C23_30  and  C24_31 
REMARK    7  A    between atoms: C24_31  and  C25_32 
ROOT
HETATM    1  C6  UNL     1      -1.178  -8.186  -8.760  1.00  0.00    -0.000 C 
HETATM    2  C7  UNL     1      -1.987  -7.104  -8.002  1.00  0.00     0.019 C 
HETATM    3  C8  UNL     1      -0.458  -7.385  -9.793  1.00  0.00     0.013 C 
HETATM    4  C9  UNL     1      -1.255  -6.497 -10.700  1.00  0.00     0.011 C 
HETATM    5  C10 UNL     1      -1.733  -7.290 -11.844  1.00  0.00    -0.034 A 
HETATM    6  C11 UNL     1      -0.633  -7.742 -12.722  1.00  0.00     0.016 C 
HETATM    7  C12 UNL     1      -3.009  -7.452 -12.479  1.00  0.00    -0.003 A 
HETATM    8  C13 UNL     1      -3.185  -8.400 -13.662  1.00  0.00     0.011 C 
HETATM    9  C14 UNL     1      -2.819  -8.085 -11.216  1.00  0.00     0.031 A 
HETATM   10  C15 UNL     1      -2.280  -9.314 -10.725  1.00  0.00     0.179 C 
HETATM   11  O1  UNL     1      -1.013  -9.713 -11.232  1.00  0.00    -0.308 OA
HETATM   12  C16 UNL     1      -0.294 -10.441 -10.307  1.00  0.00     0.329 C 
HETATM   13  O2  UNL     1       0.892 -10.800 -10.371  1.00  0.00    -0.259 OA
HETATM   14  C17 UNL     1      -1.324 -10.664  -9.246  1.00  0.00     0.324 C 
HETATM   15  O3  UNL     1      -2.192 -11.590  -9.895  1.00  0.00    -0.183 OA
HETATM   16  O4  UNL     1      -1.577 -12.733  -9.816  1.00  0.00    -0.198 OA
HETATM   17  C18 UNL     1      -1.053 -12.713  -8.524  1.00  0.00     0.194 C 
HETATM   18  C19 UNL     1      -2.062 -13.382  -7.614  1.00  0.00     0.081 C 
HETATM   19  C20 UNL     1       0.278 -13.422  -8.489  1.00  0.00     0.081 C 
HETATM   20  O5  UNL     1      -0.953 -11.366  -8.206  1.00  0.00    -0.303 OA
HETATM   21  C21 UNL     1      -2.007  -9.348  -9.208  1.00  0.00     0.174 C 
ENDROOT
BRANCH  21  22
HETATM   22  O6  UNL     1      -3.050  -9.322  -8.380  1.00  0.00    -0.300 OA
BRANCH  22  23
HETATM   23  C22 UNL     1      -3.725  -9.998  -7.475  1.00  0.00     0.259 C 
HETATM   24  O7  UNL     1      -3.194 -10.035  -6.371  1.00  0.00    -0.265 OA
BRANCH  23  25
HETATM   25  C23 UNL     1      -5.026 -10.698  -7.652  1.00  0.00     0.111 C 
BRANCH  25  26
HETATM   26  C24 UNL     1      -5.275 -11.633  -6.509  1.00  0.00     0.013 C 
BRANCH  26  27
HETATM   27  C25 UNL     1      -6.164 -12.779  -6.863  1.00  0.00    -0.022 C 
HETATM   28  C26 UNL     1      -5.604 -14.111  -6.468  1.00  0.00     0.009 C 
HETATM   29  C27 UNL     1      -6.373 -12.779  -8.366  1.00  0.00     0.009 C 
ENDBRANCH  26  27
ENDBRANCH  25  26
ENDBRANCH  23  25
ENDBRANCH  22  23
ENDBRANCH  21  22
BRANCH   1  30
HETATM   30  C5  UNL     1      -0.142  -8.471  -7.685  1.00  0.00     0.040 C 
BRANCH  30  31
HETATM   31  C4  UNL     1       0.226  -7.304  -6.852  1.00  0.00    -0.024 C 
HETATM   32  C2  UNL     1       1.526  -6.921  -6.805  1.00  0.00    -0.091 C 
HETATM   33  C1  UNL     1       2.572  -7.650  -7.569  1.00  0.00     0.042 C 
HETATM   34  C3  UNL     1       1.907  -5.764  -5.983  1.00  0.00     0.042 C 
ENDBRANCH  30  31
ENDBRANCH   1  30
TORSDOF 7
ENDMDL
MODEL 2
REMARK VINA RESULT: -7.827913405      1.777      5.425
REMARK  7 active torsions:
REMARK  status: ('A' for Active; 'I' for Inactive)
REMARK    1  A    between atoms: C4_4  and  C5_5 
REMARK    2  A    between atoms: C5_5  and  C6_6 
REMARK    3  A    between atoms: C21_26  and  O6_27 
REMARK    4  A    between atoms: O6_27  and  C22_28 
REMARK    5  A    between atoms: C22_28  and  C23_30 
REMARK    6  A    between atoms: C23_30  and  C24_31 
REMARK    7  A    between atoms: C24_31  and  C25_32 
ROOT
HETATM    1  C6  UNL     1       0.385 -10.165  -9.664  1.00  0.00    -0.000 C 
HETATM    2  C7  UNL     1       1.712  -9.377  -9.532  1.00  0.00     0.019 C 
HETATM    3  C8  UNL     1       0.244 -10.312 -11.142  1.00  0.00     0.013 C 
HETATM    4  C9  UNL     1       0.288  -9.081 -11.995  1.00  0.00     0.011 C 
HETATM    5  C10 UNL     1      -1.061  -8.497 -12.061  1.00  0.00    -0.034 A 
HETATM    6  C11 UNL     1      -2.019  -9.357 -12.787  1.00  0.00     0.016 C 
HETATM    7  C12 UNL     1      -1.583  -7.173 -11.877  1.00  0.00    -0.003 A 
HETATM    8  C13 UNL     1      -3.079  -6.895 -11.988  1.00  0.00     0.011 C 
HETATM    9  C14 UNL     1      -1.183  -7.890 -10.711  1.00  0.00     0.031 A 
HETATM   10  C15 UNL     1      -1.755  -8.844  -9.814  1.00  0.00     0.179 C 
HETATM   11  O1  UNL     1      -2.424  -9.957 -10.395  1.00  0.00    -0.308 OA
HETATM   12  C16 UNL     1      -2.338 -11.081  -9.601  1.00  0.00     0.329 C 
HETATM   13  O2  UNL     1      -2.672 -12.243  -9.881  1.00  0.00    -0.259 OA
HETATM   14  C17 UNL     1      -1.748 -10.512  -8.350  1.00  0.00     0.324 C 
HETATM   15  O3  UNL     1      -2.846  -9.753  -7.849  1.00  0.00    -0.183 OA
HETATM   16  O4  UNL     1      -3.640 -10.631  -7.311  1.00  0.00    -0.198 OA
HETATM   17  C18 UNL     1      -2.753 -11.498  -6.673  1.00  0.00     0.194 C 
HETATM   18  C19 UNL     1      -2.592 -11.015  -5.247  1.00  0.00     0.081 C 
HETATM   19  C20 UNL     1      -3.278 -12.911  -6.721  1.00  0.00     0.081 C 
HETATM   20  O5  UNL     1      -1.556 -11.345  -7.359  1.00  0.00    -0.303 OA
HETATM   21  C21 UNL     1      -0.748  -9.562  -8.894  1.00  0.00     0.174 C 
ENDROOT
BRANCH  21  22
HETATM   22  O6  UNL     1      -0.137  -8.847  -7.952  1.00  0.00    -0.300 OA
BRANCH  22  23
HETATM   23  C22 UNL     1      -0.159  -7.724  -7.266  1.00  0.00     0.259 C 
HETATM   24  O7  UNL     1      -1.016  -7.681  -6.392  1.00  0.00    -0.265 OA
BRANCH  23  25
HETATM   25  C23 UNL     1       0.725  -6.540  -7.440  1.00  0.00     0.111 C 
BRANCH  25  26
HETATM   26  C24 UNL     1       1.945  -6.668  -6.582  1.00  0.00     0.013 C 
BRANCH  26  27
HETATM   27  C25 UNL     1       2.339  -5.393  -5.915  1.00  0.00    -0.022 C 
HETATM   28  C26 UNL     1       2.208  -4.193  -6.803  1.00  0.00     0.009 C 
HETATM   29  C27 UNL     1       3.789  -5.504  -5.482  1.00  0.00     0.009 C 
ENDBRANCH  26  27
ENDBRANCH  25  26
ENDBRANCH  23  25
ENDBRANCH  22  23
ENDBRANCH  21  22
BRANCH   1  30
HETATM   30  C5  UNL     1       0.888 -11.514  -9.177  1.00  0.00     0.040 C 
BRANCH  30  31
HETATM   31  C4  UNL     1       1.326 -12.437 -10.248  1.00  0.00    -0.024 C 
HETATM   32  C2  UNL     1       2.421 -13.210 -10.035  1.00  0.00    -0.091 C 
HETATM   33  C1  UNL     1       3.176 -13.139  -8.757  1.00  0.00     0.042 C 
HETATM   34  C3  UNL     1       2.868 -14.132 -11.089  1.00  0.00     0.042 C 
ENDBRANCH  30  31
ENDBRANCH   1  30
TORSDOF 7
ENDMDL
MODEL 3
REMARK VINA RESULT: -7.817109390      1.700      6.078
REMARK  7 active torsions:
REMARK  status: ('A' for Active; 'I' for Inactive)
REMARK    1  A    between atoms: C4_4  and  C5_5 
REMARK    2  A    between atoms: C5_5  and  C6_6 
REMARK    3  A    between atoms: C21_26  and  O6_27 
REMARK    4  A    between atoms: O6_27  and  C22_28 
REMARK    5  A    between atoms: C22_28  and  C23_30 
REMARK    6  A    between atoms: C23_30  and  C24_31 
REMARK    7  A    between atoms: C24_31  and  C25_32 
ROOT
HETATM    1  C6  UNL     1      -2.463  -9.718  -7.447  1.00  0.00    -0.000 C 
HETATM    2  C7  UNL     1      -1.822  -9.155  -6.154  1.00  0.00     0.019 C 
HETATM    3  C8  UNL     1      -3.636 -10.476  -6.922  1.00  0.00     0.013 C 
HETATM    4  C9  UNL     1      -3.407 -11.520  -5.871  1.00  0.00     0.011 C 
HETATM    5  C10 UNL     1      -3.054 -12.789  -6.529  1.00  0.00    -0.034 A 
HETATM    6  C11 UNL     1      -4.174 -13.357  -7.308  1.00  0.00     0.016 C 
HETATM    7  C12 UNL     1      -2.010 -13.753  -6.335  1.00  0.00    -0.003 A 
HETATM    8  C13 UNL     1      -1.901 -14.985  -7.230  1.00  0.00     0.011 C 
HETATM    9  C14 UNL     1      -1.657 -12.518  -6.956  1.00  0.00     0.031 A 
HETATM   10  C15 UNL     1      -1.665 -11.961  -8.271  1.00  0.00     0.179 C 
HETATM   11  O1  UNL     1      -2.853 -12.125  -9.036  1.00  0.00    -0.308 OA
HETATM   12  C16 UNL     1      -3.052 -11.077  -9.910  1.00  0.00     0.329 C 
HETATM   13  O2  UNL     1      -4.055 -10.834 -10.598  1.00  0.00    -0.259 OA
HETATM   14  C17 UNL     1      -1.752 -10.347  -9.792  1.00  0.00     0.324 C 
HETATM   15  O3  UNL     1      -0.867 -11.252 -10.448  1.00  0.00    -0.183 OA
HETATM   16  O4  UNL     1      -1.082 -11.066 -11.717  1.00  0.00    -0.198 OA
HETATM   17  C18 UNL     1      -1.216  -9.681 -11.807  1.00  0.00     0.194 C 
HETATM   18  C19 UNL     1       0.151  -9.114 -12.126  1.00  0.00     0.081 C 
HETATM   19  C20 UNL     1      -2.225  -9.322 -12.869  1.00  0.00     0.081 C 
HETATM   20  O5  UNL     1      -1.607  -9.281 -10.537  1.00  0.00    -0.303 OA
HETATM   21  C21 UNL     1      -1.491 -10.431  -8.334  1.00  0.00     0.174 C 
ENDROOT
BRANCH  21  22
HETATM   22  O6  UNL     1      -0.314  -9.917  -7.981  1.00  0.00    -0.300 OA
BRANCH  22  23
HETATM   23  C22 UNL     1       0.850  -9.489  -8.420  1.00  0.00     0.259 C 
HETATM   24  O7  UNL     1       1.613 -10.379  -8.779  1.00  0.00    -0.265 OA
BRANCH  23  25
HETATM   25  C23 UNL     1       1.318  -8.081  -8.522  1.00  0.00     0.111 C 
BRANCH  25  26
HETATM   26  C24 UNL     1       1.397  -7.457  -7.163  1.00  0.00     0.013 C 
BRANCH  26  27
HETATM   27  C25 UNL     1       2.359  -6.319  -7.087  1.00  0.00    -0.022 C 
HETATM   28  C26 UNL     1       3.794  -6.748  -7.141  1.00  0.00     0.009 C 
HETATM   29  C27 UNL     1       2.134  -5.584  -5.779  1.00  0.00     0.009 C 
ENDBRANCH  26  27
ENDBRANCH  25  26
ENDBRANCH  23  25
ENDBRANCH  22  23
ENDBRANCH  21  22
BRANCH   1  30
HETATM   30  C5  UNL     1      -3.038  -8.418  -7.985  1.00  0.00     0.040 C 
BRANCH  30  31
HETATM   31  C4  UNL     1      -2.257  -7.207  -7.646  1.00  0.00    -0.024 C 
HETATM   32  C2  UNL     1      -1.962  -6.324  -8.634  1.00  0.00    -0.091 C 
HETATM   33  C1  UNL     1      -2.408  -6.557 -10.033  1.00  0.00     0.042 C 
HETATM   34  C3  UNL     1      -1.188  -5.117  -8.314  1.00  0.00     0.042 C 
ENDBRANCH  30  31
ENDBRANCH   1  30
TORSDOF 7
ENDMDL
MODEL 4
REMARK VINA RESULT: -7.783505787      2.190      4.950
REMARK  7 active torsions:
REMARK  status: ('A' for Active; 'I' for Inactive)
REMARK    1  A    between atoms: C4_4  and  C5_5 
REMARK    2  A    between atoms: C5_5  and  C6_6 
REMARK    3  A    between atoms: C21_26  and  O6_27 
REMARK    4  A    between atoms: O6_27  and  C22_28 
REMARK    5  A    between atoms: C22_28  and  C23_30 
REMARK    6  A    between atoms: C23_30  and  C24_31 
REMARK    7  A    between atoms: C24_31  and  C25_32 
ROOT
HETATM    1  C6  UNL     1       0.231 -10.391 -10.197  1.00  0.00    -0.000 C 
HETATM    2  C7  UNL     1       0.911  -9.445 -11.217  1.00  0.00     0.019 C 
HETATM    3  C8  UNL     1       0.769 -11.726 -10.587  1.00  0.00     0.013 C 
HETATM    4  C9  UNL     1       0.614 -12.178 -12.007  1.00  0.00     0.011 C 
HETATM    5  C10 UNL     1      -0.703 -12.815 -12.164  1.00  0.00    -0.034 A 
HETATM    6  C11 UNL     1      -0.818 -14.081 -11.410  1.00  0.00     0.016 C 
HETATM    7  C12 UNL     1      -1.770 -12.674 -13.113  1.00  0.00    -0.003 A 
HETATM    8  C13 UNL     1      -3.057 -13.483 -12.977  1.00  0.00     0.011 C 
HETATM    9  C14 UNL     1      -1.602 -11.633 -12.153  1.00  0.00     0.031 A 
HETATM   10  C15 UNL     1      -2.011 -11.362 -10.811  1.00  0.00     0.179 C 
HETATM   11  O1  UNL     1      -1.841 -12.407  -9.861  1.00  0.00    -0.308 OA
HETATM   12  C16 UNL     1      -1.603 -11.917  -8.594  1.00  0.00     0.329 C 
HETATM   13  O2  UNL     1      -1.260 -12.547  -7.582  1.00  0.00    -0.259 OA
HETATM   14  C17 UNL     1      -1.870 -10.458  -8.790  1.00  0.00     0.324 C 
HETATM   15  O3  UNL     1      -3.286 -10.459  -8.958  1.00  0.00    -0.183 OA
HETATM   16  O4  UNL     1      -3.764 -10.586  -7.755  1.00  0.00    -0.198 OA
HETATM   17  C18 UNL     1      -2.927  -9.765  -7.002  1.00  0.00     0.194 C 
HETATM   18  C19 UNL     1      -3.574  -8.398  -6.933  1.00  0.00     0.081 C 
HETATM   19  C20 UNL     1      -2.723 -10.349  -5.626  1.00  0.00     0.081 C 
HETATM   20  O5  UNL     1      -1.751  -9.693  -7.735  1.00  0.00    -0.303 OA
HETATM   21  C21 UNL     1      -1.254 -10.215 -10.116  1.00  0.00     0.174 C 
ENDROOT
BRANCH  21  22
HETATM   22  O6  UNL     1      -1.443  -8.974 -10.562  1.00  0.00    -0.300 OA
BRANCH  22  23
HETATM   23  C22 UNL     1      -2.277  -7.957 -10.598  1.00  0.00     0.259 C 
HETATM   24  O7  UNL     1      -3.129  -8.031 -11.476  1.00  0.00    -0.265 OA
BRANCH  23  25
HETATM   25  C23 UNL     1      -2.291  -6.766  -9.706  1.00  0.00     0.111 C 
BRANCH  25  26
HETATM   26  C24 UNL     1      -0.910  -6.469  -9.210  1.00  0.00     0.013 C 
BRANCH  26  27
HETATM   27  C25 UNL     1      -0.890  -5.631  -7.976  1.00  0.00    -0.022 C 
HETATM   28  C26 UNL     1       0.182  -4.584  -7.984  1.00  0.00     0.009 C 
HETATM   29  C27 UNL     1      -0.656  -6.539  -6.782  1.00  0.00     0.009 C 
ENDBRANCH  26  27
ENDBRANCH  25  26
ENDBRANCH  23  25
ENDBRANCH  22  23
ENDBRANCH  21  22
BRANCH   1  30
HETATM   30  C5  UNL     1       1.025  -9.985  -8.966  1.00  0.00     0.040 C 
BRANCH  30  31
HETATM   31  C4  UNL     1       2.478  -9.817  -9.193  1.00  0.00    -0.024 C 
HETATM   32  C2  UNL     1       3.114  -8.774  -8.603  1.00  0.00    -0.091 C 
HETATM   33  C1  UNL     1       2.377  -7.811  -7.743  1.00  0.00     0.042 C 
HETATM   34  C3  UNL     1       4.556  -8.593  -8.818  1.00  0.00     0.042 C 
ENDBRANCH  30  31
ENDBRANCH   1  30
TORSDOF 7
ENDMDL
MODEL 5
REMARK VINA RESULT: -7.777313413      1.451      1.984
REMARK  7 active torsions:
REMARK  status: ('A' for Active; 'I' for Inactive)
REMARK    1  A    between atoms: C4_4  and  C5_5 
REMARK    2  A    between atoms: C5_5  and  C6_6 
REMARK    3  A    between atoms: C21_26  and  O6_27 
REMARK    4  A    between atoms: O6_27  and  C22_28 
REMARK    5  A    between atoms: C22_28  and  C23_30 
REMARK    6  A    between atoms: C23_30  and  C24_31 
REMARK    7  A    between atoms: C24_31  and  C25_32 
ROOT
HETATM    1  C6  UNL     1      -1.420  -8.559  -8.742  1.00  0.00    -0.000 C 
HETATM    2  C7  UNL     1      -2.658  -8.193  -7.886  1.00  0.00     0.019 C 
HETATM    3  C8  UNL     1      -1.112  -7.272  -9.429  1.00  0.00     0.013 C 
HETATM    4  C9  UNL     1      -2.196  -6.596 -10.214  1.00  0.00     0.011 C 
HETATM    5  C10 UNL     1      -2.221  -7.159 -11.574  1.00  0.00    -0.034 A 
HETATM    6  C11 UNL     1      -1.008  -6.827 -12.350  1.00  0.00     0.016 C 
HETATM    7  C12 UNL     1      -3.261  -7.667 -12.421  1.00  0.00    -0.003 A 
HETATM    8  C13 UNL     1      -2.946  -8.222 -13.807  1.00  0.00     0.011 C 
HETATM    9  C14 UNL     1      -2.844  -8.485 -11.330  1.00  0.00     0.031 A 
HETATM   10  C15 UNL     1      -1.821  -9.446 -11.066  1.00  0.00     0.179 C 
HETATM   11  O1  UNL     1      -0.495  -9.101 -11.448  1.00  0.00    -0.308 OA
HETATM   12  C16 UNL     1       0.446  -9.677 -10.621  1.00  0.00     0.329 C 
HETATM   13  O2  UNL     1       1.666  -9.457 -10.580  1.00  0.00    -0.259 OA
HETATM   14  C17 UNL     1      -0.403 -10.610  -9.817  1.00  0.00     0.324 C 
HETATM   15  O3  UNL     1      -0.730 -11.595 -10.795  1.00  0.00    -0.183 OA
HETATM   16  O4  UNL     1       0.335 -12.334 -10.894  1.00  0.00    -0.198 OA
HETATM   17  C18 UNL     1       0.749 -12.455  -9.568  1.00  0.00     0.194 C 
HETATM   18  C19 UNL     1       0.128 -13.719  -9.013  1.00  0.00     0.081 C 
HETATM   19  C20 UNL     1       2.255 -12.502  -9.494  1.00  0.00     0.081 C 
HETATM   20  O5  UNL     1       0.213 -11.347  -8.928  1.00  0.00    -0.303 OA
HETATM   21  C21 UNL     1      -1.612  -9.786  -9.577  1.00  0.00     0.174 C 
ENDROOT
BRANCH  21  22
HETATM   22  O6  UNL     1      -2.578 -10.446  -8.941  1.00  0.00    -0.300 OA
BRANCH  22  23
HETATM   23  C22 UNL     1      -3.462 -11.417  -9.033  1.00  0.00     0.259 C 
HETATM   24  O7  UNL     1      -4.506 -11.100  -9.590  1.00  0.00    -0.265 OA
BRANCH  23  25
HETATM   25  C23 UNL     1      -3.324 -12.816  -8.546  1.00  0.00     0.111 C 
BRANCH  25  26
HETATM   26  C24 UNL     1      -3.375 -12.855  -7.050  1.00  0.00     0.013 C 
BRANCH  26  27
HETATM   27  C25 UNL     1      -2.111 -12.401  -6.400  1.00  0.00    -0.022 C 
HETATM   28  C26 UNL     1      -1.445 -13.466  -5.583  1.00  0.00     0.009 C 
HETATM   29  C27 UNL     1      -2.432 -11.234  -5.485  1.00  0.00     0.009 C 
ENDBRANCH  26  27
ENDBRANCH  25  26
ENDBRANCH  23  25
ENDBRANCH  22  23
ENDBRANCH  21  22
BRANCH   1  30
HETATM   30  C5  UNL     1      -0.404  -8.662  -7.616  1.00  0.00     0.040 C 
BRANCH  30  31
HETATM   31  C4  UNL     1      -0.056  -7.375  -6.974  1.00  0.00    -0.024 C 
HETATM   32  C2  UNL     1       1.241  -6.978  -6.970  1.00  0.00    -0.091 C 
HETATM   33  C1  UNL     1       2.303  -7.810  -7.594  1.00  0.00     0.042 C 
HETATM   34  C3  UNL     1       1.602  -5.702  -6.337  1.00  0.00     0.042 C 
ENDBRANCH  30  31
ENDBRANCH   1  30
TORSDOF 7
ENDMDL
