MODEL 1
REMARK VINA RESULT: -6.835389840      0.000      0.000
REMARK  9 active torsions:
REMARK  status: ('A' for Active; 'I' for Inactive)
REMARK    1  A    between atoms: C2_2  and  C3_3 
REMARK    2  A    between atoms: C3_3  and  C4_4 
REMARK    3  A    between atoms: C4_4  and  C5_5 
REMARK    4  A    between atoms: C5_5  and  C6_6 
REMARK    5  A    between atoms: C13_14  and  C14_15 
REMARK    6  A    between atoms: C14_15  and  C16_17 
REMARK    7  A    between atoms: C16_17  and  O3_19 
REMARK    8  A    between atoms: O3_19  and  C17_20 
REMARK    9  A    between atoms: C26_30  and  O5_32 
ROOT
HETATM    1  C4  UNL     1      -4.625 -10.788 -12.767  1.00  0.00     0.128 C 
HETATM    2  O1  UNL     1      -3.888 -10.486 -11.680  1.00  0.00    -0.360 OA
HETATM    3  C10 UNL     1      -2.755 -11.124 -11.328  1.00  0.00     0.070 C 
HETATM    4  C11 UNL     1      -3.177 -12.174 -10.288  1.00  0.00     0.047 C 
HETATM    5  C12 UNL     1      -1.815 -10.137 -10.667  1.00  0.00     0.033 C 
HETATM    6  C13 UNL     1      -1.821 -10.157  -9.158  1.00  0.00     0.006 C 
HETATM    7  C19 UNL     1      -0.398 -10.549  -8.825  1.00  0.00     0.007 C 
HETATM    8  C20 UNL     1       0.367  -9.745  -9.850  1.00  0.00     0.010 C 
HETATM    9  C21 UNL     1      -0.408 -10.135 -11.122  1.00  0.00    -0.037 C 
HETATM   10  C22 UNL     1      -0.079  -8.986 -12.090  1.00  0.00     0.015 C 
HETATM   11  C23 UNL     1       0.174 -11.429 -11.556  1.00  0.00     0.010 C 
HETATM   12  C24 UNL     1      -0.789 -12.475 -12.003  1.00  0.00     0.012 C 
HETATM   13  C25 UNL     1      -2.023 -11.754 -12.460  1.00  0.00     0.062 C 
HETATM   14  C26 UNL     1      -2.800 -12.540 -13.441  1.00  0.00     0.124 C 
HETATM   15  C27 UNL     1      -3.071 -13.968 -13.116  1.00  0.00     0.055 C 
HETATM   16  C28 UNL     1      -4.056 -11.738 -13.715  1.00  0.00     0.195 C 
HETATM   17  O6  UNL     1      -4.520 -11.987 -14.815  1.00  0.00    -0.291 OA
ENDROOT
BRANCH   1  18
HETATM   18  C3  UNL     1      -5.099  -9.473 -13.337  1.00  0.00     0.046 C 
BRANCH  18  19
HETATM   19  C2  UNL     1      -4.165  -8.611 -14.055  1.00  0.00    -0.001 C 
HETATM   20  C1  UNL     1      -3.311  -7.683 -13.227  1.00  0.00     0.005 C 
ENDBRANCH  18  19
ENDBRANCH   1  18
BRANCH   1  21
HETATM   21  C5  UNL     1      -5.952 -11.361 -12.176  1.00  0.00     0.073 C 
BRANCH  21  22
HETATM   22  C6  UNL     1      -7.127 -10.575 -12.544  1.00  0.00    -0.021 C 
HETATM   23  C7  UNL     1      -8.344 -10.755 -12.043  1.00  0.00    -0.091 C 
HETATM   24  C8  UNL     1      -8.640 -11.803 -11.026  1.00  0.00     0.042 C 
HETATM   25  C9  UNL     1      -9.447  -9.882 -12.507  1.00  0.00     0.042 C 
ENDBRANCH  21  22
ENDBRANCH   1  21
BRANCH  14  26
HETATM   26  O5  UNL     1      -2.013 -12.602 -14.624  1.00  0.00    -0.382 OA
ATOM     27  H5  UNL     1      -1.843 -13.522 -14.788  1.00  0.00     0.211 HD
ENDBRANCH  14  26
BRANCH   6  28
HETATM   28  C14 UNL     1      -2.072  -8.800  -8.567  1.00  0.00     0.086 C 
HETATM   29  C15 UNL     1      -2.429  -7.783  -9.649  1.00  0.00     0.021 C 
BRANCH  28  30
HETATM   30  C16 UNL     1      -3.241  -8.861  -7.661  1.00  0.00     0.270 C 
HETATM   31  O2  UNL     1      -3.324  -7.958  -6.754  1.00  0.00    -0.264 OA
BRANCH  30  32
HETATM   32  O3  UNL     1      -4.252  -9.780  -7.684  1.00  0.00    -0.245 OA
BRANCH  32  33
HETATM   33  C17 UNL     1      -4.385 -10.818  -6.777  1.00  0.00     0.262 C 
HETATM   34  C18 UNL     1      -3.184 -11.303  -6.077  1.00  0.00     0.126 C 
HETATM   35  O4  UNL     1      -5.534 -11.289  -6.603  1.00  0.00    -0.265 OA
ENDBRANCH  32  33
ENDBRANCH  30  32
ENDBRANCH  28  30
ENDBRANCH   6  28
TORSDOF 9
ENDMDL
MODEL 2
REMARK VINA RESULT: -6.730355553      1.372      1.520
REMARK  9 active torsions:
REMARK  status: ('A' for Active; 'I' for Inactive)
REMARK    1  A    between atoms: C2_2  and  C3_3 
REMARK    2  A    between atoms: C3_3  and  C4_4 
REMARK    3  A    between atoms: C4_4  and  C5_5 
REMARK    4  A    between atoms: C5_5  and  C6_6 
REMARK    5  A    between atoms: C13_14  and  C14_15 
REMARK    6  A    between atoms: C14_15  and  C16_17 
REMARK    7  A    between atoms: C16_17  and  O3_19 
REMARK    8  A    between atoms: O3_19  and  C17_20 
REMARK    9  A    between atoms: C26_30  and  O5_32 
ROOT
HETATM    1  C4  UNL     1      -3.930 -10.189 -13.080  1.00  0.00     0.128 C 
HETATM    2  O1  UNL     1      -3.459 -10.173 -11.817  1.00  0.00    -0.360 OA
HETATM    3  C10 UNL     1      -2.717 -11.155 -11.270  1.00  0.00     0.070 C 
HETATM    4  C11 UNL     1      -3.708 -12.038 -10.493  1.00  0.00     0.047 C 
HETATM    5  C12 UNL     1      -1.736 -10.548 -10.289  1.00  0.00     0.033 C 
HETATM    6  C13 UNL     1      -2.157 -10.606  -8.841  1.00  0.00     0.006 C 
HETATM    7  C19 UNL     1      -1.070 -11.449  -8.212  1.00  0.00     0.007 C 
HETATM    8  C20 UNL     1       0.153 -10.912  -8.917  1.00  0.00     0.010 C 
HETATM    9  C21 UNL     1      -0.329 -10.994 -10.378  1.00  0.00    -0.037 C 
HETATM   10  C22 UNL     1       0.587  -9.990 -11.097  1.00  0.00     0.015 C 
HETATM   11  C23 UNL     1      -0.079 -12.394 -10.797  1.00  0.00     0.010 C 
HETATM   12  C24 UNL     1      -1.157 -13.056 -11.585  1.00  0.00     0.012 C 
HETATM   13  C25 UNL     1      -1.937 -11.959 -12.249  1.00  0.00     0.062 C 
HETATM   14  C26 UNL     1      -2.622 -12.422 -13.474  1.00  0.00     0.124 C 
HETATM   15  C27 UNL     1      -3.396 -13.692 -13.389  1.00  0.00     0.055 C 
HETATM   16  C28 UNL     1      -3.446 -11.246 -13.958  1.00  0.00     0.195 C 
HETATM   17  O6  UNL     1      -3.647 -11.301 -15.160  1.00  0.00    -0.291 OA
ENDROOT
BRANCH   1  18
HETATM   18  C3  UNL     1      -3.803  -8.776 -13.597  1.00  0.00     0.046 C 
BRANCH  18  19
HETATM   19  C2  UNL     1      -3.130  -7.762 -12.791  1.00  0.00    -0.001 C 
HETATM   20  C1  UNL     1      -1.625  -7.704 -12.875  1.00  0.00     0.005 C 
ENDBRANCH  18  19
ENDBRANCH   1  18
BRANCH   1  21
HETATM   21  C5  UNL     1      -5.476 -10.313 -12.905  1.00  0.00     0.073 C 
BRANCH  21  22
HETATM   22  C6  UNL     1      -6.225  -9.429 -13.796  1.00  0.00    -0.021 C 
HETATM   23  C7  UNL     1      -7.150  -9.832 -14.659  1.00  0.00    -0.091 C 
HETATM   24  C8  UNL     1      -7.529 -11.266 -14.809  1.00  0.00     0.042 C 
HETATM   25  C9  UNL     1      -7.831  -8.824 -15.503  1.00  0.00     0.042 C 
ENDBRANCH  21  22
ENDBRANCH   1  21
BRANCH  14  26
HETATM   26  O5  UNL     1      -1.602 -12.706 -14.424  1.00  0.00    -0.382 OA
ATOM     27  H5  UNL     1      -1.511 -13.651 -14.449  1.00  0.00     0.211 HD
ENDBRANCH  14  26
BRANCH   6  28
HETATM   28  C14 UNL     1      -2.130  -9.257  -8.181  1.00  0.00     0.086 C 
HETATM   29  C15 UNL     1      -2.353  -8.139  -9.198  1.00  0.00     0.021 C 
BRANCH  28  30
HETATM   30  C16 UNL     1      -3.241  -9.156  -7.210  1.00  0.00     0.270 C 
HETATM   31  O2  UNL     1      -3.662  -7.978  -6.924  1.00  0.00    -0.264 OA
BRANCH  30  32
HETATM   32  O3  UNL     1      -3.878 -10.187  -6.579  1.00  0.00    -0.245 OA
BRANCH  32  33
HETATM   33  C17 UNL     1      -4.984 -10.849  -7.085  1.00  0.00     0.262 C 
HETATM   34  C18 UNL     1      -5.407 -12.108  -6.449  1.00  0.00     0.126 C 
HETATM   35  O4  UNL     1      -5.567 -10.332  -8.067  1.00  0.00    -0.265 OA
ENDBRANCH  32  33
ENDBRANCH  30  32
ENDBRANCH  28  30
ENDBRANCH   6  28
TORSDOF 9
ENDMDL
MODEL 3
REMARK VINA RESULT: -6.728661247      2.637      5.705
REMARK  9 active torsions:
REMARK  status: ('A' for Active; 'I' for Inactive)
REMARK    1  A    between atoms: C2_2  and  C3_3 
REMARK    2  A    between atoms: C3_3  and  C4_4 
REMARK    3  A    between atoms: C4_4  and  C5_5 
REMARK    4  A    between atoms: C5_5  and  C6_6 
REMARK    5  A    between atoms: C13_14  and  C14_15 
REMARK    6  A    between atoms: C14_15  and  C16_17 
REMARK    7  A    between atoms: C16_17  and  O3_19 
REMARK    8  A    between atoms: O3_19  and  C17_20 
REMARK    9  A    between atoms: C26_30  and  O5_32 
ROOT
HETATM    1  C4  UNL     1      -1.131 -12.726  -9.378  1.00  0.00     0.128 C 
HETATM    2  O1  UNL     1      -1.363 -11.433  -9.677  1.00  0.00    -0.360 OA
HETATM    3  C10 UNL     1      -1.933 -10.548  -8.836  1.00  0.00     0.070 C 
HETATM    4  C11 UNL     1      -3.422 -10.516  -9.215  1.00  0.00     0.047 C 
HETATM    5  C12 UNL     1      -1.339  -9.176  -9.082  1.00  0.00     0.033 C 
HETATM    6  C13 UNL     1      -2.167  -8.268  -9.959  1.00  0.00     0.006 C 
HETATM    7  C19 UNL     1      -2.482  -7.112  -9.035  1.00  0.00     0.007 C 
HETATM    8  C20 UNL     1      -1.161  -6.946  -8.322  1.00  0.00     0.010 C 
HETATM    9  C21 UNL     1      -0.907  -8.405  -7.897  1.00  0.00    -0.037 C 
HETATM   10  C22 UNL     1       0.613  -8.436  -7.668  1.00  0.00     0.015 C 
HETATM   11  C23 UNL     1      -1.676  -8.589  -6.642  1.00  0.00     0.010 C 
HETATM   12  C24 UNL     1      -2.435  -9.863  -6.507  1.00  0.00     0.012 C 
HETATM   13  C25 UNL     1      -1.754 -10.864  -7.393  1.00  0.00     0.062 C 
HETATM   14  C26 UNL     1      -1.987 -12.254  -6.950  1.00  0.00     0.124 C 
HETATM   15  C27 UNL     1      -3.387 -12.647  -6.630  1.00  0.00     0.055 C 
HETATM   16  C28 UNL     1      -1.338 -13.138  -7.995  1.00  0.00     0.195 C 
HETATM   17  O6  UNL     1      -1.017 -14.221  -7.535  1.00  0.00    -0.291 OA
ENDROOT
BRANCH   1  18
HETATM   18  C3  UNL     1       0.208 -13.068  -9.986  1.00  0.00     0.046 C 
BRANCH  18  19
HETATM   19  C2  UNL     1       1.131 -12.002 -10.363  1.00  0.00    -0.001 C 
HETATM   20  C1  UNL     1       2.079 -11.505  -9.299  1.00  0.00     0.005 C 
ENDBRANCH  18  19
ENDBRANCH   1  18
BRANCH   1  21
HETATM   21  C5  UNL     1      -2.102 -13.511 -10.315  1.00  0.00     0.073 C 
BRANCH  21  22
HETATM   22  C6  UNL     1      -2.041 -13.063 -11.705  1.00  0.00    -0.021 C 
HETATM   23  C7  UNL     1      -3.090 -12.965 -12.514  1.00  0.00    -0.091 C 
HETATM   24  C8  UNL     1      -4.471 -13.312 -12.074  1.00  0.00     0.042 C 
HETATM   25  C9  UNL     1      -2.882 -12.495 -13.903  1.00  0.00     0.042 C 
ENDBRANCH  21  22
ENDBRANCH   1  21
BRANCH  14  26
HETATM   26  O5  UNL     1      -1.299 -12.405  -5.713  1.00  0.00    -0.382 OA
ATOM     27  H5  UNL     1      -0.559 -11.810  -5.740  1.00  0.00     0.211 HD
ENDBRANCH  14  26
BRANCH   6  28
HETATM   28  C14 UNL     1      -1.386  -7.726 -11.121  1.00  0.00     0.086 C 
HETATM   29  C15 UNL     1      -0.685  -8.846 -11.887  1.00  0.00     0.021 C 
BRANCH  28  30
HETATM   30  C16 UNL     1      -2.308  -7.085 -12.084  1.00  0.00     0.270 C 
HETATM   31  O2  UNL     1      -1.846  -6.106 -12.772  1.00  0.00    -0.264 OA
BRANCH  30  32
HETATM   32  O3  UNL     1      -3.609  -7.425 -12.327  1.00  0.00    -0.245 OA
BRANCH  32  33
HETATM   33  C17 UNL     1      -4.003  -8.474 -13.141  1.00  0.00     0.262 C 
HETATM   34  C18 UNL     1      -4.102  -8.245 -14.592  1.00  0.00     0.126 C 
HETATM   35  O4  UNL     1      -4.255  -9.571 -12.588  1.00  0.00    -0.265 OA
ENDBRANCH  32  33
ENDBRANCH  30  32
ENDBRANCH  28  30
ENDBRANCH   6  28
TORSDOF 9
ENDMDL
MODEL 4
REMARK VINA RESULT: -6.664297419      2.021      6.543
REMARK  9 active torsions:
REMARK  status: ('A' for Active; 'I' for Inactive)
REMARK    1  A    between atoms: C2_2  and  C3_3 
REMARK    2  A    between atoms: C3_3  and  C4_4 
REMARK    3  A    between atoms: C4_4  and  C5_5 
REMARK    4  A    between atoms: C5_5  and  C6_6 
REMARK    5  A    between atoms: C13_14  and  C14_15 
REMARK    6  A    between atoms: C14_15  and  C16_17 
REMARK    7  A    between atoms: C16_17  and  O3_19 
REMARK    8  A    between atoms: O3_19  and  C17_20 
REMARK    9  A    between atoms: C26_30  and  O5_32 
ROOT
HETATM    1  C4  UNL     1      -2.178  -9.312  -8.820  1.00  0.00     0.128 C 
HETATM    2  O1  UNL     1      -2.763  -9.887  -9.888  1.00  0.00    -0.360 OA
HETATM    3  C10 UNL     1      -2.097 -10.550 -10.854  1.00  0.00     0.070 C 
HETATM    4  C11 UNL     1      -1.887  -9.531 -11.986  1.00  0.00     0.047 C 
HETATM    5  C12 UNL     1      -2.966 -11.678 -11.371  1.00  0.00     0.033 C 
HETATM    6  C13 UNL     1      -3.713 -11.378 -12.648  1.00  0.00     0.006 C 
HETATM    7  C19 UNL     1      -3.155 -12.405 -13.609  1.00  0.00     0.007 C 
HETATM    8  C20 UNL     1      -3.073 -13.620 -12.713  1.00  0.00     0.010 C 
HETATM    9  C21 UNL     1      -2.334 -13.008 -11.508  1.00  0.00    -0.037 C 
HETATM   10  C22 UNL     1      -2.687 -13.973 -10.364  1.00  0.00     0.015 C 
HETATM   11  C23 UNL     1      -0.895 -13.050 -11.866  1.00  0.00     0.010 C 
HETATM   12  C24 UNL     1      -0.093 -11.837 -11.543  1.00  0.00     0.012 C 
HETATM   13  C25 UNL     1      -0.803 -11.140 -10.419  1.00  0.00     0.062 C 
HETATM   14  C26 UNL     1       0.110 -10.302  -9.614  1.00  0.00     0.124 C 
HETATM   15  C27 UNL     1       1.032  -9.391 -10.349  1.00  0.00     0.055 C 
HETATM   16  C28 UNL     1      -0.764  -9.588  -8.604  1.00  0.00     0.195 C 
HETATM   17  O6  UNL     1      -0.138  -9.279  -7.604  1.00  0.00    -0.291 OA
ENDROOT
BRANCH   1  18
HETATM   18  C3  UNL     1      -3.097  -9.563  -7.648  1.00  0.00     0.046 C 
BRANCH  18  19
HETATM   19  C2  UNL     1      -3.188 -10.898  -7.066  1.00  0.00    -0.001 C 
HETATM   20  C1  UNL     1      -2.562 -11.101  -5.708  1.00  0.00     0.005 C 
ENDBRANCH  18  19
ENDBRANCH   1  18
BRANCH   1  21
HETATM   21  C5  UNL     1      -2.390  -7.782  -9.052  1.00  0.00     0.073 C 
BRANCH  21  22
HETATM   22  C6  UNL     1      -1.423  -6.956  -8.331  1.00  0.00    -0.021 C 
HETATM   23  C7  UNL     1      -0.880  -5.840  -8.805  1.00  0.00    -0.091 C 
HETATM   24  C8  UNL     1      -1.213  -5.303 -10.155  1.00  0.00     0.042 C 
HETATM   25  C9  UNL     1       0.088  -5.101  -7.963  1.00  0.00     0.042 C 
ENDBRANCH  21  22
ENDBRANCH   1  21
BRANCH  14  26
HETATM   26  O5  UNL     1       0.984 -11.195  -8.933  1.00  0.00    -0.382 OA
ATOM     27  H5  UNL     1       1.352 -10.710  -8.204  1.00  0.00     0.211 HD
ENDBRANCH  14  26
BRANCH   6  28
HETATM   28  C14 UNL     1      -5.188 -11.625 -12.520  1.00  0.00     0.086 C 
HETATM   29  C15 UNL     1      -5.602 -11.758 -11.056  1.00  0.00     0.021 C 
BRANCH  28  30
HETATM   30  C16 UNL     1      -5.935 -10.463 -13.053  1.00  0.00     0.270 C 
HETATM   31  O2  UNL     1      -7.176 -10.641 -13.323  1.00  0.00    -0.264 OA
BRANCH  30  32
HETATM   32  O3  UNL     1      -5.445  -9.210 -13.290  1.00  0.00    -0.245 OA
BRANCH  32  33
HETATM   33  C17 UNL     1      -5.254  -8.671 -14.551  1.00  0.00     0.262 C 
HETATM   34  C18 UNL     1      -6.218  -7.673 -15.046  1.00  0.00     0.126 C 
HETATM   35  O4  UNL     1      -4.261  -9.067 -15.205  1.00  0.00    -0.265 OA
ENDBRANCH  32  33
ENDBRANCH  30  32
ENDBRANCH  28  30
ENDBRANCH   6  28
TORSDOF 9
ENDMDL
MODEL 5
REMARK VINA RESULT: -6.611977645      2.453      5.788
REMARK  9 active torsions:
REMARK  status: ('A' for Active; 'I' for Inactive)
REMARK    1  A    between atoms: C2_2  and  C3_3 
REMARK    2  A    between atoms: C3_3  and  C4_4 
REMARK    3  A    between atoms: C4_4  and  C5_5 
REMARK    4  A    between atoms: C5_5  and  C6_6 
REMARK    5  A    between atoms: C13_14  and  C14_15 
REMARK    6  A    between atoms: C14_15  and  C16_17 
REMARK    7  A    between atoms: C16_17  and  O3_19 
REMARK    8  A    between atoms: O3_19  and  C17_20 
REMARK    9  A    between atoms: C26_30  and  O5_32 
ROOT
HETATM    1  C4  UNL     1      -1.905  -8.938  -9.663  1.00  0.00     0.128 C 
HETATM    2  O1  UNL     1      -2.728  -9.960  -9.358  1.00  0.00    -0.360 OA
HETATM    3  C10 UNL     1      -2.332 -11.241  -9.222  1.00  0.00     0.070 C 
HETATM    4  C11 UNL     1      -2.615 -11.908 -10.578  1.00  0.00     0.047 C 
HETATM    5  C12 UNL     1      -3.182 -11.914  -8.164  1.00  0.00     0.033 C 
HETATM    6  C13 UNL     1      -4.327 -12.743  -8.692  1.00  0.00     0.006 C 
HETATM    7  C19 UNL     1      -3.989 -14.132  -8.196  1.00  0.00     0.007 C 
HETATM    8  C20 UNL     1      -3.484 -13.824  -6.806  1.00  0.00     0.010 C 
HETATM    9  C21 UNL     1      -2.477 -12.706  -7.133  1.00  0.00    -0.037 C 
HETATM   10  C22 UNL     1      -2.331 -11.971  -5.791  1.00  0.00     0.015 C 
HETATM   11  C23 UNL     1      -1.232 -13.404  -7.539  1.00  0.00     0.010 C 
HETATM   12  C24 UNL     1      -0.517 -12.854  -8.725  1.00  0.00     0.012 C 
HETATM   13  C25 UNL     1      -0.907 -11.409  -8.830  1.00  0.00     0.062 C 
HETATM   14  C26 UNL     1       0.110 -10.604  -9.536  1.00  0.00     0.124 C 
HETATM   15  C27 UNL     1       0.636 -11.139 -10.823  1.00  0.00     0.055 C 
HETATM   16  C28 UNL     1      -0.474  -9.211  -9.658  1.00  0.00     0.195 C 
HETATM   17  O6  UNL     1       0.398  -8.363  -9.751  1.00  0.00    -0.291 OA
ENDROOT
BRANCH   1  18
HETATM   18  C3  UNL     1      -2.367  -7.762  -8.836  1.00  0.00     0.046 C 
BRANCH  18  19
HETATM   19  C2  UNL     1      -2.806  -7.966  -7.459  1.00  0.00    -0.001 C 
HETATM   20  C1  UNL     1      -1.745  -8.303  -6.441  1.00  0.00     0.005 C 
ENDBRANCH  18  19
ENDBRANCH   1  18
BRANCH   1  21
HETATM   21  C5  UNL     1      -2.357  -8.503 -11.093  1.00  0.00     0.073 C 
BRANCH  21  22
HETATM   22  C6  UNL     1      -2.149  -7.080 -11.349  1.00  0.00    -0.021 C 
HETATM   23  C7  UNL     1      -1.307  -6.589 -12.250  1.00  0.00    -0.091 C 
HETATM   24  C8  UNL     1      -0.467  -7.465 -13.116  1.00  0.00     0.042 C 
HETATM   25  C9  UNL     1      -1.197  -5.120 -12.405  1.00  0.00     0.042 C 
ENDBRANCH  21  22
ENDBRANCH   1  21
BRANCH  14  26
HETATM   26  O5  UNL     1       1.253 -10.563  -8.691  1.00  0.00    -0.382 OA
ATOM     27  H5  UNL     1       1.178 -11.302  -8.098  1.00  0.00     0.211 HD
ENDBRANCH  14  26
BRANCH   6  28
HETATM   28  C14 UNL     1      -5.646 -12.351  -8.090  1.00  0.00     0.086 C 
HETATM   29  C15 UNL     1      -5.556 -10.989  -7.403  1.00  0.00     0.021 C 
BRANCH  28  30
HETATM   30  C16 UNL     1      -6.657 -12.204  -9.160  1.00  0.00     0.270 C 
HETATM   31  O2  UNL     1      -7.582 -13.091  -9.215  1.00  0.00    -0.264 OA
BRANCH  30  32
HETATM   32  O3  UNL     1      -6.718 -11.218 -10.105  1.00  0.00    -0.245 OA
BRANCH  32  33
HETATM   33  C17 UNL     1      -6.955 -11.439 -11.451  1.00  0.00     0.262 C 
HETATM   34  C18 UNL     1      -5.974 -12.222 -12.222  1.00  0.00     0.126 C 
HETATM   35  O4  UNL     1      -8.003 -10.955 -11.941  1.00  0.00    -0.265 OA
ENDBRANCH  32  33
ENDBRANCH  30  32
ENDBRANCH  28  30
ENDBRANCH   6  28
TORSDOF 9
ENDMDL
