MODEL 1
REMARK VINA RESULT: -9.075946173      0.000      0.000
REMARK  8 active torsions:
REMARK  status: ('A' for Active; 'I' for Inactive)
REMARK    1  A    between atoms: C8_10  and  C10_12 
REMARK    2  A    between atoms: C15_19  and  C16_20 
REMARK    3  A    between atoms: C16_20  and  C17_21 
REMARK    4  A    between atoms: C17_21  and  C18_22 
REMARK    5  A    between atoms: C18_22  and  C19_23 
REMARK    6  A    between atoms: C19_23  and  C20_24 
REMARK    7  A    between atoms: C20_24  and  O6_26 
REMARK    8  A    between atoms: O6_26  and  C21_27 
ROOT
HETATM    1  C1  UNL     1      -4.678 -12.344  -6.639  1.00  0.00     0.025 C 
HETATM    2  C2  UNL     1      -3.527 -11.756  -6.914  1.00  0.00     0.014 C 
HETATM    3  C3  UNL     1      -2.218 -12.102  -6.328  1.00  0.00     0.289 C 
HETATM    4  O1  UNL     1      -2.012 -13.004  -5.472  1.00  0.00    -0.260 OA
HETATM    5  O2  UNL     1      -1.282 -11.230  -6.919  1.00  0.00    -0.311 OA
HETATM    6  C4  UNL     1      -1.976 -10.068  -7.231  1.00  0.00     0.145 C 
HETATM    7  C5  UNL     1      -3.275 -10.635  -7.852  1.00  0.00     0.054 C 
HETATM    8  C6  UNL     1      -3.003 -11.179  -9.214  1.00  0.00     0.013 C 
HETATM    9  C7  UNL     1      -2.538 -10.008 -10.058  1.00  0.00     0.011 C 
HETATM   10  C8  UNL     1      -1.190  -9.562  -9.552  1.00  0.00    -0.028 C 
HETATM   11  C9  UNL     1      -0.188 -10.683  -9.703  1.00  0.00     0.016 C 
HETATM   12  C15 UNL     1      -1.331  -9.087  -8.113  1.00  0.00     0.025 C 
ENDROOT
BRANCH  12  13
HETATM   13  C16 UNL     1      -0.043  -8.539  -7.644  1.00  0.00     0.008 C 
BRANCH  13  14
HETATM   14  C17 UNL     1       0.049  -7.265  -6.917  1.00  0.00     0.001 C 
BRANCH  14  15
HETATM   15  C18 UNL     1       1.340  -6.730  -6.502  1.00  0.00     0.010 C 
BRANCH  15  16
HETATM   16  C19 UNL     1       1.512  -5.294  -7.016  1.00  0.00     0.111 C 
BRANCH  16  17
HETATM   17  C20 UNL     1       2.759  -4.674  -6.524  1.00  0.00     0.259 C 
HETATM   18  O5  UNL     1       2.819  -3.410  -6.457  1.00  0.00    -0.265 OA
BRANCH  17  19
HETATM   19  O6  UNL     1       3.857  -5.418  -6.136  1.00  0.00    -0.316 OA
BRANCH  19  20
HETATM   20  C21 UNL     1       5.099  -5.231  -6.769  1.00  0.00     0.132 C 
HETATM   21  C22 UNL     1       5.076  -5.558  -8.234  1.00  0.00     0.035 C 
HETATM   22  C23 UNL     1       4.912  -6.983  -8.607  1.00  0.00     0.037 C 
HETATM   23  C24 UNL     1       4.720  -7.947  -7.524  1.00  0.00     0.157 A 
HETATM   24  O7  UNL     1       5.326  -9.121  -7.288  1.00  0.00    -0.370 OA
HETATM   25  C25 UNL     1       6.114  -8.111  -6.891  1.00  0.00     0.084 A 
HETATM   26  C26 UNL     1       7.317  -7.879  -7.764  1.00  0.00     0.049 C 
HETATM   27  C27 UNL     1       6.038  -7.306  -5.659  1.00  0.00     0.043 C 
HETATM   28  C28 UNL     1       6.235  -5.862  -6.015  1.00  0.00     0.035 C 
ENDBRANCH  19  20
ENDBRANCH  17  19
ENDBRANCH  16  17
ENDBRANCH  15  16
ENDBRANCH  14  15
ENDBRANCH  13  14
ENDBRANCH  12  13
BRANCH  10  29
HETATM   29  C10 UNL     1      -0.736  -8.450 -10.454  1.00  0.00     0.057 C 
HETATM   30  C11 UNL     1      -0.555  -9.043 -11.861  1.00  0.00     0.189 C 
HETATM   31  O3  UNL     1      -1.604  -8.613 -12.659  1.00  0.00    -0.317 OA
HETATM   32  C12 UNL     1      -2.415  -7.763 -11.939  1.00  0.00     0.289 C 
HETATM   33  O4  UNL     1      -3.558  -7.394 -12.306  1.00  0.00    -0.260 OA
HETATM   34  C13 UNL     1      -1.698  -7.387 -10.703  1.00  0.00     0.015 C 
HETATM   35  C14 UNL     1      -1.953  -6.276 -10.040  1.00  0.00     0.025 C 
ENDBRANCH  10  29
TORSDOF 8
ENDMDL
MODEL 2
REMARK VINA RESULT: -8.653136116      2.394      3.875
REMARK  8 active torsions:
REMARK  status: ('A' for Active; 'I' for Inactive)
REMARK    1  A    between atoms: C8_10  and  C10_12 
REMARK    2  A    between atoms: C15_19  and  C16_20 
REMARK    3  A    between atoms: C16_20  and  C17_21 
REMARK    4  A    between atoms: C17_21  and  C18_22 
REMARK    5  A    between atoms: C18_22  and  C19_23 
REMARK    6  A    between atoms: C19_23  and  C20_24 
REMARK    7  A    between atoms: C20_24  and  O6_26 
REMARK    8  A    between atoms: O6_26  and  C21_27 
ROOT
HETATM    1  C1  UNL     1       2.479 -13.097  -9.618  1.00  0.00     0.025 C 
HETATM    2  C2  UNL     1       1.719 -12.018  -9.672  1.00  0.00     0.014 C 
HETATM    3  C3  UNL     1       2.117 -10.659  -9.256  1.00  0.00     0.289 C 
HETATM    4  O1  UNL     1       3.238 -10.336  -8.780  1.00  0.00    -0.260 OA
HETATM    5  O2  UNL     1       1.003  -9.832  -9.502  1.00  0.00    -0.311 OA
HETATM    6  C4  UNL     1      -0.118 -10.642  -9.376  1.00  0.00     0.145 C 
HETATM    7  C5  UNL     1       0.319 -11.909 -10.150  1.00  0.00     0.054 C 
HETATM    8  C6  UNL     1       0.315 -11.644 -11.618  1.00  0.00     0.013 C 
HETATM    9  C7  UNL     1      -1.120 -11.324 -11.991  1.00  0.00     0.011 C 
HETATM   10  C8  UNL     1      -1.490 -10.003 -11.368  1.00  0.00    -0.028 C 
HETATM   11  C9  UNL     1      -0.603  -8.909 -11.915  1.00  0.00     0.016 C 
HETATM   12  C15 UNL     1      -1.408 -10.127  -9.853  1.00  0.00     0.025 C 
ENDROOT
BRANCH  12  13
HETATM   13  C16 UNL     1      -1.881  -8.876  -9.227  1.00  0.00     0.008 C 
BRANCH  13  14
HETATM   14  C17 UNL     1      -1.744  -8.621  -7.786  1.00  0.00     0.001 C 
BRANCH  14  15
HETATM   15  C18 UNL     1      -1.006  -7.462  -7.298  1.00  0.00     0.010 C 
BRANCH  15  16
HETATM   16  C19 UNL     1      -0.292  -6.757  -8.461  1.00  0.00     0.111 C 
BRANCH  16  17
HETATM   17  C20 UNL     1       0.047  -5.357  -8.135  1.00  0.00     0.259 C 
HETATM   18  O5  UNL     1      -0.896  -4.515  -8.037  1.00  0.00    -0.265 OA
BRANCH  17  19
HETATM   19  O6  UNL     1       1.346  -4.933  -7.935  1.00  0.00    -0.316 OA
BRANCH  19  20
HETATM   20  C21 UNL     1       1.839  -4.746  -6.631  1.00  0.00     0.132 C 
HETATM   21  C22 UNL     1       2.898  -3.686  -6.541  1.00  0.00     0.035 C 
HETATM   22  C23 UNL     1       4.207  -3.981  -7.171  1.00  0.00     0.037 C 
HETATM   23  C24 UNL     1       4.341  -5.251  -7.886  1.00  0.00     0.157 A 
HETATM   24  O7  UNL     1       5.297  -6.189  -7.819  1.00  0.00    -0.370 OA
HETATM   25  C25 UNL     1       4.457  -6.315  -6.780  1.00  0.00     0.084 A 
HETATM   26  C26 UNL     1       5.036  -5.897  -5.456  1.00  0.00     0.049 C 
HETATM   27  C27 UNL     1       3.119  -6.930  -6.742  1.00  0.00     0.043 C 
HETATM   28  C28 UNL     1       2.202  -6.039  -5.956  1.00  0.00     0.035 C 
ENDBRANCH  19  20
ENDBRANCH  17  19
ENDBRANCH  16  17
ENDBRANCH  15  16
ENDBRANCH  14  15
ENDBRANCH  13  14
ENDBRANCH  12  13
BRANCH  10  29
HETATM   29  C10 UNL     1      -2.890  -9.690 -11.816  1.00  0.00     0.057 C 
HETATM   30  C11 UNL     1      -2.794  -8.600 -12.897  1.00  0.00     0.189 C 
HETATM   31  O3  UNL     1      -3.044  -9.180 -14.130  1.00  0.00    -0.317 OA
HETATM   32  C12 UNL     1      -3.344 -10.514 -13.963  1.00  0.00     0.289 C 
HETATM   33  O4  UNL     1      -3.391 -11.353 -14.897  1.00  0.00    -0.260 OA
HETATM   34  C13 UNL     1      -3.592 -10.749 -12.526  1.00  0.00     0.015 C 
HETATM   35  C14 UNL     1      -4.329 -11.748 -12.083  1.00  0.00     0.025 C 
ENDBRANCH  10  29
TORSDOF 8
ENDMDL
MODEL 3
REMARK VINA RESULT: -8.447268087      1.311      4.284
REMARK  8 active torsions:
REMARK  status: ('A' for Active; 'I' for Inactive)
REMARK    1  A    between atoms: C8_10  and  C10_12 
REMARK    2  A    between atoms: C15_19  and  C16_20 
REMARK    3  A    between atoms: C16_20  and  C17_21 
REMARK    4  A    between atoms: C17_21  and  C18_22 
REMARK    5  A    between atoms: C18_22  and  C19_23 
REMARK    6  A    between atoms: C19_23  and  C20_24 
REMARK    7  A    between atoms: C20_24  and  O6_26 
REMARK    8  A    between atoms: O6_26  and  C21_27 
ROOT
HETATM    1  C1  UNL     1      -1.199  -7.841 -13.237  1.00  0.00     0.025 C 
HETATM    2  C2  UNL     1      -1.186  -7.785 -11.917  1.00  0.00     0.014 C 
HETATM    3  C3  UNL     1      -1.300  -6.560 -11.103  1.00  0.00     0.289 C 
HETATM    4  O1  UNL     1      -1.415  -5.388 -11.552  1.00  0.00    -0.260 OA
HETATM    5  O2  UNL     1      -1.253  -6.978  -9.758  1.00  0.00    -0.311 OA
HETATM    6  C4  UNL     1      -0.493  -8.140  -9.738  1.00  0.00     0.145 C 
HETATM    7  C5  UNL     1      -1.059  -8.908 -10.957  1.00  0.00     0.054 C 
HETATM    8  C6  UNL     1      -2.414  -9.448 -10.643  1.00  0.00     0.013 C 
HETATM    9  C7  UNL     1      -2.229 -10.428  -9.500  1.00  0.00     0.011 C 
HETATM   10  C8  UNL     1      -1.836  -9.654  -8.268  1.00  0.00    -0.028 C 
HETATM   11  C9  UNL     1      -2.937  -8.690  -7.893  1.00  0.00     0.016 C 
HETATM   12  C15 UNL     1      -0.505  -8.960  -8.520  1.00  0.00     0.025 C 
ENDROOT
BRANCH  12  13
HETATM   13  C16 UNL     1      -0.051  -8.295  -7.283  1.00  0.00     0.008 C 
BRANCH  13  14
HETATM   14  C17 UNL     1       1.141  -7.436  -7.247  1.00  0.00     0.001 C 
BRANCH  14  15
HETATM   15  C18 UNL     1       1.316  -6.439  -6.197  1.00  0.00     0.010 C 
BRANCH  15  16
HETATM   16  C19 UNL     1       1.648  -5.072  -6.812  1.00  0.00     0.111 C 
BRANCH  16  17
HETATM   17  C20 UNL     1       2.937  -4.544  -6.323  1.00  0.00     0.259 C 
HETATM   18  O5  UNL     1       3.055  -3.292  -6.161  1.00  0.00    -0.265 OA
BRANCH  17  19
HETATM   19  O6  UNL     1       4.015  -5.359  -6.037  1.00  0.00    -0.316 OA
BRANCH  19  20
HETATM   20  C21 UNL     1       5.223  -5.211  -6.741  1.00  0.00     0.132 C 
HETATM   21  C22 UNL     1       5.116  -5.584  -8.192  1.00  0.00     0.035 C 
HETATM   22  C23 UNL     1       4.913  -7.017  -8.510  1.00  0.00     0.037 C 
HETATM   23  C24 UNL     1       4.768  -7.944  -7.387  1.00  0.00     0.157 A 
HETATM   24  O7  UNL     1       5.370  -9.119  -7.147  1.00  0.00    -0.370 OA
HETATM   25  C25 UNL     1       6.192  -8.109  -6.826  1.00  0.00     0.084 A 
HETATM   26  C26 UNL     1       7.349  -7.922  -7.770  1.00  0.00     0.049 C 
HETATM   27  C27 UNL     1       6.194  -7.264  -5.619  1.00  0.00     0.043 C 
HETATM   28  C28 UNL     1       6.391  -5.836  -6.031  1.00  0.00     0.035 C 
ENDBRANCH  19  20
ENDBRANCH  17  19
ENDBRANCH  16  17
ENDBRANCH  15  16
ENDBRANCH  14  15
ENDBRANCH  13  14
ENDBRANCH  12  13
BRANCH  10  29
HETATM   29  C10 UNL     1      -1.730 -10.650  -7.147  1.00  0.00     0.057 C 
HETATM   30  C11 UNL     1      -2.898 -10.383  -6.183  1.00  0.00     0.189 C 
HETATM   31  O3  UNL     1      -3.839 -11.388  -6.343  1.00  0.00    -0.317 OA
HETATM   32  C12 UNL     1      -3.386 -12.306  -7.265  1.00  0.00     0.289 C 
HETATM   33  O4  UNL     1      -4.099 -13.196  -7.790  1.00  0.00    -0.260 OA
HETATM   34  C13 UNL     1      -1.950 -12.044  -7.500  1.00  0.00     0.015 C 
HETATM   35  C14 UNL     1      -1.118 -12.970  -7.935  1.00  0.00     0.025 C 
ENDBRANCH  10  29
TORSDOF 8
ENDMDL
MODEL 4
REMARK VINA RESULT: -8.264634276      2.066      3.745
REMARK  8 active torsions:
REMARK  status: ('A' for Active; 'I' for Inactive)
REMARK    1  A    between atoms: C8_10  and  C10_12 
REMARK    2  A    between atoms: C15_19  and  C16_20 
REMARK    3  A    between atoms: C16_20  and  C17_21 
REMARK    4  A    between atoms: C17_21  and  C18_22 
REMARK    5  A    between atoms: C18_22  and  C19_23 
REMARK    6  A    between atoms: C19_23  and  C20_24 
REMARK    7  A    between atoms: C20_24  and  O6_26 
REMARK    8  A    between atoms: O6_26  and  C21_27 
ROOT
HETATM    1  C1  UNL     1       0.419 -15.063 -11.177  1.00  0.00     0.025 C 
HETATM    2  C2  UNL     1       0.356 -13.758 -10.976  1.00  0.00     0.014 C 
HETATM    3  C3  UNL     1       0.664 -12.713 -11.971  1.00  0.00     0.289 C 
HETATM    4  O1  UNL     1       1.041 -12.917 -13.156  1.00  0.00    -0.260 OA
HETATM    5  O2  UNL     1       0.449 -11.481 -11.324  1.00  0.00    -0.311 OA
HETATM    6  C4  UNL     1       0.701 -11.700  -9.976  1.00  0.00     0.145 C 
HETATM    7  C5  UNL     1      -0.028 -13.044  -9.734  1.00  0.00     0.054 C 
HETATM    8  C6  UNL     1      -1.505 -12.835  -9.718  1.00  0.00     0.013 C 
HETATM    9  C7  UNL     1      -1.794 -11.914  -8.549  1.00  0.00     0.011 C 
HETATM   10  C8  UNL     1      -1.224 -10.554  -8.861  1.00  0.00    -0.028 C 
HETATM   11  C9  UNL     1      -1.894  -9.985 -10.090  1.00  0.00     0.016 C 
HETATM   12  C15 UNL     1       0.286 -10.671  -9.013  1.00  0.00     0.025 C 
ENDROOT
BRANCH  12  13
HETATM   13  C16 UNL     1       0.871  -9.329  -9.203  1.00  0.00     0.008 C 
BRANCH  13  14
HETATM   14  C17 UNL     1       1.480  -8.576  -8.098  1.00  0.00     0.001 C 
BRANCH  14  15
HETATM   15  C18 UNL     1       1.237  -7.146  -7.942  1.00  0.00     0.010 C 
BRANCH  15  16
HETATM   16  C19 UNL     1       1.320  -6.752  -6.460  1.00  0.00     0.111 C 
BRANCH  16  17
HETATM   17  C20 UNL     1       2.453  -5.845  -6.191  1.00  0.00     0.259 C 
HETATM   18  O5  UNL     1       2.242  -4.595  -6.202  1.00  0.00    -0.265 OA
BRANCH  17  19
HETATM   19  O6  UNL     1       3.729  -6.305  -5.929  1.00  0.00    -0.316 OA
BRANCH  19  20
HETATM   20  C21 UNL     1       4.828  -5.794  -6.643  1.00  0.00     0.132 C 
HETATM   21  C22 UNL     1       4.775  -6.097  -8.113  1.00  0.00     0.035 C 
HETATM   22  C23 UNL     1       4.956  -7.511  -8.520  1.00  0.00     0.037 C 
HETATM   23  C24 UNL     1       5.105  -8.506  -7.457  1.00  0.00     0.157 A 
HETATM   24  O7  UNL     1       6.009  -9.485  -7.304  1.00  0.00    -0.370 OA
HETATM   25  C25 UNL     1       6.539  -8.309  -6.932  1.00  0.00     0.084 A 
HETATM   26  C26 UNL     1       7.570  -7.762  -7.882  1.00  0.00     0.049 C 
HETATM   27  C27 UNL     1       6.355  -7.568  -5.673  1.00  0.00     0.043 C 
HETATM   28  C28 UNL     1       6.144  -6.118  -5.995  1.00  0.00     0.035 C 
ENDBRANCH  19  20
ENDBRANCH  17  19
ENDBRANCH  16  17
ENDBRANCH  15  16
ENDBRANCH  14  15
ENDBRANCH  13  14
ENDBRANCH  12  13
BRANCH  10  29
HETATM   29  C10 UNL     1      -1.590  -9.657  -7.713  1.00  0.00     0.057 C 
HETATM   30  C11 UNL     1      -2.433  -8.503  -8.282  1.00  0.00     0.189 C 
HETATM   31  O3  UNL     1      -3.755  -8.703  -7.918  1.00  0.00    -0.317 OA
HETATM   32  C12 UNL     1      -3.855  -9.830  -7.132  1.00  0.00     0.289 C 
HETATM   33  O4  UNL     1      -4.936 -10.398  -6.840  1.00  0.00    -0.260 OA
HETATM   34  C13 UNL     1      -2.491 -10.218  -6.717  1.00  0.00     0.015 C 
HETATM   35  C14 UNL     1      -2.250 -10.926  -5.632  1.00  0.00     0.025 C 
ENDBRANCH  10  29
TORSDOF 8
ENDMDL
MODEL 5
REMARK VINA RESULT: -8.258388314      2.475      5.082
REMARK  8 active torsions:
REMARK  status: ('A' for Active; 'I' for Inactive)
REMARK    1  A    between atoms: C8_10  and  C10_12 
REMARK    2  A    between atoms: C15_19  and  C16_20 
REMARK    3  A    between atoms: C16_20  and  C17_21 
REMARK    4  A    between atoms: C17_21  and  C18_22 
REMARK    5  A    between atoms: C18_22  and  C19_23 
REMARK    6  A    between atoms: C19_23  and  C20_24 
REMARK    7  A    between atoms: C20_24  and  O6_26 
REMARK    8  A    between atoms: O6_26  and  C21_27 
ROOT
HETATM    1  C1  UNL     1      -1.489  -5.957 -12.499  1.00  0.00     0.025 C 
HETATM    2  C2  UNL     1      -1.315  -6.997 -11.704  1.00  0.00     0.014 C 
HETATM    3  C3  UNL     1      -1.311  -6.968 -10.229  1.00  0.00     0.289 C 
HETATM    4  O1  UNL     1      -1.463  -5.940  -9.515  1.00  0.00    -0.260 OA
HETATM    5  O2  UNL     1      -1.107  -8.297  -9.810  1.00  0.00    -0.311 OA
HETATM    6  C4  UNL     1      -0.366  -8.911 -10.812  1.00  0.00     0.145 C 
HETATM    7  C5  UNL     1      -1.087  -8.412 -12.087  1.00  0.00     0.054 C 
HETATM    8  C6  UNL     1      -2.401  -9.102 -12.241  1.00  0.00     0.013 C 
HETATM    9  C7  UNL     1      -2.093 -10.578 -12.408  1.00  0.00     0.011 C 
HETATM   10  C8  UNL     1      -1.541 -11.099 -11.107  1.00  0.00    -0.028 C 
HETATM   11  C9  UNL     1      -2.576 -10.952 -10.014  1.00  0.00     0.016 C 
HETATM   12  C15 UNL     1      -0.242 -10.374 -10.790  1.00  0.00     0.025 C 
ENDROOT
BRANCH  12  13
HETATM   13  C16 UNL     1       0.369 -10.957  -9.578  1.00  0.00     0.008 C 
BRANCH  13  14
HETATM   14  C17 UNL     1       1.620 -11.727  -9.624  1.00  0.00     0.001 C 
BRANCH  14  15
HETATM   15  C18 UNL     1       2.777 -11.324  -8.833  1.00  0.00     0.010 C 
BRANCH  15  16
HETATM   16  C19 UNL     1       2.919  -9.794  -8.840  1.00  0.00     0.111 C 
BRANCH  16  17
HETATM   17  C20 UNL     1       4.124  -9.348  -8.113  1.00  0.00     0.259 C 
HETATM   18  O5  UNL     1       5.143 -10.103  -8.110  1.00  0.00    -0.265 OA
BRANCH  17  19
HETATM   19  O6  UNL     1       4.182  -8.144  -7.438  1.00  0.00    -0.316 OA
BRANCH  19  20
HETATM   20  C21 UNL     1       3.860  -6.944  -8.097  1.00  0.00     0.132 C 
HETATM   21  C22 UNL     1       4.966  -5.930  -8.062  1.00  0.00     0.035 C 
HETATM   22  C23 UNL     1       5.283  -5.317  -6.750  1.00  0.00     0.037 C 
HETATM   23  C24 UNL     1       4.539  -5.797  -5.585  1.00  0.00     0.157 A 
HETATM   24  O7  UNL     1       3.906  -5.115  -4.618  1.00  0.00    -0.370 OA
HETATM   25  C25 UNL     1       3.143  -5.162  -5.720  1.00  0.00     0.084 A 
HETATM   26  C26 UNL     1       3.030  -3.855  -6.456  1.00  0.00     0.049 C 
HETATM   27  C27 UNL     1       2.302  -6.265  -6.218  1.00  0.00     0.043 C 
HETATM   28  C28 UNL     1       2.516  -6.404  -7.696  1.00  0.00     0.035 C 
ENDBRANCH  19  20
ENDBRANCH  17  19
ENDBRANCH  16  17
ENDBRANCH  15  16
ENDBRANCH  14  15
ENDBRANCH  13  14
ENDBRANCH  12  13
BRANCH  10  29
HETATM   29  C10 UNL     1      -1.314 -12.573 -11.293  1.00  0.00     0.057 C 
HETATM   30  C11 UNL     1      -2.690 -13.260 -11.247  1.00  0.00     0.189 C 
HETATM   31  O3  UNL     1      -3.035 -13.640 -12.534  1.00  0.00    -0.317 OA
HETATM   32  C12 UNL     1      -2.012 -13.324 -13.401  1.00  0.00     0.289 C 
HETATM   33  O4  UNL     1      -2.115 -13.333 -14.653  1.00  0.00    -0.260 OA
HETATM   34  C13 UNL     1      -0.819 -12.990 -12.596  1.00  0.00     0.015 C 
HETATM   35  C14 UNL     1       0.409 -13.096 -13.062  1.00  0.00     0.025 C 
ENDBRANCH  10  29
TORSDOF 8
ENDMDL
