MODEL 1
REMARK VINA RESULT: -10.528411978      0.000      0.000
REMARK  14 active torsions:
REMARK  status: ('A' for Active; 'I' for Inactive)
REMARK    1  A    between atoms: C2_2  and  C3_4 
REMARK    2  A    between atoms: C3_4  and  C4_5 
REMARK    3  A    between atoms: C5_7  and  C7_9 
REMARK    4  A    between atoms: C7_9  and  C9_11 
REMARK    5  A    between atoms: C9_11  and  C10_12 
REMARK    6  A    between atoms: C10_12  and  C11_13 
REMARK    7  A    between atoms: C12_15  and  O4_16 
REMARK    8  A    between atoms: C12_15  and  C13_18 
REMARK    9  A    between atoms: C16_21  and  C17_22 
REMARK   10  A    between atoms: C17_22  and  C19_24 
REMARK   11  A    between atoms: C19_24  and  C20_25 
REMARK   12  A    between atoms: C20_25  and  C21_26 
REMARK   13  A    between atoms: C21_26  and  C22_27 
REMARK   14  A    between atoms: C29_35  and  O6_36 
ROOT
HETATM    1  C11 UNL     1      11.367  31.995  11.968  1.00  0.00     0.154 C 
HETATM    2  O3  UNL     1      10.373  32.704  11.182  1.00  0.00    -0.347 OA
HETATM    3  C12 UNL     1       9.159  32.670  11.807  1.00  0.00     0.172 C 
HETATM    4  C27 UNL     1       9.183  32.178  13.237  1.00  0.00     0.072 C 
HETATM    5  C28 UNL     1       9.647  30.762  13.230  1.00  0.00     0.040 C 
HETATM    6  C29 UNL     1      10.775  30.624  12.232  1.00  0.00     0.147 C 
ENDROOT
BRANCH   3   7
HETATM    7  O4  UNL     1       8.346  31.778  11.102  1.00  0.00    -0.365 OA
ATOM      8  H4  UNL     1       7.456  32.111  11.137  1.00  0.00     0.213 HD
ENDBRANCH   3   7
BRANCH   3   9
HETATM    9  C13 UNL     1       8.462  34.011  11.826  1.00  0.00     0.118 C 
HETATM   10  C14 UNL     1       7.449  34.085  12.969  1.00  0.00     0.018 C 
HETATM   11  C15 UNL     1       7.146  35.565  12.984  1.00  0.00     0.013 C 
HETATM   12  C16 UNL     1       8.476  36.232  12.648  1.00  0.00     0.060 C 
HETATM   13  C26 UNL     1       9.362  35.128  12.203  1.00  0.00     0.140 C 
HETATM   14  O5  UNL     1      10.569  35.156  12.165  1.00  0.00    -0.297 OA
BRANCH  12  15
HETATM   15  C17 UNL     1       8.316  37.306  11.632  1.00  0.00    -0.007 C 
HETATM   16  C18 UNL     1       7.454  36.908  10.458  1.00  0.00     0.011 C 
BRANCH  15  17
HETATM   17  C19 UNL     1       9.653  37.725  11.084  1.00  0.00     0.005 C 
BRANCH  17  18
HETATM   18  C20 UNL     1      10.296  38.741  11.960  1.00  0.00     0.004 C 
BRANCH  18  19
HETATM   19  C21 UNL     1      11.344  39.524  11.205  1.00  0.00     0.027 C 
BRANCH  19  20
HETATM   20  C22 UNL     1      12.566  38.707  11.052  1.00  0.00    -0.025 C 
HETATM   21  C23 UNL     1      13.587  39.083  10.276  1.00  0.00    -0.091 C 
HETATM   22  C24 UNL     1      13.595  40.333   9.506  1.00  0.00     0.042 C 
HETATM   23  C25 UNL     1      14.779  38.181  10.193  1.00  0.00     0.042 C 
ENDBRANCH  19  20
ENDBRANCH  18  19
ENDBRANCH  17  18
ENDBRANCH  15  17
ENDBRANCH  12  15
ENDBRANCH   3   9
BRANCH   1  24
HETATM   24  C10 UNL     1      12.578  32.035  11.155  1.00  0.00     0.035 C 
BRANCH  24  25
HETATM   25  C9  UNL     1      12.986  30.959  10.259  1.00  0.00     0.010 C 
BRANCH  25  26
HETATM   26  C7  UNL     1      13.608  31.313   8.940  1.00  0.00     0.016 C 
HETATM   27  C8  UNL     1      15.059  31.173   8.773  1.00  0.00     0.013 C 
BRANCH  26  28
HETATM   28  C5  UNL     1      12.776  30.626   7.837  1.00  0.00     0.061 C 
HETATM   29  O2  UNL     1      13.013  31.433   6.708  1.00  0.00    -0.374 OA
HETATM   30  C4  UNL     1      12.399  30.888   5.583  1.00  0.00     0.133 C 
HETATM   31  C32 UNL     1      13.057  29.621   5.143  1.00  0.00     0.011 C 
HETATM   32  C31 UNL     1      13.901  29.088   6.254  1.00  0.00     0.010 C 
HETATM   33  C33 UNL     1      12.045  28.601   4.649  1.00  0.00     0.012 C 
HETATM   34  C30 UNL     1      13.187  29.218   7.595  1.00  0.00     0.038 C 
HETATM   35  C6  UNL     1      11.336  30.658   8.279  1.00  0.00     0.046 C 
BRANCH  30  36
HETATM   36  C3  UNL     1      12.361  31.940   4.513  1.00  0.00     0.110 C 
BRANCH  36  37
HETATM   37  C2  UNL     1      13.126  33.144   4.915  1.00  0.00     0.125 C 
HETATM   38  C1  UNL     1      14.606  33.013   5.161  1.00  0.00     0.091 C 
HETATM   39  O1  UNL     1      12.658  34.246   5.067  1.00  0.00    -0.298 OA
ENDBRANCH  36  37
ENDBRANCH  30  36
ENDBRANCH  26  28
ENDBRANCH  25  26
ENDBRANCH  24  25
ENDBRANCH   1  24
BRANCH   6  40
HETATM   40  O6  UNL     1      11.710  29.775  12.744  1.00  0.00    -0.393 OA
ATOM     41  H6  UNL     1      11.554  29.611  13.667  1.00  0.00     0.210 HD
ENDBRANCH   6  40
TORSDOF 14
ENDMDL
MODEL 2
REMARK VINA RESULT: -10.485242199      0.896      1.887
REMARK  14 active torsions:
REMARK  status: ('A' for Active; 'I' for Inactive)
REMARK    1  A    between atoms: C2_2  and  C3_4 
REMARK    2  A    between atoms: C3_4  and  C4_5 
REMARK    3  A    between atoms: C5_7  and  C7_9 
REMARK    4  A    between atoms: C7_9  and  C9_11 
REMARK    5  A    between atoms: C9_11  and  C10_12 
REMARK    6  A    between atoms: C10_12  and  C11_13 
REMARK    7  A    between atoms: C12_15  and  O4_16 
REMARK    8  A    between atoms: C12_15  and  C13_18 
REMARK    9  A    between atoms: C16_21  and  C17_22 
REMARK   10  A    between atoms: C17_22  and  C19_24 
REMARK   11  A    between atoms: C19_24  and  C20_25 
REMARK   12  A    between atoms: C20_25  and  C21_26 
REMARK   13  A    between atoms: C21_26  and  C22_27 
REMARK   14  A    between atoms: C29_35  and  O6_36 
ROOT
HETATM    1  C11 UNL     1      11.271  31.851  11.593  1.00  0.00     0.154 C 
HETATM    2  O3  UNL     1      10.151  32.518  10.953  1.00  0.00    -0.347 OA
HETATM    3  C12 UNL     1       9.102  32.629  11.821  1.00  0.00     0.172 C 
HETATM    4  C27 UNL     1       9.423  32.310  13.264  1.00  0.00     0.072 C 
HETATM    5  C28 UNL     1       9.830  30.879  13.340  1.00  0.00     0.040 C 
HETATM    6  C29 UNL     1      10.708  30.557  12.151  1.00  0.00     0.147 C 
ENDROOT
BRANCH   3   7
HETATM    7  O4  UNL     1       8.128  31.708  11.425  1.00  0.00    -0.365 OA
ATOM      8  H4  UNL     1       7.279  32.084  11.627  1.00  0.00     0.213 HD
ENDBRANCH   3   7
BRANCH   3   9
HETATM    9  C13 UNL     1       8.469  34.001  11.816  1.00  0.00     0.118 C 
HETATM   10  C14 UNL     1       7.446  34.136  12.943  1.00  0.00     0.018 C 
HETATM   11  C15 UNL     1       7.211  35.628  12.938  1.00  0.00     0.013 C 
HETATM   12  C16 UNL     1       8.575  36.228  12.612  1.00  0.00     0.060 C 
HETATM   13  C26 UNL     1       9.415  35.079  12.192  1.00  0.00     0.140 C 
HETATM   14  O5  UNL     1      10.622  35.051  12.169  1.00  0.00    -0.297 OA
BRANCH  12  15
HETATM   15  C17 UNL     1       8.478  37.297  11.581  1.00  0.00    -0.007 C 
HETATM   16  C18 UNL     1       7.705  36.885  10.351  1.00  0.00     0.011 C 
BRANCH  15  17
HETATM   17  C19 UNL     1       9.847  37.726  11.128  1.00  0.00     0.005 C 
BRANCH  17  18
HETATM   18  C20 UNL     1      10.362  38.844  11.963  1.00  0.00     0.004 C 
BRANCH  18  19
HETATM   19  C21 UNL     1      11.391  39.654  11.211  1.00  0.00     0.027 C 
BRANCH  19  20
HETATM   20  C22 UNL     1      12.631  38.866  11.053  1.00  0.00    -0.025 C 
HETATM   21  C23 UNL     1      13.576  39.186  10.163  1.00  0.00    -0.091 C 
HETATM   22  C24 UNL     1      13.475  40.342   9.263  1.00  0.00     0.042 C 
HETATM   23  C25 UNL     1      14.795  38.320  10.086  1.00  0.00     0.042 C 
ENDBRANCH  19  20
ENDBRANCH  18  19
ENDBRANCH  17  18
ENDBRANCH  15  17
ENDBRANCH  12  15
ENDBRANCH   3   9
BRANCH   1  24
HETATM   24  C10 UNL     1      12.274  31.723  10.542  1.00  0.00     0.035 C 
BRANCH  24  25
HETATM   25  C9  UNL     1      12.035  31.048   9.272  1.00  0.00     0.010 C 
BRANCH  25  26
HETATM   26  C7  UNL     1      12.909  29.888   8.894  1.00  0.00     0.016 C 
HETATM   27  C8  UNL     1      12.292  28.581   8.641  1.00  0.00     0.013 C 
BRANCH  26  28
HETATM   28  C5  UNL     1      13.854  30.367   7.772  1.00  0.00     0.061 C 
HETATM   29  O2  UNL     1      13.098  31.358   7.118  1.00  0.00    -0.374 OA
HETATM   30  C4  UNL     1      13.855  31.969   6.120  1.00  0.00     0.133 C 
HETATM   31  C32 UNL     1      14.955  32.808   6.685  1.00  0.00     0.011 C 
HETATM   32  C31 UNL     1      15.187  32.428   8.111  1.00  0.00     0.010 C 
HETATM   33  C33 UNL     1      16.221  32.714   5.852  1.00  0.00     0.012 C 
HETATM   34  C30 UNL     1      15.135  30.915   8.290  1.00  0.00     0.038 C 
HETATM   35  C6  UNL     1      14.138  29.179   6.890  1.00  0.00     0.046 C 
BRANCH  30  36
HETATM   36  C3  UNL     1      12.924  32.734   5.227  1.00  0.00     0.110 C 
BRANCH  36  37
HETATM   37  C2  UNL     1      12.588  31.959   4.009  1.00  0.00     0.125 C 
HETATM   38  C1  UNL     1      11.987  30.586   4.165  1.00  0.00     0.091 C 
HETATM   39  O1  UNL     1      12.758  32.338   2.875  1.00  0.00    -0.298 OA
ENDBRANCH  36  37
ENDBRANCH  30  36
ENDBRANCH  26  28
ENDBRANCH  25  26
ENDBRANCH  24  25
ENDBRANCH   1  24
BRANCH   6  40
HETATM   40  O6  UNL     1      11.706  29.722  12.557  1.00  0.00    -0.393 OA
ATOM     41  H6  UNL     1      11.433  28.813  12.507  1.00  0.00     0.210 HD
ENDBRANCH   6  40
TORSDOF 14
ENDMDL
MODEL 3
REMARK VINA RESULT: -10.478550733      1.615      2.658
REMARK  14 active torsions:
REMARK  status: ('A' for Active; 'I' for Inactive)
REMARK    1  A    between atoms: C2_2  and  C3_4 
REMARK    2  A    between atoms: C3_4  and  C4_5 
REMARK    3  A    between atoms: C5_7  and  C7_9 
REMARK    4  A    between atoms: C7_9  and  C9_11 
REMARK    5  A    between atoms: C9_11  and  C10_12 
REMARK    6  A    between atoms: C10_12  and  C11_13 
REMARK    7  A    between atoms: C12_15  and  O4_16 
REMARK    8  A    between atoms: C12_15  and  C13_18 
REMARK    9  A    between atoms: C16_21  and  C17_22 
REMARK   10  A    between atoms: C17_22  and  C19_24 
REMARK   11  A    between atoms: C19_24  and  C20_25 
REMARK   12  A    between atoms: C20_25  and  C21_26 
REMARK   13  A    between atoms: C21_26  and  C22_27 
REMARK   14  A    between atoms: C29_35  and  O6_36 
ROOT
HETATM    1  C11 UNL     1       9.724  32.413  12.908  1.00  0.00     0.154 C 
HETATM    2  O3  UNL     1       9.406  33.242  11.759  1.00  0.00    -0.347 OA
HETATM    3  C12 UNL     1       8.238  33.921  11.970  1.00  0.00     0.172 C 
HETATM    4  C27 UNL     1       7.717  33.881  13.388  1.00  0.00     0.072 C 
HETATM    5  C28 UNL     1       7.400  32.465  13.724  1.00  0.00     0.040 C 
HETATM    6  C29 UNL     1       8.485  31.575  13.160  1.00  0.00     0.147 C 
ENDROOT
BRANCH   3   7
HETATM    7  O4  UNL     1       7.255  33.323  11.176  1.00  0.00    -0.365 OA
ATOM      8  H4  UNL     1       7.260  33.762  10.333  1.00  0.00     0.213 HD
ENDBRANCH   3   7
BRANCH   3   9
HETATM    9  C13 UNL     1       8.320  35.378  11.582  1.00  0.00     0.118 C 
HETATM   10  C14 UNL     1       7.109  36.152  12.103  1.00  0.00     0.018 C 
HETATM   11  C15 UNL     1       7.567  37.575  11.891  1.00  0.00     0.013 C 
HETATM   12  C16 UNL     1       9.063  37.544  12.187  1.00  0.00     0.060 C 
HETATM   13  C26 UNL     1       9.411  36.104  12.277  1.00  0.00     0.140 C 
HETATM   14  O5  UNL     1      10.390  35.641  12.813  1.00  0.00    -0.297 OA
BRANCH  12  15
HETATM   15  C17 UNL     1       9.848  38.278  11.158  1.00  0.00    -0.007 C 
HETATM   16  C18 UNL     1      10.194  37.442   9.949  1.00  0.00     0.011 C 
BRANCH  15  17
HETATM   17  C19 UNL     1      11.140  38.787  11.737  1.00  0.00     0.005 C 
BRANCH  17  18
HETATM   18  C20 UNL     1      11.631  39.975  10.989  1.00  0.00     0.004 C 
BRANCH  18  19
HETATM   19  C21 UNL     1      12.392  39.561   9.751  1.00  0.00     0.027 C 
BRANCH  19  20
HETATM   20  C22 UNL     1      13.837  39.485  10.054  1.00  0.00    -0.025 C 
HETATM   21  C23 UNL     1      14.463  38.326  10.276  1.00  0.00    -0.091 C 
HETATM   22  C24 UNL     1      13.783  37.025  10.241  1.00  0.00     0.042 C 
HETATM   23  C25 UNL     1      15.930  38.362  10.573  1.00  0.00     0.042 C 
ENDBRANCH  19  20
ENDBRANCH  18  19
ENDBRANCH  17  18
ENDBRANCH  15  17
ENDBRANCH  12  15
ENDBRANCH   3   9
BRANCH   1  24
HETATM   24  C10 UNL     1      10.929  31.690  12.518  1.00  0.00     0.035 C 
BRANCH  24  25
HETATM   25  C9  UNL     1      11.334  31.477  11.134  1.00  0.00     0.010 C 
BRANCH  25  26
HETATM   26  C7  UNL     1      10.997  30.172  10.474  1.00  0.00     0.016 C 
HETATM   27  C8  UNL     1       9.629  29.947   9.992  1.00  0.00     0.013 C 
BRANCH  26  28
HETATM   28  C5  UNL     1      12.091  29.889   9.423  1.00  0.00     0.061 C 
HETATM   29  O2  UNL     1      11.680  30.659   8.318  1.00  0.00    -0.374 OA
HETATM   30  C4  UNL     1      12.627  30.587   7.297  1.00  0.00     0.133 C 
HETATM   31  C32 UNL     1      13.892  31.295   7.655  1.00  0.00     0.011 C 
HETATM   32  C31 UNL     1      13.940  31.511   9.133  1.00  0.00     0.010 C 
HETATM   33  C33 UNL     1      15.117  30.555   7.143  1.00  0.00     0.012 C 
HETATM   34  C30 UNL     1      13.449  30.278   9.883  1.00  0.00     0.038 C 
HETATM   35  C6  UNL     1      12.063  28.409   9.139  1.00  0.00     0.046 C 
BRANCH  30  36
HETATM   36  C3  UNL     1      11.995  31.101   6.037  1.00  0.00     0.110 C 
BRANCH  36  37
HETATM   37  C2  UNL     1      12.190  30.155   4.913  1.00  0.00     0.125 C 
HETATM   38  C1  UNL     1      11.709  30.550   3.541  1.00  0.00     0.091 C 
HETATM   39  O1  UNL     1      12.711  29.069   5.000  1.00  0.00    -0.298 OA
ENDBRANCH  36  37
ENDBRANCH  30  36
ENDBRANCH  26  28
ENDBRANCH  25  26
ENDBRANCH  24  25
ENDBRANCH   1  24
BRANCH   6  40
HETATM   40  O6  UNL     1       8.741  30.577  14.053  1.00  0.00    -0.393 OA
ATOM     41  H6  UNL     1       9.005  30.931  14.895  1.00  0.00     0.210 HD
ENDBRANCH   6  40
TORSDOF 14
ENDMDL
MODEL 4
REMARK VINA RESULT: -10.348633506      1.690      2.979
REMARK  14 active torsions:
REMARK  status: ('A' for Active; 'I' for Inactive)
REMARK    1  A    between atoms: C2_2  and  C3_4 
REMARK    2  A    between atoms: C3_4  and  C4_5 
REMARK    3  A    between atoms: C5_7  and  C7_9 
REMARK    4  A    between atoms: C7_9  and  C9_11 
REMARK    5  A    between atoms: C9_11  and  C10_12 
REMARK    6  A    between atoms: C10_12  and  C11_13 
REMARK    7  A    between atoms: C12_15  and  O4_16 
REMARK    8  A    between atoms: C12_15  and  C13_18 
REMARK    9  A    between atoms: C16_21  and  C17_22 
REMARK   10  A    between atoms: C17_22  and  C19_24 
REMARK   11  A    between atoms: C19_24  and  C20_25 
REMARK   12  A    between atoms: C20_25  and  C21_26 
REMARK   13  A    between atoms: C21_26  and  C22_27 
REMARK   14  A    between atoms: C29_35  and  O6_36 
ROOT
HETATM    1  C11 UNL     1      11.216  31.510  10.811  1.00  0.00     0.154 C 
HETATM    2  O3  UNL     1       9.917  31.654  11.442  1.00  0.00    -0.347 OA
HETATM    3  C12 UNL     1       9.962  32.617  12.410  1.00  0.00     0.172 C 
HETATM    4  C27 UNL     1      11.209  33.472  12.412  1.00  0.00     0.072 C 
HETATM    5  C28 UNL     1      12.374  32.588  12.699  1.00  0.00     0.040 C 
HETATM    6  C29 UNL     1      12.198  31.289  11.946  1.00  0.00     0.147 C 
ENDROOT
BRANCH   3   7
HETATM    7  O4  UNL     1       9.931  31.971  13.650  1.00  0.00    -0.365 OA
ATOM      8  H4  UNL     1       9.837  32.639  14.319  1.00  0.00     0.213 HD
ENDBRANCH   3   7
BRANCH   3   9
HETATM    9  C13 UNL     1       8.790  33.568  12.358  1.00  0.00     0.118 C 
HETATM   10  C14 UNL     1       7.879  33.250  11.172  1.00  0.00     0.018 C 
HETATM   11  C15 UNL     1       6.664  34.079  11.516  1.00  0.00     0.013 C 
HETATM   12  C16 UNL     1       6.561  33.995  13.035  1.00  0.00     0.060 C 
HETATM   13  C26 UNL     1       7.835  33.377  13.477  1.00  0.00     0.140 C 
HETATM   14  O5  UNL     1       8.032  32.834  14.538  1.00  0.00    -0.297 OA
BRANCH  12  15
HETATM   15  C17 UNL     1       6.307  35.327  13.648  1.00  0.00    -0.007 C 
HETATM   16  C18 UNL     1       4.905  35.489  14.185  1.00  0.00     0.011 C 
BRANCH  15  17
HETATM   17  C19 UNL     1       6.533  36.426  12.646  1.00  0.00     0.005 C 
BRANCH  17  18
HETATM   18  C20 UNL     1       7.885  37.027  12.806  1.00  0.00     0.004 C 
BRANCH  18  19
HETATM   19  C21 UNL     1       8.499  37.346  11.464  1.00  0.00     0.027 C 
BRANCH  19  20
HETATM   20  C22 UNL     1       9.889  36.844  11.417  1.00  0.00    -0.025 C 
HETATM   21  C23 UNL     1      10.947  37.649  11.558  1.00  0.00    -0.091 C 
HETATM   22  C24 UNL     1      10.834  39.097  11.771  1.00  0.00     0.042 C 
HETATM   23  C25 UNL     1      12.311  37.036  11.494  1.00  0.00     0.042 C 
ENDBRANCH  19  20
ENDBRANCH  18  19
ENDBRANCH  17  18
ENDBRANCH  15  17
ENDBRANCH  12  15
ENDBRANCH   3   9
BRANCH   1  24
HETATM   24  C10 UNL     1      11.050  30.406   9.872  1.00  0.00     0.035 C 
BRANCH  24  25
HETATM   25  C9  UNL     1      11.667  30.365   8.551  1.00  0.00     0.010 C 
BRANCH  25  26
HETATM   26  C7  UNL     1      12.801  29.412   8.312  1.00  0.00     0.016 C 
HETATM   27  C8  UNL     1      12.502  28.021   7.955  1.00  0.00     0.013 C 
BRANCH  26  28
HETATM   28  C5  UNL     1      13.798  30.108   7.361  1.00  0.00     0.061 C 
HETATM   29  O2  UNL     1      13.047  31.179   6.839  1.00  0.00    -0.374 OA
HETATM   30  C4  UNL     1      13.844  31.977   6.020  1.00  0.00     0.133 C 
HETATM   31  C32 UNL     1      14.871  32.731   6.799  1.00  0.00     0.011 C 
HETATM   32  C31 UNL     1      15.025  32.110   8.149  1.00  0.00     0.010 C 
HETATM   33  C33 UNL     1      16.191  32.821   6.053  1.00  0.00     0.012 C 
HETATM   34  C30 UNL     1      15.021  30.589   8.055  1.00  0.00     0.038 C 
HETATM   35  C6  UNL     1      14.183  29.103   6.306  1.00  0.00     0.046 C 
BRANCH  30  36
HETATM   36  C3  UNL     1      12.943  32.863   5.211  1.00  0.00     0.110 C 
BRANCH  36  37
HETATM   37  C2  UNL     1      12.617  32.249   3.902  1.00  0.00     0.125 C 
HETATM   38  C1  UNL     1      11.983  30.883   3.879  1.00  0.00     0.091 C 
HETATM   39  O1  UNL     1      12.820  32.758   2.826  1.00  0.00    -0.298 OA
ENDBRANCH  36  37
ENDBRANCH  30  36
ENDBRANCH  26  28
ENDBRANCH  25  26
ENDBRANCH  24  25
ENDBRANCH   1  24
BRANCH   6  40
HETATM   40  O6  UNL     1      13.413  30.889  11.474  1.00  0.00    -0.393 OA
ATOM     41  H6  UNL     1      13.317  30.336  10.707  1.00  0.00     0.210 HD
ENDBRANCH   6  40
TORSDOF 14
ENDMDL
MODEL 5
REMARK VINA RESULT: -10.260451286      1.275      2.084
REMARK  14 active torsions:
REMARK  status: ('A' for Active; 'I' for Inactive)
REMARK    1  A    between atoms: C2_2  and  C3_4 
REMARK    2  A    between atoms: C3_4  and  C4_5 
REMARK    3  A    between atoms: C5_7  and  C7_9 
REMARK    4  A    between atoms: C7_9  and  C9_11 
REMARK    5  A    between atoms: C9_11  and  C10_12 
REMARK    6  A    between atoms: C10_12  and  C11_13 
REMARK    7  A    between atoms: C12_15  and  O4_16 
REMARK    8  A    between atoms: C12_15  and  C13_18 
REMARK    9  A    between atoms: C16_21  and  C17_22 
REMARK   10  A    between atoms: C17_22  and  C19_24 
REMARK   11  A    between atoms: C19_24  and  C20_25 
REMARK   12  A    between atoms: C20_25  and  C21_26 
REMARK   13  A    between atoms: C21_26  and  C22_27 
REMARK   14  A    between atoms: C29_35  and  O6_36 
ROOT
HETATM    1  C11 UNL     1       9.956  32.401  12.847  1.00  0.00     0.154 C 
HETATM    2  O3  UNL     1       9.652  33.250  11.709  1.00  0.00    -0.347 OA
HETATM    3  C12 UNL     1       8.454  33.881  11.892  1.00  0.00     0.172 C 
HETATM    4  C27 UNL     1       7.880  33.784  13.287  1.00  0.00     0.072 C 
HETATM    5  C28 UNL     1       7.602  32.348  13.573  1.00  0.00     0.040 C 
HETATM    6  C29 UNL     1       8.740  31.513  13.028  1.00  0.00     0.147 C 
ENDROOT
BRANCH   3   7
HETATM    7  O4  UNL     1       7.524  33.272  11.044  1.00  0.00    -0.365 OA
ATOM      8  H4  UNL     1       8.000  32.916  10.303  1.00  0.00     0.213 HD
ENDBRANCH   3   7
BRANCH   3   9
HETATM    9  C13 UNL     1       8.498  35.351  11.547  1.00  0.00     0.118 C 
HETATM   10  C14 UNL     1       7.305  36.091  12.151  1.00  0.00     0.018 C 
HETATM   11  C15 UNL     1       7.734  37.526  11.961  1.00  0.00     0.013 C 
HETATM   12  C16 UNL     1       9.243  37.507  12.182  1.00  0.00     0.060 C 
HETATM   13  C26 UNL     1       9.613  36.071  12.210  1.00  0.00     0.140 C 
HETATM   14  O5  UNL     1      10.623  35.605  12.681  1.00  0.00    -0.297 OA
BRANCH  12  15
HETATM   15  C17 UNL     1       9.966  38.284  11.139  1.00  0.00    -0.007 C 
HETATM   16  C18 UNL     1      10.290  37.481   9.902  1.00  0.00     0.011 C 
BRANCH  15  17
HETATM   17  C19 UNL     1      11.264  38.820  11.678  1.00  0.00     0.005 C 
BRANCH  17  18
HETATM   18  C20 UNL     1      11.724  39.998  10.895  1.00  0.00     0.004 C 
BRANCH  18  19
HETATM   19  C21 UNL     1      12.529  39.569   9.693  1.00  0.00     0.027 C 
BRANCH  19  20
HETATM   20  C22 UNL     1      13.960  39.478  10.055  1.00  0.00    -0.025 C 
HETATM   21  C23 UNL     1      14.573  38.309  10.263  1.00  0.00    -0.091 C 
HETATM   22  C24 UNL     1      13.893  37.012  10.154  1.00  0.00     0.042 C 
HETATM   23  C25 UNL     1      16.026  38.330  10.625  1.00  0.00     0.042 C 
ENDBRANCH  19  20
ENDBRANCH  18  19
ENDBRANCH  17  18
ENDBRANCH  15  17
ENDBRANCH  12  15
ENDBRANCH   3   9
BRANCH   1  24
HETATM   24  C10 UNL     1      11.201  31.731  12.486  1.00  0.00     0.035 C 
BRANCH  24  25
HETATM   25  C9  UNL     1      11.631  31.508  11.111  1.00  0.00     0.010 C 
BRANCH  25  26
HETATM   26  C7  UNL     1      12.197  30.169  10.738  1.00  0.00     0.016 C 
HETATM   27  C8  UNL     1      11.773  28.980  11.486  1.00  0.00     0.013 C 
BRANCH  26  28
HETATM   28  C5  UNL     1      12.078  30.027   9.206  1.00  0.00     0.061 C 
HETATM   29  O2  UNL     1      13.206  30.724   8.732  1.00  0.00    -0.374 OA
HETATM   30  C4  UNL     1      13.300  30.610   7.346  1.00  0.00     0.133 C 
HETATM   31  C32 UNL     1      13.652  29.222   6.920  1.00  0.00     0.011 C 
HETATM   32  C31 UNL     1      13.394  28.276   8.048  1.00  0.00     0.010 C 
HETATM   33  C33 UNL     1      12.919  28.818   5.652  1.00  0.00     0.012 C 
HETATM   34  C30 UNL     1      12.085  28.611   8.754  1.00  0.00     0.038 C 
HETATM   35  C6  UNL     1      10.781  30.677   8.797  1.00  0.00     0.046 C 
BRANCH  30  36
HETATM   36  C3  UNL     1      14.270  31.645   6.856  1.00  0.00     0.110 C 
BRANCH  36  37
HETATM   37  C2  UNL     1      13.681  32.463   5.769  1.00  0.00     0.125 C 
HETATM   38  C1  UNL     1      14.516  33.552   5.147  1.00  0.00     0.091 C 
HETATM   39  O1  UNL     1      12.566  32.331   5.327  1.00  0.00    -0.298 OA
ENDBRANCH  36  37
ENDBRANCH  30  36
ENDBRANCH  26  28
ENDBRANCH  25  26
ENDBRANCH  24  25
ENDBRANCH   1  24
BRANCH   6  40
HETATM   40  O6  UNL     1       8.997  30.500  13.904  1.00  0.00    -0.393 OA
ATOM     41  H6  UNL     1       8.620  30.682  14.757  1.00  0.00     0.210 HD
ENDBRANCH   6  40
TORSDOF 14
ENDMDL
