MODEL 1
REMARK VINA RESULT: -8.347032663      0.000      0.000
REMARK  15 active torsions:
REMARK  status: ('A' for Active; 'I' for Inactive)
REMARK    1  A    between atoms: C2_2  and  C3_3 
REMARK    2  A    between atoms: C2_2  and  C17_26 
REMARK    3  A    between atoms: C3_3  and  C4_4 
REMARK    4  A    between atoms: C4_4  and  C5_5 
REMARK    5  A    between atoms: C5_5  and  C6_6 
REMARK    6  A    between atoms: C6_6  and  N1_8 
REMARK       I    between atoms: N1_8  and  C8_9 
REMARK    7  A    between atoms: N1_8  and  C14_23 
REMARK    8  A    between atoms: C8_9  and  O2_11 
REMARK    9  A    between atoms: O2_11  and  C9_12 
REMARK   10  A    between atoms: C11_16  and  C12_17 
REMARK   11  A    between atoms: C12_17  and  O5_18 
REMARK   12  A    between atoms: C13_20  and  O6_21 
REMARK   13  A    between atoms: C17_26  and  C19_28 
REMARK   14  A    between atoms: C19_28  and  C20_29 
REMARK   15  A    between atoms: C20_29  and  C21_30 
ROOT
HETATM    1  C6  UNL     1      12.112  30.578  11.004  1.00  0.00     0.085 C 
HETATM    2  C7  UNL     1      12.196  29.745  12.252  1.00  0.00     0.032 C 
ENDROOT
BRANCH   1   3
HETATM    3  C5  UNL     1      11.207  31.756  11.129  1.00  0.00     0.025 C 
BRANCH   3   4
HETATM    4  C4  UNL     1      11.412  32.602  12.355  1.00  0.00     0.002 C 
BRANCH   4   5
HETATM    5  C3  UNL     1      10.219  32.660  13.253  1.00  0.00     0.005 C 
BRANCH   5   6
HETATM    6  C2  UNL     1       9.064  31.896  12.584  1.00  0.00    -0.015 C 
HETATM    7  C1  UNL     1       8.664  30.744  13.430  1.00  0.00     0.010 C 
BRANCH   6   8
HETATM    8  C17 UNL     1       7.978  32.915  12.347  1.00  0.00    -0.015 C 
HETATM    9  C18 UNL     1       7.556  33.497  13.650  1.00  0.00     0.010 C 
BRANCH   8  10
HETATM   10  C19 UNL     1       8.333  33.954  11.347  1.00  0.00     0.005 C 
BRANCH  10  11
HETATM   11  C20 UNL     1       8.779  35.268  11.804  1.00  0.00     0.006 C 
BRANCH  11  12
HETATM   12  C21 UNL     1       9.212  36.366  10.941  1.00  0.00    -0.003 C 
HETATM   13  C22 UNL     1       8.107  37.453  11.095  1.00  0.00    -0.014 C 
HETATM   14  C23 UNL     1       6.738  36.850  10.777  1.00  0.00     0.010 C 
HETATM   15  C24 UNL     1       8.033  38.002  12.477  1.00  0.00     0.005 C 
HETATM   16  C25 UNL     1       9.403  38.480  12.959  1.00  0.00     0.001 C 
HETATM   17  C26 UNL     1      10.266  38.491  11.742  1.00  0.00     0.009 C 
HETATM   18  C27 UNL     1      10.491  37.064  11.192  1.00  0.00    -0.044 C 
HETATM   19  C28 UNL     1      11.254  37.347   9.874  1.00  0.00     0.015 C 
HETATM   20  C29 UNL     1      11.472  36.443  12.123  1.00  0.00     0.015 C 
ENDBRANCH  11  12
ENDBRANCH  10  11
ENDBRANCH   8  10
ENDBRANCH   6   8
ENDBRANCH   5   6
ENDBRANCH   4   5
ENDBRANCH   3   4
ENDBRANCH   1   3
BRANCH   1  21
HETATM   21  N1  UNL     1      11.850  29.850   9.810  1.00  0.00    -0.320 N 
HETATM   22  C8  UNL     1      12.653  30.209   8.653  1.00  0.00     0.364 C 
HETATM   23  O1  UNL     1      13.523  31.096   8.680  1.00  0.00    -0.238 OA
BRANCH  22  24
HETATM   24  O2  UNL     1      12.462  29.548   7.448  1.00  0.00    -0.286 OA
BRANCH  24  25
HETATM   25  C9  UNL     1      13.318  29.638   6.346  1.00  0.00     0.264 C 
HETATM   26  C10 UNL     1      12.458  29.745   5.127  1.00  0.00     0.291 C 
HETATM   27  O3  UNL     1      11.992  30.776   4.577  1.00  0.00    -0.262 OA
HETATM   28  O4  UNL     1      12.234  28.457   4.662  1.00  0.00    -0.309 OA
HETATM   29  C11 UNL     1      12.846  27.498   5.505  1.00  0.00     0.187 C 
HETATM   30  C13 UNL     1      13.976  28.295   6.119  1.00  0.00     0.189 C 
BRANCH  29  31
HETATM   31  C12 UNL     1      13.368  26.315   4.715  1.00  0.00     0.199 C 
BRANCH  31  32
HETATM   32  O5  UNL     1      12.547  26.202   3.579  1.00  0.00    -0.398 OA
ATOM     33  H5  UNL     1      13.125  26.023   2.847  1.00  0.00     0.209 HD
ENDBRANCH  31  32
ENDBRANCH  29  31
BRANCH  30  34
HETATM   34  O6  UNL     1      14.439  27.730   7.306  1.00  0.00    -0.390 OA
ATOM     35  H6  UNL     1      13.753  27.266   7.773  1.00  0.00     0.210 HD
ENDBRANCH  30  34
ENDBRANCH  24  25
ENDBRANCH  22  24
BRANCH  21  36
HETATM   36  C14 UNL     1      10.888  28.782   9.647  1.00  0.00     0.081 C 
HETATM   37  C15 UNL     1      11.484  27.426  10.020  1.00  0.00     0.032 C 
HETATM   38  C16 UNL     1       9.559  29.007  10.280  1.00  0.00     0.032 C 
ENDBRANCH  21  36
ENDBRANCH   1  21
TORSDOF 15
ENDMDL
MODEL 2
REMARK VINA RESULT: -8.332055683      3.800      8.848
REMARK  15 active torsions:
REMARK  status: ('A' for Active; 'I' for Inactive)
REMARK    1  A    between atoms: C2_2  and  C3_3 
REMARK    2  A    between atoms: C2_2  and  C17_26 
REMARK    3  A    between atoms: C3_3  and  C4_4 
REMARK    4  A    between atoms: C4_4  and  C5_5 
REMARK    5  A    between atoms: C5_5  and  C6_6 
REMARK    6  A    between atoms: C6_6  and  N1_8 
REMARK       I    between atoms: N1_8  and  C8_9 
REMARK    7  A    between atoms: N1_8  and  C14_23 
REMARK    8  A    between atoms: C8_9  and  O2_11 
REMARK    9  A    between atoms: O2_11  and  C9_12 
REMARK   10  A    between atoms: C11_16  and  C12_17 
REMARK   11  A    between atoms: C12_17  and  O5_18 
REMARK   12  A    between atoms: C13_20  and  O6_21 
REMARK   13  A    between atoms: C17_26  and  C19_28 
REMARK   14  A    between atoms: C19_28  and  C20_29 
REMARK   15  A    between atoms: C20_29  and  C21_30 
ROOT
HETATM    1  C6  UNL     1       9.190  32.917  12.546  1.00  0.00     0.085 C 
HETATM    2  C7  UNL     1      10.177  32.599  13.634  1.00  0.00     0.032 C 
ENDROOT
BRANCH   1   3
HETATM    3  C5  UNL     1       9.260  31.987  11.382  1.00  0.00     0.025 C 
BRANCH   3   4
HETATM    4  C4  UNL     1       9.476  30.539  11.723  1.00  0.00     0.002 C 
BRANCH   4   5
HETATM    5  C3  UNL     1       9.781  29.680  10.539  1.00  0.00     0.005 C 
BRANCH   5   6
HETATM    6  C2  UNL     1      11.273  29.309  10.574  1.00  0.00    -0.015 C 
HETATM    7  C1  UNL     1      11.840  29.621  11.908  1.00  0.00     0.010 C 
BRANCH   6   8
HETATM    8  C17 UNL     1      11.344  27.854  10.180  1.00  0.00    -0.015 C 
HETATM    9  C18 UNL     1       9.965  27.305  10.070  1.00  0.00     0.010 C 
BRANCH   8  10
HETATM   10  C19 UNL     1      12.158  27.598   8.964  1.00  0.00     0.005 C 
BRANCH  10  11
HETATM   11  C20 UNL     1      12.309  28.654   7.965  1.00  0.00     0.006 C 
BRANCH  11  12
HETATM   12  C21 UNL     1      13.580  29.187   7.479  1.00  0.00    -0.003 C 
HETATM   13  C22 UNL     1      13.491  29.078   5.928  1.00  0.00    -0.014 C 
HETATM   14  C23 UNL     1      13.173  27.637   5.527  1.00  0.00     0.010 C 
HETATM   15  C24 UNL     1      12.421  29.939   5.353  1.00  0.00     0.005 C 
HETATM   16  C25 UNL     1      12.550  31.384   5.837  1.00  0.00     0.001 C 
HETATM   17  C26 UNL     1      13.894  31.463   6.482  1.00  0.00     0.009 C 
HETATM   18  C27 UNL     1      13.965  30.589   7.754  1.00  0.00    -0.044 C 
HETATM   19  C28 UNL     1      15.461  30.704   8.137  1.00  0.00     0.015 C 
HETATM   20  C29 UNL     1      13.206  31.347   8.786  1.00  0.00     0.015 C 
ENDBRANCH  11  12
ENDBRANCH  10  11
ENDBRANCH   8  10
ENDBRANCH   6   8
ENDBRANCH   5   6
ENDBRANCH   4   5
ENDBRANCH   3   4
ENDBRANCH   1   3
BRANCH   1  21
HETATM   21  N1  UNL     1       9.176  34.274  12.122  1.00  0.00    -0.320 N 
HETATM   22  C8  UNL     1      10.471  34.873  11.845  1.00  0.00     0.364 C 
HETATM   23  O1  UNL     1      11.543  34.254  11.964  1.00  0.00    -0.238 OA
BRANCH  22  24
HETATM   24  O2  UNL     1      10.548  36.193  11.427  1.00  0.00    -0.286 OA
BRANCH  24  25
HETATM   25  C9  UNL     1      11.190  37.216  12.131  1.00  0.00     0.264 C 
HETATM   26  C10 UNL     1      10.353  38.446  11.981  1.00  0.00     0.291 C 
HETATM   27  O3  UNL     1       9.399  38.845  12.699  1.00  0.00    -0.262 OA
HETATM   28  O4  UNL     1      10.811  39.129  10.863  1.00  0.00    -0.309 OA
HETATM   29  C11 UNL     1      11.863  38.423  10.232  1.00  0.00     0.187 C 
HETATM   30  C13 UNL     1      12.439  37.624  11.381  1.00  0.00     0.189 C 
BRANCH  29  31
HETATM   31  C12 UNL     1      12.892  39.365   9.643  1.00  0.00     0.199 C 
BRANCH  31  32
HETATM   32  O5  UNL     1      13.900  39.510  10.613  1.00  0.00    -0.398 OA
ATOM     33  H5  UNL     1      14.678  39.099  10.255  1.00  0.00     0.209 HD
ENDBRANCH  31  32
ENDBRANCH  29  31
BRANCH  30  34
HETATM   34  O6  UNL     1      13.174  36.523  10.946  1.00  0.00    -0.390 OA
ATOM     35  H6  UNL     1      13.918  36.344  11.508  1.00  0.00     0.210 HD
ENDBRANCH  30  34
ENDBRANCH  24  25
ENDBRANCH  22  24
BRANCH  21  36
HETATM   36  C14 UNL     1       8.005  35.100  11.919  1.00  0.00     0.081 C 
HETATM   37  C15 UNL     1       6.842  34.295  11.343  1.00  0.00     0.032 C 
HETATM   38  C16 UNL     1       7.593  35.933  13.082  1.00  0.00     0.032 C 
ENDBRANCH  21  36
ENDBRANCH   1  21
TORSDOF 15
ENDMDL
MODEL 3
REMARK VINA RESULT: -8.244253649      2.066      3.786
REMARK  15 active torsions:
REMARK  status: ('A' for Active; 'I' for Inactive)
REMARK    1  A    between atoms: C2_2  and  C3_3 
REMARK    2  A    between atoms: C2_2  and  C17_26 
REMARK    3  A    between atoms: C3_3  and  C4_4 
REMARK    4  A    between atoms: C4_4  and  C5_5 
REMARK    5  A    between atoms: C5_5  and  C6_6 
REMARK    6  A    between atoms: C6_6  and  N1_8 
REMARK       I    between atoms: N1_8  and  C8_9 
REMARK    7  A    between atoms: N1_8  and  C14_23 
REMARK    8  A    between atoms: C8_9  and  O2_11 
REMARK    9  A    between atoms: O2_11  and  C9_12 
REMARK   10  A    between atoms: C11_16  and  C12_17 
REMARK   11  A    between atoms: C12_17  and  O5_18 
REMARK   12  A    between atoms: C13_20  and  O6_21 
REMARK   13  A    between atoms: C17_26  and  C19_28 
REMARK   14  A    between atoms: C19_28  and  C20_29 
REMARK   15  A    between atoms: C20_29  and  C21_30 
ROOT
HETATM    1  C6  UNL     1      13.876  31.313   7.940  1.00  0.00     0.085 C 
HETATM    2  C7  UNL     1      15.331  31.451   7.592  1.00  0.00     0.032 C 
ENDROOT
BRANCH   1   3
HETATM    3  C5  UNL     1      13.635  30.764   9.305  1.00  0.00     0.025 C 
BRANCH   3   4
HETATM    4  C4  UNL     1      12.896  31.673  10.247  1.00  0.00     0.002 C 
BRANCH   4   5
HETATM    5  C3  UNL     1      11.546  31.166  10.638  1.00  0.00     0.005 C 
BRANCH   5   6
HETATM    6  C2  UNL     1      11.338  31.430  12.139  1.00  0.00    -0.015 C 
HETATM    7  C1  UNL     1      12.591  31.953  12.737  1.00  0.00     0.010 C 
BRANCH   6   8
HETATM    8  C17 UNL     1      10.155  32.361  12.234  1.00  0.00    -0.015 C 
HETATM    9  C18 UNL     1       9.267  31.917  13.343  1.00  0.00     0.010 C 
BRANCH   8  10
HETATM   10  C19 UNL     1      10.523  33.796  12.338  1.00  0.00     0.005 C 
BRANCH  10  11
HETATM   11  C20 UNL     1       9.596  34.814  11.847  1.00  0.00     0.006 C 
BRANCH  11  12
HETATM   12  C21 UNL     1       8.575  35.489  12.646  1.00  0.00    -0.003 C 
HETATM   13  C22 UNL     1       8.726  36.998  12.293  1.00  0.00    -0.014 C 
HETATM   14  C23 UNL     1      10.169  37.445  12.534  1.00  0.00     0.010 C 
HETATM   15  C24 UNL     1       8.411  37.288  10.867  1.00  0.00     0.005 C 
HETATM   16  C25 UNL     1       7.046  36.724  10.474  1.00  0.00     0.001 C 
HETATM   17  C26 UNL     1       6.393  36.342  11.760  1.00  0.00     0.009 C 
HETATM   18  C27 UNL     1       7.141  35.180  12.453  1.00  0.00    -0.044 C 
HETATM   19  C28 UNL     1       6.394  35.082  13.806  1.00  0.00     0.015 C 
HETATM   20  C29 UNL     1       6.770  33.966  11.677  1.00  0.00     0.015 C 
ENDBRANCH  11  12
ENDBRANCH  10  11
ENDBRANCH   8  10
ENDBRANCH   6   8
ENDBRANCH   5   6
ENDBRANCH   4   5
ENDBRANCH   3   4
ENDBRANCH   1   3
BRANCH   1  21
HETATM   21  N1  UNL     1      13.084  30.644   6.967  1.00  0.00    -0.320 N 
HETATM   22  C8  UNL     1      12.510  31.478   5.924  1.00  0.00     0.364 C 
HETATM   23  O1  UNL     1      12.687  32.707   5.865  1.00  0.00    -0.238 OA
BRANCH  22  24
HETATM   24  O2  UNL     1      11.724  30.906   4.935  1.00  0.00    -0.286 OA
BRANCH  24  25
HETATM   25  C9  UNL     1      12.127  30.710   3.611  1.00  0.00     0.264 C 
HETATM   26  C10 UNL     1      11.583  31.851   2.811  1.00  0.00     0.291 C 
HETATM   27  O3  UNL     1      12.106  32.972   2.578  1.00  0.00    -0.262 OA
HETATM   28  O4  UNL     1      10.338  31.469   2.333  1.00  0.00    -0.309 OA
HETATM   29  C11 UNL     1       9.993  30.175   2.791  1.00  0.00     0.187 C 
HETATM   30  C13 UNL     1      11.352  29.551   3.023  1.00  0.00     0.189 C 
BRANCH  29  31
HETATM   31  C12 UNL     1       9.204  29.408   1.750  1.00  0.00     0.199 C 
BRANCH  31  32
HETATM   32  O5  UNL     1       8.675  28.280   2.403  1.00  0.00    -0.398 OA
ATOM     33  H5  UNL     1       9.255  27.556   2.199  1.00  0.00     0.209 HD
ENDBRANCH  31  32
ENDBRANCH  29  31
BRANCH  30  34
HETATM   34  O6  UNL     1      11.294  28.464   3.893  1.00  0.00    -0.390 OA
ATOM     35  H6  UNL     1      10.700  28.617   4.619  1.00  0.00     0.210 HD
ENDBRANCH  30  34
ENDBRANCH  24  25
ENDBRANCH  22  24
BRANCH  21  36
HETATM   36  C14 UNL     1      12.817  29.223   6.904  1.00  0.00     0.081 C 
HETATM   37  C15 UNL     1      13.948  28.470   6.206  1.00  0.00     0.032 C 
HETATM   38  C16 UNL     1      12.421  28.583   8.188  1.00  0.00     0.032 C 
ENDBRANCH  21  36
ENDBRANCH   1  21
TORSDOF 15
ENDMDL
MODEL 4
REMARK VINA RESULT: -8.080842977      3.011      4.937
REMARK  15 active torsions:
REMARK  status: ('A' for Active; 'I' for Inactive)
REMARK    1  A    between atoms: C2_2  and  C3_3 
REMARK    2  A    between atoms: C2_2  and  C17_26 
REMARK    3  A    between atoms: C3_3  and  C4_4 
REMARK    4  A    between atoms: C4_4  and  C5_5 
REMARK    5  A    between atoms: C5_5  and  C6_6 
REMARK    6  A    between atoms: C6_6  and  N1_8 
REMARK       I    between atoms: N1_8  and  C8_9 
REMARK    7  A    between atoms: N1_8  and  C14_23 
REMARK    8  A    between atoms: C8_9  and  O2_11 
REMARK    9  A    between atoms: O2_11  and  C9_12 
REMARK   10  A    between atoms: C11_16  and  C12_17 
REMARK   11  A    between atoms: C12_17  and  O5_18 
REMARK   12  A    between atoms: C13_20  and  O6_21 
REMARK   13  A    between atoms: C17_26  and  C19_28 
REMARK   14  A    between atoms: C19_28  and  C20_29 
REMARK   15  A    between atoms: C20_29  and  C21_30 
ROOT
HETATM    1  C6  UNL     1      14.375  31.494   7.896  1.00  0.00     0.085 C 
HETATM    2  C7  UNL     1      15.823  31.134   8.072  1.00  0.00     0.032 C 
ENDROOT
BRANCH   1   3
HETATM    3  C5  UNL     1      13.450  30.691   8.745  1.00  0.00     0.025 C 
BRANCH   3   4
HETATM    4  C4  UNL     1      13.040  31.333  10.041  1.00  0.00     0.002 C 
BRANCH   4   5
HETATM    5  C3  UNL     1      11.607  31.109  10.398  1.00  0.00     0.005 C 
BRANCH   5   6
HETATM    6  C2  UNL     1      11.431  31.368  11.904  1.00  0.00    -0.015 C 
HETATM    7  C1  UNL     1      12.675  31.948  12.466  1.00  0.00     0.010 C 
BRANCH   6   8
HETATM    8  C17 UNL     1      10.210  32.247  12.030  1.00  0.00    -0.015 C 
HETATM    9  C18 UNL     1       9.310  31.692  13.078  1.00  0.00     0.010 C 
BRANCH   8  10
HETATM   10  C19 UNL     1      10.521  33.682  12.248  1.00  0.00     0.005 C 
BRANCH  10  11
HETATM   11  C20 UNL     1       9.571  34.699  11.799  1.00  0.00     0.006 C 
BRANCH  11  12
HETATM   12  C21 UNL     1       8.572  35.358  12.638  1.00  0.00    -0.003 C 
HETATM   13  C22 UNL     1       8.744  36.878  12.343  1.00  0.00    -0.014 C 
HETATM   14  C23 UNL     1      10.197  37.291  12.583  1.00  0.00     0.010 C 
HETATM   15  C24 UNL     1       8.416  37.229  10.935  1.00  0.00     0.005 C 
HETATM   16  C25 UNL     1       7.036  36.704  10.538  1.00  0.00     0.001 C 
HETATM   17  C26 UNL     1       6.394  36.282  11.817  1.00  0.00     0.009 C 
HETATM   18  C27 UNL     1       7.131  35.081  12.453  1.00  0.00    -0.044 C 
HETATM   19  C28 UNL     1       6.400  34.941  13.811  1.00  0.00     0.015 C 
HETATM   20  C29 UNL     1       6.730  33.905  11.634  1.00  0.00     0.015 C 
ENDBRANCH  11  12
ENDBRANCH  10  11
ENDBRANCH   8  10
ENDBRANCH   6   8
ENDBRANCH   5   6
ENDBRANCH   4   5
ENDBRANCH   3   4
ENDBRANCH   1   3
BRANCH   1  21
HETATM   21  N1  UNL     1      13.926  31.544   6.547  1.00  0.00    -0.320 N 
HETATM   22  C8  UNL     1      14.296  32.729   5.792  1.00  0.00     0.364 C 
HETATM   23  O1  UNL     1      14.966  33.659   6.274  1.00  0.00    -0.238 OA
BRANCH  22  24
HETATM   24  O2  UNL     1      13.899  32.858   4.469  1.00  0.00    -0.286 OA
BRANCH  24  25
HETATM   25  C9  UNL     1      12.700  33.445   4.051  1.00  0.00     0.264 C 
HETATM   26  C10 UNL     1      12.239  32.692   2.843  1.00  0.00     0.291 C 
HETATM   27  O3  UNL     1      11.509  31.668   2.782  1.00  0.00    -0.262 OA
HETATM   28  O4  UNL     1      12.768  33.327   1.729  1.00  0.00    -0.309 OA
HETATM   29  C11 UNL     1      13.582  34.422   2.106  1.00  0.00     0.187 C 
HETATM   30  C13 UNL     1      12.996  34.801   3.449  1.00  0.00     0.189 C 
BRANCH  29  31
HETATM   31  C12 UNL     1      13.476  35.562   1.115  1.00  0.00     0.199 C 
BRANCH  31  32
HETATM   32  O5  UNL     1      12.493  36.434   1.616  1.00  0.00    -0.398 OA
ATOM     33  H5  UNL     1      11.767  35.888   1.895  1.00  0.00     0.209 HD
ENDBRANCH  31  32
ENDBRANCH  29  31
BRANCH  30  34
HETATM   34  O6  UNL     1      13.887  35.537   4.227  1.00  0.00    -0.390 OA
ATOM     35  H6  UNL     1      13.446  36.022   4.915  1.00  0.00     0.210 HD
ENDBRANCH  30  34
ENDBRANCH  24  25
ENDBRANCH  22  24
BRANCH  21  36
HETATM   36  C14 UNL     1      13.164  30.526   5.856  1.00  0.00     0.081 C 
HETATM   37  C15 UNL     1      13.685  29.125   6.168  1.00  0.00     0.032 C 
HETATM   38  C16 UNL     1      11.684  30.622   5.994  1.00  0.00     0.032 C 
ENDBRANCH  21  36
ENDBRANCH   1  21
TORSDOF 15
ENDMDL
MODEL 5
REMARK VINA RESULT: -8.020897313      2.778      4.952
REMARK  15 active torsions:
REMARK  status: ('A' for Active; 'I' for Inactive)
REMARK    1  A    between atoms: C2_2  and  C3_3 
REMARK    2  A    between atoms: C2_2  and  C17_26 
REMARK    3  A    between atoms: C3_3  and  C4_4 
REMARK    4  A    between atoms: C4_4  and  C5_5 
REMARK    5  A    between atoms: C5_5  and  C6_6 
REMARK    6  A    between atoms: C6_6  and  N1_8 
REMARK       I    between atoms: N1_8  and  C8_9 
REMARK    7  A    between atoms: N1_8  and  C14_23 
REMARK    8  A    between atoms: C8_9  and  O2_11 
REMARK    9  A    between atoms: O2_11  and  C9_12 
REMARK   10  A    between atoms: C11_16  and  C12_17 
REMARK   11  A    between atoms: C12_17  and  O5_18 
REMARK   12  A    between atoms: C13_20  and  O6_21 
REMARK   13  A    between atoms: C17_26  and  C19_28 
REMARK   14  A    between atoms: C19_28  and  C20_29 
REMARK   15  A    between atoms: C20_29  and  C21_30 
ROOT
HETATM    1  C6  UNL     1      13.686  30.003   7.647  1.00  0.00     0.085 C 
HETATM    2  C7  UNL     1      14.016  28.670   7.038  1.00  0.00     0.032 C 
ENDROOT
BRANCH   1   3
HETATM    3  C5  UNL     1      12.351  30.047   8.310  1.00  0.00     0.025 C 
BRANCH   3   4
HETATM    4  C4  UNL     1      12.302  30.789   9.617  1.00  0.00     0.002 C 
BRANCH   4   5
HETATM    5  C3  UNL     1      10.933  30.877  10.208  1.00  0.00     0.005 C 
BRANCH   5   6
HETATM    6  C2  UNL     1      11.064  31.256  11.693  1.00  0.00    -0.015 C 
HETATM    7  C1  UNL     1      12.405  31.834  11.950  1.00  0.00     0.010 C 
BRANCH   6   8
HETATM    8  C17 UNL     1       9.909  32.181  11.985  1.00  0.00    -0.015 C 
HETATM    9  C18 UNL     1       9.018  31.552  12.999  1.00  0.00     0.010 C 
BRANCH   8  10
HETATM   10  C19 UNL     1      10.319  33.557  12.364  1.00  0.00     0.005 C 
BRANCH  10  11
HETATM   11  C20 UNL     1       9.564  34.699  11.851  1.00  0.00     0.006 C 
BRANCH  11  12
HETATM   12  C21 UNL     1       8.597  35.488  12.612  1.00  0.00    -0.003 C 
HETATM   13  C22 UNL     1       8.902  36.967  12.232  1.00  0.00    -0.014 C 
HETATM   14  C23 UNL     1      10.377  37.277  12.496  1.00  0.00     0.010 C 
HETATM   15  C24 UNL     1       8.647  37.253  10.793  1.00  0.00     0.005 C 
HETATM   16  C25 UNL     1       7.241  36.816  10.380  1.00  0.00     0.001 C 
HETATM   17  C26 UNL     1       6.528  36.529  11.660  1.00  0.00     0.009 C 
HETATM   18  C27 UNL     1       7.144  35.317  12.394  1.00  0.00    -0.044 C 
HETATM   19  C28 UNL     1       6.363  35.323  13.731  1.00  0.00     0.015 C 
HETATM   20  C29 UNL     1       6.673  34.126  11.635  1.00  0.00     0.015 C 
ENDBRANCH  11  12
ENDBRANCH  10  11
ENDBRANCH   8  10
ENDBRANCH   6   8
ENDBRANCH   5   6
ENDBRANCH   4   5
ENDBRANCH   3   4
ENDBRANCH   1   3
BRANCH   1  21
HETATM   21  N1  UNL     1      13.873  31.121   6.788  1.00  0.00    -0.320 N 
HETATM   22  C8  UNL     1      13.134  31.098   5.536  1.00  0.00     0.364 C 
HETATM   23  O1  UNL     1      12.377  30.166   5.213  1.00  0.00    -0.238 OA
BRANCH  22  24
HETATM   24  O2  UNL     1      13.259  32.149   4.640  1.00  0.00    -0.286 OA
BRANCH  24  25
HETATM   25  C9  UNL     1      12.212  32.670   3.873  1.00  0.00     0.264 C 
HETATM   26  C10 UNL     1      12.438  32.228   2.462  1.00  0.00     0.291 C 
HETATM   27  O3  UNL     1      12.046  31.176   1.891  1.00  0.00    -0.262 OA
HETATM   28  O4  UNL     1      13.191  33.209   1.833  1.00  0.00    -0.309 OA
HETATM   29  C11 UNL     1      13.521  34.251   2.732  1.00  0.00     0.187 C 
HETATM   30  C13 UNL     1      12.394  34.166   3.738  1.00  0.00     0.189 C 
BRANCH  29  31
HETATM   31  C12 UNL     1      13.542  35.598   2.039  1.00  0.00     0.199 C 
BRANCH  31  32
HETATM   32  O5  UNL     1      12.239  36.118   2.140  1.00  0.00    -0.398 OA
ATOM     33  H5  UNL     1      12.329  37.003   2.473  1.00  0.00     0.209 HD
ENDBRANCH  31  32
ENDBRANCH  29  31
BRANCH  30  34
HETATM   34  O6  UNL     1      12.721  34.766   4.953  1.00  0.00    -0.390 OA
ATOM     35  H6  UNL     1      12.312  35.618   5.052  1.00  0.00     0.210 HD
ENDBRANCH  30  34
ENDBRANCH  24  25
ENDBRANCH  22  24
BRANCH  21  36
HETATM   36  C14 UNL     1      14.701  32.279   7.050  1.00  0.00     0.081 C 
HETATM   37  C15 UNL     1      15.557  32.087   8.300  1.00  0.00     0.032 C 
HETATM   38  C16 UNL     1      15.493  32.781   5.895  1.00  0.00     0.032 C 
ENDBRANCH  21  36
ENDBRANCH   1  21
TORSDOF 15
ENDMDL
