MODEL 1
REMARK VINA RESULT: -8.592450995      0.000      0.000
REMARK  15 active torsions:
REMARK  status: ('A' for Active; 'I' for Inactive)
REMARK    1  A    between atoms: C2_2  and  C3_3 
REMARK    2  A    between atoms: C2_2  and  C23_27 
REMARK    3  A    between atoms: C3_3  and  C4_4 
REMARK    4  A    between atoms: C4_4  and  C5_5 
REMARK    5  A    between atoms: C17_17  and  C19_19 
REMARK    6  A    between atoms: C19_19  and  O1_21 
REMARK    7  A    between atoms: C23_27  and  C25_29 
REMARK    8  A    between atoms: C25_29  and  C26_30 
REMARK    9  A    between atoms: C26_30  and  C27_31 
REMARK   10  A    between atoms: C28_32  and  C29_33 
REMARK   11  A    between atoms: C28_32  and  C30_36 
REMARK   12  A    between atoms: C29_33  and  O3_34 
REMARK   13  A    between atoms: C30_36  and  C31_37 
REMARK   14  A    between atoms: C31_37  and  C32_38 
REMARK   15  A    between atoms: C32_38  and  O5_40 
ROOT
HETATM    1  C19 UNL     1      10.367  38.029  -2.480  1.00  0.00     0.150 C 
HETATM    2  C20 UNL     1       9.389  38.753  -1.642  1.00  0.00     0.063 C 
HETATM    3  C21 UNL     1       9.705  37.075  -3.407  1.00  0.00     0.098 C 
HETATM    4  N1  UNL     1       9.196  36.324  -4.125  1.00  0.00    -0.194 NA
ENDROOT
BRANCH   1   5
HETATM    5  C17 UNL     1      11.477  37.319  -1.844  1.00  0.00     0.004 C 
HETATM    6  C13 UNL     1      11.231  36.010  -1.188  1.00  0.00     0.006 C 
HETATM    7  C12 UNL     1      10.147  35.911  -0.197  1.00  0.00     0.035 C 
HETATM    8  C14 UNL     1      12.570  35.821  -0.479  1.00  0.00     0.005 C 
HETATM    9  C11 UNL     1      10.190  34.590   0.449  1.00  0.00     0.007 C 
HETATM   10  C10 UNL     1      11.336  34.000   0.666  1.00  0.00     0.051 C 
HETATM   11  C8  UNL     1      12.655  34.576   0.299  1.00  0.00     0.009 C 
HETATM   12  O2  UNL     1      11.235  32.738   1.295  1.00  0.00    -0.351 OA
HETATM   13  C7  UNL     1      13.509  34.625   1.515  1.00  0.00     0.021 C 
HETATM   14  C9  UNL     1      13.274  33.525  -0.649  1.00  0.00     0.023 C 
HETATM   15  C6  UNL     1      12.898  34.418   2.832  1.00  0.00     0.037 C 
HETATM   16  C5  UNL     1      12.490  33.050   3.254  1.00  0.00    -0.056 C 
HETATM   17  C22 UNL     1      12.264  32.112   2.088  1.00  0.00     0.209 C 
HETATM   18  C15 UNL     1      12.710  37.110   0.250  1.00  0.00     0.007 C 
HETATM   19  C16 UNL     1      12.224  38.124  -0.799  1.00  0.00     0.014 C 
HETATM   20  C18 UNL     1      12.507  37.039  -2.956  1.00  0.00     0.020 C 
BRANCH  16  21
HETATM   21  C4  UNL     1      13.129  32.479   4.454  1.00  0.00     0.005 C 
BRANCH  21  22
HETATM   22  C3  UNL     1      12.395  31.723   5.452  1.00  0.00     0.007 C 
BRANCH  22  23
HETATM   23  C2  UNL     1      12.607  30.290   5.658  1.00  0.00    -0.064 C 
HETATM   24  C1  UNL     1      12.309  29.485   4.629  1.00  0.00     0.019 C 
BRANCH  23  25
HETATM   25  C23 UNL     1      13.188  29.628   6.838  1.00  0.00     0.014 C 
HETATM   26  C24 UNL     1      13.581  28.201   6.438  1.00  0.00     0.015 C 
BRANCH  25  27
HETATM   27  C25 UNL     1      14.288  30.309   7.557  1.00  0.00     0.012 C 
BRANCH  27  28
HETATM   28  C26 UNL     1      13.642  30.951   8.800  1.00  0.00     0.028 C 
BRANCH  28  29
HETATM   29  C27 UNL     1      12.396  30.251   9.165  1.00  0.00    -0.022 C 
HETATM   30  C28 UNL     1      11.708  30.562  10.216  1.00  0.00    -0.060 C 
BRANCH  30  31
HETATM   31  C29 UNL     1      10.443  29.790  10.516  1.00  0.00     0.198 C 
BRANCH  31  32
HETATM   32  O3  UNL     1       9.409  30.155   9.664  1.00  0.00    -0.397 OA
ATOM     33  H3  UNL     1       8.629  29.635   9.819  1.00  0.00     0.209 HD
ENDBRANCH  31  32
ENDBRANCH  30  31
BRANCH  30  34
HETATM   34  C30 UNL     1      12.042  31.646  11.145  1.00  0.00     0.046 C 
BRANCH  34  35
HETATM   35  C31 UNL     1      11.365  31.423  12.505  1.00  0.00     0.115 C 
BRANCH  35  36
HETATM   36  C32 UNL     1      10.520  32.620  12.825  1.00  0.00     0.258 C 
HETATM   37  O4  UNL     1      10.604  33.689  12.197  1.00  0.00    -0.265 OA
BRANCH  36  38
HETATM   38  O5  UNL     1       9.622  32.479  13.874  1.00  0.00    -0.326 OA
HETATM   39  C33 UNL     1       8.235  32.371  13.633  1.00  0.00     0.213 C 
ENDBRANCH  36  38
ENDBRANCH  35  36
ENDBRANCH  34  35
ENDBRANCH  30  34
ENDBRANCH  28  29
ENDBRANCH  27  28
ENDBRANCH  25  27
ENDBRANCH  23  25
ENDBRANCH  22  23
ENDBRANCH  21  22
ENDBRANCH  16  21
ENDBRANCH   1   5
BRANCH   1  40
HETATM   40  O1  UNL     1      10.947  38.993  -3.349  1.00  0.00    -0.375 OA
ATOM     41  H1  UNL     1      11.888  38.897  -3.269  1.00  0.00     0.211 HD
ENDBRANCH   1  40
TORSDOF 15
ENDMDL
MODEL 2
REMARK VINA RESULT: -8.252466646      0.973      1.390
REMARK  15 active torsions:
REMARK  status: ('A' for Active; 'I' for Inactive)
REMARK    1  A    between atoms: C2_2  and  C3_3 
REMARK    2  A    between atoms: C2_2  and  C23_27 
REMARK    3  A    between atoms: C3_3  and  C4_4 
REMARK    4  A    between atoms: C4_4  and  C5_5 
REMARK    5  A    between atoms: C17_17  and  C19_19 
REMARK    6  A    between atoms: C19_19  and  O1_21 
REMARK    7  A    between atoms: C23_27  and  C25_29 
REMARK    8  A    between atoms: C25_29  and  C26_30 
REMARK    9  A    between atoms: C26_30  and  C27_31 
REMARK   10  A    between atoms: C28_32  and  C29_33 
REMARK   11  A    between atoms: C28_32  and  C30_36 
REMARK   12  A    between atoms: C29_33  and  O3_34 
REMARK   13  A    between atoms: C30_36  and  C31_37 
REMARK   14  A    between atoms: C31_37  and  C32_38 
REMARK   15  A    between atoms: C32_38  and  O5_40 
ROOT
HETATM    1  C19 UNL     1      10.362  37.998  -2.502  1.00  0.00     0.150 C 
HETATM    2  C20 UNL     1       9.408  38.746  -1.660  1.00  0.00     0.063 C 
HETATM    3  C21 UNL     1       9.674  37.037  -3.404  1.00  0.00     0.098 C 
HETATM    4  N1  UNL     1       9.144  36.282  -4.101  1.00  0.00    -0.194 NA
ENDROOT
BRANCH   1   5
HETATM    5  C17 UNL     1      11.475  37.285  -1.874  1.00  0.00     0.004 C 
HETATM    6  C13 UNL     1      11.226  35.988  -1.196  1.00  0.00     0.006 C 
HETATM    7  C12 UNL     1      10.157  35.915  -0.187  1.00  0.00     0.035 C 
HETATM    8  C14 UNL     1      12.574  35.794  -0.506  1.00  0.00     0.005 C 
HETATM    9  C11 UNL     1      10.196  34.602   0.477  1.00  0.00     0.007 C 
HETATM   10  C10 UNL     1      11.340  34.003   0.685  1.00  0.00     0.051 C 
HETATM   11  C8  UNL     1      12.659  34.559   0.288  1.00  0.00     0.009 C 
HETATM   12  O2  UNL     1      11.235  32.752   1.332  1.00  0.00    -0.351 OA
HETATM   13  C7  UNL     1      13.533  34.616   1.489  1.00  0.00     0.021 C 
HETATM   14  C9  UNL     1      13.251  33.489  -0.655  1.00  0.00     0.023 C 
HETATM   15  C6  UNL     1      12.941  34.434   2.819  1.00  0.00     0.037 C 
HETATM   16  C5  UNL     1      12.525  33.077   3.267  1.00  0.00    -0.056 C 
HETATM   17  C22 UNL     1      12.270  32.126   2.118  1.00  0.00     0.209 C 
HETATM   18  C15 UNL     1      12.739  37.092   0.202  1.00  0.00     0.007 C 
HETATM   19  C16 UNL     1      12.248  38.097  -0.853  1.00  0.00     0.014 C 
HETATM   20  C18 UNL     1      12.484  36.978  -2.998  1.00  0.00     0.020 C 
BRANCH  16  21
HETATM   21  C4  UNL     1      13.177  32.516   4.464  1.00  0.00     0.005 C 
BRANCH  21  22
HETATM   22  C3  UNL     1      12.437  31.881   5.539  1.00  0.00     0.007 C 
BRANCH  22  23
HETATM   23  C2  UNL     1      12.495  30.439   5.782  1.00  0.00    -0.064 C 
HETATM   24  C1  UNL     1      12.450  29.646   4.703  1.00  0.00     0.019 C 
BRANCH  23  25
HETATM   25  C23 UNL     1      12.678  29.752   7.071  1.00  0.00     0.014 C 
HETATM   26  C24 UNL     1      13.483  28.472   6.817  1.00  0.00     0.015 C 
BRANCH  25  27
HETATM   27  C25 UNL     1      13.234  30.523   8.206  1.00  0.00     0.012 C 
BRANCH  27  28
HETATM   28  C26 UNL     1      12.219  30.367   9.355  1.00  0.00     0.028 C 
BRANCH  28  29
HETATM   29  C27 UNL     1      12.770  30.896  10.618  1.00  0.00    -0.022 C 
HETATM   30  C28 UNL     1      12.040  31.520  11.485  1.00  0.00    -0.060 C 
BRANCH  30  31
HETATM   31  C29 UNL     1      12.688  32.030  12.752  1.00  0.00     0.198 C 
BRANCH  31  32
HETATM   32  O3  UNL     1      12.397  33.371  12.969  1.00  0.00    -0.397 OA
ATOM     33  H3  UNL     1      13.059  33.788  13.508  1.00  0.00     0.209 HD
ENDBRANCH  31  32
ENDBRANCH  30  31
BRANCH  30  34
HETATM   34  C30 UNL     1      10.599  31.752  11.354  1.00  0.00     0.046 C 
BRANCH  34  35
HETATM   35  C31 UNL     1       9.819  30.906  12.372  1.00  0.00     0.115 C 
BRANCH  35  36
HETATM   36  C32 UNL     1       9.076  31.825  13.295  1.00  0.00     0.258 C 
HETATM   37  O4  UNL     1       9.650  32.646  14.031  1.00  0.00    -0.265 OA
BRANCH  36  38
HETATM   38  O5  UNL     1       7.692  31.719  13.291  1.00  0.00    -0.326 OA
HETATM   39  C33 UNL     1       6.876  32.851  13.499  1.00  0.00     0.213 C 
ENDBRANCH  36  38
ENDBRANCH  35  36
ENDBRANCH  34  35
ENDBRANCH  30  34
ENDBRANCH  28  29
ENDBRANCH  27  28
ENDBRANCH  25  27
ENDBRANCH  23  25
ENDBRANCH  22  23
ENDBRANCH  21  22
ENDBRANCH  16  21
ENDBRANCH   1   5
BRANCH   1  40
HETATM   40  O1  UNL     1      10.938  38.941  -3.396  1.00  0.00    -0.375 OA
ATOM     41  H1  UNL     1      11.658  39.351  -2.931  1.00  0.00     0.211 HD
ENDBRANCH   1  40
TORSDOF 15
ENDMDL
MODEL 3
REMARK VINA RESULT: -8.194909039      6.625     10.709
REMARK  15 active torsions:
REMARK  status: ('A' for Active; 'I' for Inactive)
REMARK    1  A    between atoms: C2_2  and  C3_3 
REMARK    2  A    between atoms: C2_2  and  C23_27 
REMARK    3  A    between atoms: C3_3  and  C4_4 
REMARK    4  A    between atoms: C4_4  and  C5_5 
REMARK    5  A    between atoms: C17_17  and  C19_19 
REMARK    6  A    between atoms: C19_19  and  O1_21 
REMARK    7  A    between atoms: C23_27  and  C25_29 
REMARK    8  A    between atoms: C25_29  and  C26_30 
REMARK    9  A    between atoms: C26_30  and  C27_31 
REMARK   10  A    between atoms: C28_32  and  C29_33 
REMARK   11  A    between atoms: C28_32  and  C30_36 
REMARK   12  A    between atoms: C29_33  and  O3_34 
REMARK   13  A    between atoms: C30_36  and  C31_37 
REMARK   14  A    between atoms: C31_37  and  C32_38 
REMARK   15  A    between atoms: C32_38  and  O5_40 
ROOT
HETATM    1  C19 UNL     1      14.025  30.472   7.040  1.00  0.00     0.150 C 
HETATM    2  C20 UNL     1      13.326  31.318   6.051  1.00  0.00     0.063 C 
HETATM    3  C21 UNL     1      13.762  29.026   6.819  1.00  0.00     0.098 C 
HETATM    4  N1  UNL     1      13.554  27.900   6.657  1.00  0.00    -0.194 NA
ENDROOT
BRANCH   1   5
HETATM    5  C17 UNL     1      13.847  30.734   8.468  1.00  0.00     0.004 C 
HETATM    6  C13 UNL     1      12.592  30.312   9.141  1.00  0.00     0.006 C 
HETATM    7  C12 UNL     1      11.307  30.721   8.553  1.00  0.00     0.035 C 
HETATM    8  C14 UNL     1      12.771  31.015  10.484  1.00  0.00     0.005 C 
HETATM    9  C11 UNL     1      10.210  30.351   9.462  1.00  0.00     0.007 C 
HETATM   10  C10 UNL     1      10.386  30.393  10.758  1.00  0.00     0.051 C 
HETATM   11  C8  UNL     1      11.654  30.800  11.416  1.00  0.00     0.009 C 
HETATM   12  O2  UNL     1       9.254  30.015  11.514  1.00  0.00    -0.351 OA
HETATM   13  C7  UNL     1      11.366  31.915  12.357  1.00  0.00     0.021 C 
HETATM   14  C9  UNL     1      12.045  29.574  12.270  1.00  0.00     0.023 C 
HETATM   15  C6  UNL     1      10.072  32.601  12.284  1.00  0.00     0.037 C 
HETATM   16  C5  UNL     1       8.847  31.933  12.804  1.00  0.00    -0.056 C 
HETATM   17  C22 UNL     1       8.975  30.427  12.867  1.00  0.00     0.209 C 
HETATM   18  C15 UNL     1      13.064  32.410  10.058  1.00  0.00     0.007 C 
HETATM   19  C16 UNL     1      14.014  32.187   8.868  1.00  0.00     0.014 C 
HETATM   20  C18 UNL     1      14.980  29.980   9.192  1.00  0.00     0.020 C 
BRANCH  16  21
HETATM   21  C4  UNL     1       8.121  32.588  13.908  1.00  0.00     0.005 C 
BRANCH  21  22
HETATM   22  C3  UNL     1       6.826  33.219  13.734  1.00  0.00     0.007 C 
BRANCH  22  23
HETATM   23  C2  UNL     1       6.687  34.616  13.325  1.00  0.00    -0.064 C 
HETATM   24  C1  UNL     1       5.600  35.264  13.764  1.00  0.00     0.019 C 
BRANCH  23  25
HETATM   25  C23 UNL     1       7.642  35.425  12.551  1.00  0.00     0.014 C 
HETATM   26  C24 UNL     1       7.244  35.346  11.072  1.00  0.00     0.015 C 
BRANCH  25  27
HETATM   27  C25 UNL     1       7.882  36.825  12.971  1.00  0.00     0.012 C 
BRANCH  27  28
HETATM   28  C26 UNL     1       8.926  37.385  11.986  1.00  0.00     0.028 C 
BRANCH  28  29
HETATM   29  C27 UNL     1      10.241  36.750  12.197  1.00  0.00    -0.022 C 
HETATM   30  C28 UNL     1      11.274  37.035  11.471  1.00  0.00    -0.060 C 
BRANCH  30  31
HETATM   31  C29 UNL     1      12.583  36.334  11.757  1.00  0.00     0.198 C 
BRANCH  31  32
HETATM   32  O3  UNL     1      12.398  35.218  12.562  1.00  0.00    -0.397 OA
ATOM     33  H3  UNL     1      12.982  34.510  12.316  1.00  0.00     0.209 HD
ENDBRANCH  31  32
ENDBRANCH  30  31
BRANCH  30  34
HETATM   34  C30 UNL     1      11.289  38.024  10.389  1.00  0.00     0.046 C 
BRANCH  34  35
HETATM   35  C31 UNL     1      11.830  39.370  10.893  1.00  0.00     0.115 C 
BRANCH  35  36
HETATM   36  C32 UNL     1      13.119  39.667  10.188  1.00  0.00     0.258 C 
HETATM   37  O4  UNL     1      13.177  40.358   9.156  1.00  0.00    -0.265 OA
BRANCH  36  38
HETATM   38  O5  UNL     1      14.269  39.127  10.748  1.00  0.00    -0.326 OA
HETATM   39  C33 UNL     1      15.058  38.199  10.035  1.00  0.00     0.213 C 
ENDBRANCH  36  38
ENDBRANCH  35  36
ENDBRANCH  34  35
ENDBRANCH  30  34
ENDBRANCH  28  29
ENDBRANCH  27  28
ENDBRANCH  25  27
ENDBRANCH  23  25
ENDBRANCH  22  23
ENDBRANCH  21  22
ENDBRANCH  16  21
ENDBRANCH   1   5
BRANCH   1  40
HETATM   40  O1  UNL     1      15.415  30.604   6.774  1.00  0.00    -0.375 OA
ATOM     41  H1  UNL     1      15.677  29.821   6.304  1.00  0.00     0.211 HD
ENDBRANCH   1  40
TORSDOF 15
ENDMDL
MODEL 4
REMARK VINA RESULT: -8.083950350      0.926      1.455
REMARK  15 active torsions:
REMARK  status: ('A' for Active; 'I' for Inactive)
REMARK    1  A    between atoms: C2_2  and  C3_3 
REMARK    2  A    between atoms: C2_2  and  C23_27 
REMARK    3  A    between atoms: C3_3  and  C4_4 
REMARK    4  A    between atoms: C4_4  and  C5_5 
REMARK    5  A    between atoms: C17_17  and  C19_19 
REMARK    6  A    between atoms: C19_19  and  O1_21 
REMARK    7  A    between atoms: C23_27  and  C25_29 
REMARK    8  A    between atoms: C25_29  and  C26_30 
REMARK    9  A    between atoms: C26_30  and  C27_31 
REMARK   10  A    between atoms: C28_32  and  C29_33 
REMARK   11  A    between atoms: C28_32  and  C30_36 
REMARK   12  A    between atoms: C29_33  and  O3_34 
REMARK   13  A    between atoms: C30_36  and  C31_37 
REMARK   14  A    between atoms: C31_37  and  C32_38 
REMARK   15  A    between atoms: C32_38  and  O5_40 
ROOT
HETATM    1  C19 UNL     1      10.312  38.079  -2.632  1.00  0.00     0.150 C 
HETATM    2  C20 UNL     1       9.448  38.941  -1.800  1.00  0.00     0.063 C 
HETATM    3  C21 UNL     1       9.524  37.079  -3.400  1.00  0.00     0.098 C 
HETATM    4  N1  UNL     1       8.917  36.293  -3.993  1.00  0.00    -0.194 NA
ENDROOT
BRANCH   1   5
HETATM    5  C17 UNL     1      11.432  37.368  -2.015  1.00  0.00     0.004 C 
HETATM    6  C13 UNL     1      11.187  36.089  -1.302  1.00  0.00     0.006 C 
HETATM    7  C12 UNL     1      10.143  36.049  -0.266  1.00  0.00     0.035 C 
HETATM    8  C14 UNL     1      12.550  35.898  -0.641  1.00  0.00     0.005 C 
HETATM    9  C11 UNL     1      10.186  34.751   0.426  1.00  0.00     0.007 C 
HETATM   10  C10 UNL     1      11.328  34.145   0.619  1.00  0.00     0.051 C 
HETATM   11  C8  UNL     1      12.643  34.680   0.179  1.00  0.00     0.009 C 
HETATM   12  O2  UNL     1      11.228  32.910   1.297  1.00  0.00    -0.351 OA
HETATM   13  C7  UNL     1      13.546  34.754   1.357  1.00  0.00     0.021 C 
HETATM   14  C9  UNL     1      13.202  33.583  -0.754  1.00  0.00     0.023 C 
HETATM   15  C6  UNL     1      12.984  34.608   2.704  1.00  0.00     0.037 C 
HETATM   16  C5  UNL     1      12.566  33.265   3.192  1.00  0.00    -0.056 C 
HETATM   17  C22 UNL     1      12.275  32.291   2.071  1.00  0.00     0.209 C 
HETATM   18  C15 UNL     1      12.744  37.208   0.034  1.00  0.00     0.007 C 
HETATM   19  C16 UNL     1      12.237  38.195  -1.031  1.00  0.00     0.014 C 
HETATM   20  C18 UNL     1      12.411  37.027  -3.156  1.00  0.00     0.020 C 
BRANCH  16  21
HETATM   21  C4  UNL     1      13.242  32.724   4.386  1.00  0.00     0.005 C 
BRANCH  21  22
HETATM   22  C3  UNL     1      14.255  33.461   5.118  1.00  0.00     0.007 C 
BRANCH  22  23
HETATM   23  C2  UNL     1      14.906  32.919   6.311  1.00  0.00    -0.064 C 
HETATM   24  C1  UNL     1      15.624  33.778   7.046  1.00  0.00     0.019 C 
BRANCH  23  25
HETATM   25  C23 UNL     1      14.803  31.552   6.848  1.00  0.00     0.014 C 
HETATM   26  C24 UNL     1      15.730  31.448   8.065  1.00  0.00     0.015 C 
BRANCH  25  27
HETATM   27  C25 UNL     1      13.456  31.014   7.148  1.00  0.00     0.012 C 
BRANCH  27  28
HETATM   28  C26 UNL     1      13.445  30.733   8.663  1.00  0.00     0.028 C 
BRANCH  28  29
HETATM   29  C27 UNL     1      12.172  30.110   9.073  1.00  0.00    -0.022 C 
HETATM   30  C28 UNL     1      11.626  30.340  10.224  1.00  0.00    -0.060 C 
BRANCH  30  31
HETATM   31  C29 UNL     1      10.320  29.657  10.562  1.00  0.00     0.198 C 
BRANCH  31  32
HETATM   32  O3  UNL     1       9.259  30.211   9.858  1.00  0.00    -0.397 OA
ATOM     33  H3  UNL     1       8.866  30.934  10.333  1.00  0.00     0.209 HD
ENDBRANCH  31  32
ENDBRANCH  30  31
BRANCH  30  34
HETATM   34  C30 UNL     1      12.164  31.251  11.238  1.00  0.00     0.046 C 
BRANCH  34  35
HETATM   35  C31 UNL     1      11.351  31.156  12.538  1.00  0.00     0.115 C 
BRANCH  35  36
HETATM   36  C32 UNL     1      10.740  32.495  12.824  1.00  0.00     0.258 C 
HETATM   37  O4  UNL     1      11.126  33.541  12.275  1.00  0.00    -0.265 OA
BRANCH  36  38
HETATM   38  O5  UNL     1       9.701  32.516  13.744  1.00  0.00    -0.326 OA
HETATM   39  C33 UNL     1       8.590  31.658  13.606  1.00  0.00     0.213 C 
ENDBRANCH  36  38
ENDBRANCH  35  36
ENDBRANCH  34  35
ENDBRANCH  30  34
ENDBRANCH  28  29
ENDBRANCH  27  28
ENDBRANCH  25  27
ENDBRANCH  23  25
ENDBRANCH  22  23
ENDBRANCH  21  22
ENDBRANCH  16  21
ENDBRANCH   1   5
BRANCH   1  40
HETATM   40  O1  UNL     1      10.866  38.913  -3.640  1.00  0.00    -0.375 OA
ATOM     41  H1  UNL     1      10.153  39.441  -3.978  1.00  0.00     0.211 HD
ENDBRANCH   1  40
TORSDOF 15
ENDMDL
MODEL 5
REMARK VINA RESULT: -7.901664501      1.801      2.380
REMARK  15 active torsions:
REMARK  status: ('A' for Active; 'I' for Inactive)
REMARK    1  A    between atoms: C2_2  and  C3_3 
REMARK    2  A    between atoms: C2_2  and  C23_27 
REMARK    3  A    between atoms: C3_3  and  C4_4 
REMARK    4  A    between atoms: C4_4  and  C5_5 
REMARK    5  A    between atoms: C17_17  and  C19_19 
REMARK    6  A    between atoms: C19_19  and  O1_21 
REMARK    7  A    between atoms: C23_27  and  C25_29 
REMARK    8  A    between atoms: C25_29  and  C26_30 
REMARK    9  A    between atoms: C26_30  and  C27_31 
REMARK   10  A    between atoms: C28_32  and  C29_33 
REMARK   11  A    between atoms: C28_32  and  C30_36 
REMARK   12  A    between atoms: C29_33  and  O3_34 
REMARK   13  A    between atoms: C30_36  and  C31_37 
REMARK   14  A    between atoms: C31_37  and  C32_38 
REMARK   15  A    between atoms: C32_38  and  O5_40 
ROOT
HETATM    1  C19 UNL     1       8.414  37.715  -1.306  1.00  0.00     0.150 C 
HETATM    2  C20 UNL     1       7.007  37.496  -1.698  1.00  0.00     0.063 C 
HETATM    3  C21 UNL     1       9.073  38.743  -2.154  1.00  0.00     0.098 C 
HETATM    4  N1  UNL     1       9.594  39.536  -2.815  1.00  0.00    -0.194 NA
ENDROOT
BRANCH   1   5
HETATM    5  C17 UNL     1       9.325  36.573  -1.219  1.00  0.00     0.004 C 
HETATM    6  C13 UNL     1       8.822  35.269  -0.716  1.00  0.00     0.006 C 
HETATM    7  C12 UNL     1       8.109  35.239   0.570  1.00  0.00     0.035 C 
HETATM    8  C14 UNL     1      10.145  34.523  -0.569  1.00  0.00     0.005 C 
HETATM    9  C11 UNL     1       7.855  33.843   0.960  1.00  0.00     0.007 C 
HETATM   10  C10 UNL     1       8.722  32.909   0.665  1.00  0.00     0.051 C 
HETATM   11  C8  UNL     1       9.995  33.150  -0.062  1.00  0.00     0.009 C 
HETATM   12  O2  UNL     1       8.357  31.615   1.098  1.00  0.00    -0.351 OA
HETATM   13  C7  UNL     1      11.119  32.633   0.761  1.00  0.00     0.021 C 
HETATM   14  C9  UNL     1       9.892  32.246  -1.311  1.00  0.00     0.023 C 
HETATM   15  C6  UNL     1      10.880  32.280   2.165  1.00  0.00     0.037 C 
HETATM   16  C5  UNL     1      10.145  31.030   2.502  1.00  0.00    -0.056 C 
HETATM   17  C22 UNL     1       9.271  30.534   1.371  1.00  0.00     0.209 C 
HETATM   18  C15 UNL     1      10.944  35.481   0.241  1.00  0.00     0.007 C 
HETATM   19  C16 UNL     1      10.578  36.827  -0.406  1.00  0.00     0.014 C 
HETATM   20  C18 UNL     1       9.819  36.301  -2.654  1.00  0.00     0.020 C 
BRANCH  16  21
HETATM   21  C4  UNL     1      10.850  30.009   3.298  1.00  0.00     0.005 C 
BRANCH  21  22
HETATM   22  C3  UNL     1      12.222  30.167   3.743  1.00  0.00     0.007 C 
BRANCH  22  23
HETATM   23  C2  UNL     1      12.559  30.557   5.112  1.00  0.00    -0.064 C 
HETATM   24  C1  UNL     1      12.434  31.856   5.414  1.00  0.00     0.019 C 
BRANCH  23  25
HETATM   25  C23 UNL     1      12.945  29.678   6.228  1.00  0.00     0.014 C 
HETATM   26  C24 UNL     1      13.133  28.261   5.673  1.00  0.00     0.015 C 
BRANCH  25  27
HETATM   27  C25 UNL     1      14.087  30.080   7.079  1.00  0.00     0.012 C 
BRANCH  27  28
HETATM   28  C26 UNL     1      13.467  30.660   8.365  1.00  0.00     0.028 C 
BRANCH  28  29
HETATM   29  C27 UNL     1      12.295  29.870   8.786  1.00  0.00    -0.022 C 
HETATM   30  C28 UNL     1      11.664  30.099   9.892  1.00  0.00    -0.060 C 
BRANCH  30  31
HETATM   31  C29 UNL     1      10.472  29.238  10.245  1.00  0.00     0.198 C 
BRANCH  31  32
HETATM   32  O3  UNL     1       9.281  29.827   9.842  1.00  0.00    -0.397 OA
ATOM     33  H3  UNL     1       8.627  29.174   9.621  1.00  0.00     0.209 HD
ENDBRANCH  31  32
ENDBRANCH  30  31
BRANCH  30  34
HETATM   34  C30 UNL     1      11.997  31.167  10.839  1.00  0.00     0.046 C 
BRANCH  34  35
HETATM   35  C31 UNL     1      11.358  30.895  12.209  1.00  0.00     0.115 C 
BRANCH  35  36
HETATM   36  C32 UNL     1      10.397  32.003  12.522  1.00  0.00     0.258 C 
HETATM   37  O4  UNL     1      10.430  32.639  13.590  1.00  0.00    -0.265 OA
BRANCH  36  38
HETATM   38  O5  UNL     1       9.453  32.295  11.548  1.00  0.00    -0.326 OA
HETATM   39  C33 UNL     1       8.541  33.358  11.716  1.00  0.00     0.213 C 
ENDBRANCH  36  38
ENDBRANCH  35  36
ENDBRANCH  34  35
ENDBRANCH  30  34
ENDBRANCH  28  29
ENDBRANCH  27  28
ENDBRANCH  25  27
ENDBRANCH  23  25
ENDBRANCH  22  23
ENDBRANCH  21  22
ENDBRANCH  16  21
ENDBRANCH   1   5
BRANCH   1  40
HETATM   40  O1  UNL     1       8.387  38.311  -0.017  1.00  0.00    -0.375 OA
ATOM     41  H1  UNL     1       7.700  38.967  -0.035  1.00  0.00     0.211 HD
ENDBRANCH   1  40
TORSDOF 15
ENDMDL
