MODEL 1
REMARK VINA RESULT: -7.413168909      0.000      0.000
REMARK  8 active torsions:
REMARK  status: ('A' for Active; 'I' for Inactive)
REMARK    1  A    between atoms: C2_2  and  C3_3 
REMARK    2  A    between atoms: N2_9  and  C6_10 
REMARK    3  A    between atoms: C7_13  and  N4_14 
REMARK    4  A    between atoms: C10_20  and  C11_21 
REMARK    5  A    between atoms: C13_23  and  O1_24 
REMARK    6  A    between atoms: C15_26  and  O2_27 
REMARK    7  A    between atoms: C17_29  and  O3_30 
REMARK    8  A    between atoms: C20_33  and  O4_34 
ROOT
HETATM    1  C6  UNL     1       3.722  44.068  16.177  1.00  0.00     0.151 A 
HETATM    2  N3  UNL     1       2.478  43.627  15.949  1.00  0.00    -0.325 N 
ATOM      3  H3  UNL     1       1.787  44.263  15.553  1.00  0.00     0.169 HD
HETATM    4  C7  UNL     1       2.120  42.350  16.236  1.00  0.00     0.122 A 
HETATM    5  C8  UNL     1       3.075  41.499  16.778  1.00  0.00     0.102 A 
HETATM    6  C9  UNL     1       2.719  40.131  17.094  1.00  0.00     0.104 C 
HETATM    7  N5  UNL     1       2.422  39.029  17.356  1.00  0.00    -0.191 NA
HETATM    8  C10 UNL     1       4.367  41.897  17.034  1.00  0.00     0.036 A 
HETATM    9  C20 UNL     1       4.666  43.212  16.718  1.00  0.00     0.123 A 
ENDROOT
BRANCH   4  10
HETATM   10  N4  UNL     1       0.913  41.907  16.021  1.00  0.00    -0.384 N 
ATOM     11  H42 UNL     1       0.460  42.096  15.126  1.00  0.00     0.157 HD
ATOM     12  H41 UNL     1       0.402  41.371  16.722  1.00  0.00     0.157 HD
ENDBRANCH   4  10
BRANCH   8  13
HETATM   13  C11 UNL     1       5.361  40.993  17.598  1.00  0.00    -0.016 A 
HETATM   14  C12 UNL     1       5.249  40.471  18.882  1.00  0.00     0.052 A 
HETATM   15  C13 UNL     1       6.204  39.631  19.410  1.00  0.00     0.105 A 
HETATM   16  C15 UNL     1       7.325  39.285  18.647  1.00  0.00     0.135 A 
HETATM   17  C17 UNL     1       7.449  39.798  17.368  1.00  0.00     0.105 A 
HETATM   18  C19 UNL     1       6.469  40.643  16.862  1.00  0.00     0.052 A 
BRANCH  15  19
HETATM   19  O1  UNL     1       6.141  39.082  20.680  1.00  0.00    -0.353 OA
HETATM   20  C14 UNL     1       5.588  37.785  20.862  1.00  0.00     0.210 C 
ENDBRANCH  15  19
BRANCH  16  21
HETATM   21  O2  UNL     1       8.284  38.450  19.162  1.00  0.00    -0.351 OA
HETATM   22  C16 UNL     1       9.411  38.798  19.898  1.00  0.00     0.210 C 
ENDBRANCH  16  21
BRANCH  17  23
HETATM   23  O3  UNL     1       8.569  39.434  16.642  1.00  0.00    -0.353 OA
HETATM   24  C18 UNL     1       8.709  39.792  15.300  1.00  0.00     0.210 C 
ENDBRANCH  17  23
ENDBRANCH   8  13
BRANCH   9  25
HETATM   25  O4  UNL     1       5.935  43.675  16.948  1.00  0.00    -0.356 OA
ATOM     26  H4  UNL     1       6.095  44.238  17.696  1.00  0.00     0.218 HD
ENDBRANCH   9  25
BRANCH   1  27
HETATM   27  N2  UNL     1       4.059  45.411  15.857  1.00  0.00    -0.263 N 
HETATM   28  C5  UNL     1       4.227  46.505  16.760  1.00  0.00     0.181 C 
HETATM   29  N1  UNL     1       4.563  47.673  16.032  1.00  0.00    -0.351 N 
HETATM   30  S1  UNL     1       4.070  46.481  18.384  1.00  0.00    -0.040 SA
HETATM   31  C3  UNL     1       4.273  47.399  14.643  1.00  0.00     0.082 C 
ATOM     32  H1  UNL     1       4.938  48.540  16.414  1.00  0.00     0.163 HD
HETATM   33  C4  UNL     1       5.415  47.893  13.757  1.00  0.00     0.046 C 
HETATM   34  C21 UNL     1       4.298  45.923  14.559  1.00  0.00     0.116 C 
HETATM   35  S2  UNL     1       4.565  45.098  13.180  1.00  0.00    -0.062 SA
BRANCH  31  36
HETATM   36  C2  UNL     1       3.001  48.018  14.162  1.00  0.00     0.033 C 
HETATM   37  C1  UNL     1       2.549  49.200  14.938  1.00  0.00     0.008 C 
ENDBRANCH  31  36
ENDBRANCH   1  27
TORSDOF 8
ENDMDL
MODEL 2
REMARK VINA RESULT: -7.373080212      2.788      4.477
REMARK  8 active torsions:
REMARK  status: ('A' for Active; 'I' for Inactive)
REMARK    1  A    between atoms: C2_2  and  C3_3 
REMARK    2  A    between atoms: N2_9  and  C6_10 
REMARK    3  A    between atoms: C7_13  and  N4_14 
REMARK    4  A    between atoms: C10_20  and  C11_21 
REMARK    5  A    between atoms: C13_23  and  O1_24 
REMARK    6  A    between atoms: C15_26  and  O2_27 
REMARK    7  A    between atoms: C17_29  and  O3_30 
REMARK    8  A    between atoms: C20_33  and  O4_34 
ROOT
HETATM    1  C6  UNL     1       4.561  43.321  15.814  1.00  0.00     0.151 A 
HETATM    2  N3  UNL     1       4.826  43.570  14.525  1.00  0.00    -0.325 N 
ATOM      3  H3  UNL     1       4.166  44.120  13.975  1.00  0.00     0.169 HD
HETATM    4  C7  UNL     1       5.956  43.104  13.936  1.00  0.00     0.122 A 
HETATM    5  C8  UNL     1       6.842  42.354  14.700  1.00  0.00     0.102 A 
HETATM    6  C9  UNL     1       8.055  41.844  14.096  1.00  0.00     0.104 C 
HETATM    7  N5  UNL     1       9.030  41.428  13.599  1.00  0.00    -0.191 NA
HETATM    8  C10 UNL     1       6.620  42.067  16.027  1.00  0.00     0.036 A 
HETATM    9  C20 UNL     1       5.449  42.573  16.566  1.00  0.00     0.123 A 
ENDROOT
BRANCH   4  10
HETATM   10  N4  UNL     1       6.227  43.337  12.683  1.00  0.00    -0.384 N 
ATOM     11  H42 UNL     1       5.560  43.857  12.112  1.00  0.00     0.157 HD
ATOM     12  H41 UNL     1       7.093  43.016  12.249  1.00  0.00     0.157 HD
ENDBRANCH   4  10
BRANCH   8  13
HETATM   13  C11 UNL     1       7.560  41.284  16.819  1.00  0.00    -0.016 A 
HETATM   14  C12 UNL     1       8.711  41.836  17.370  1.00  0.00     0.052 A 
HETATM   15  C13 UNL     1       9.600  41.081  18.103  1.00  0.00     0.105 A 
HETATM   16  C15 UNL     1       9.352  39.719  18.306  1.00  0.00     0.135 A 
HETATM   17  C17 UNL     1       8.211  39.156  17.763  1.00  0.00     0.105 A 
HETATM   18  C19 UNL     1       7.332  39.943  17.029  1.00  0.00     0.052 A 
BRANCH  15  19
HETATM   19  O1  UNL     1      10.758  41.580  18.675  1.00  0.00    -0.353 OA
HETATM   20  C14 UNL     1      11.345  42.769  18.160  1.00  0.00     0.210 C 
ENDBRANCH  15  19
BRANCH  16  21
HETATM   21  O2  UNL     1      10.230  38.955  19.033  1.00  0.00    -0.351 OA
HETATM   22  C16 UNL     1      10.202  38.690  20.397  1.00  0.00     0.210 C 
ENDBRANCH  16  21
BRANCH  17  23
HETATM   23  O3  UNL     1       7.998  37.807  17.985  1.00  0.00    -0.353 OA
HETATM   24  C18 UNL     1       6.753  37.330  18.398  1.00  0.00     0.210 C 
ENDBRANCH  17  23
ENDBRANCH   8  13
BRANCH   9  25
HETATM   25  O4  UNL     1       5.165  42.325  17.884  1.00  0.00    -0.356 OA
ATOM     26  H4  UNL     1       5.821  41.904  18.427  1.00  0.00     0.218 HD
ENDBRANCH   9  25
BRANCH   1  27
HETATM   27  N2  UNL     1       3.368  43.833  16.395  1.00  0.00    -0.263 N 
HETATM   28  C5  UNL     1       3.092  45.186  16.764  1.00  0.00     0.181 C 
HETATM   29  N1  UNL     1       1.786  45.270  17.308  1.00  0.00    -0.351 N 
HETATM   30  S1  UNL     1       4.078  46.475  16.610  1.00  0.00    -0.040 SA
HETATM   31  C3  UNL     1       1.366  43.919  17.600  1.00  0.00     0.082 C 
ATOM     32  H1  UNL     1       1.247  46.121  17.463  1.00  0.00     0.163 HD
HETATM   33  C4  UNL     1      -0.073  43.700  17.135  1.00  0.00     0.046 C 
HETATM   34  C21 UNL     1       2.212  43.085  16.720  1.00  0.00     0.116 C 
HETATM   35  S2  UNL     1       1.817  41.578  16.244  1.00  0.00    -0.062 SA
BRANCH  31  36
HETATM   36  C2  UNL     1       1.452  43.563  19.048  1.00  0.00     0.033 C 
HETATM   37  C1  UNL     1       0.148  43.500  19.755  1.00  0.00     0.008 C 
ENDBRANCH  31  36
ENDBRANCH   1  27
TORSDOF 8
ENDMDL
MODEL 3
REMARK VINA RESULT: -7.361866802      2.772      4.242
REMARK  8 active torsions:
REMARK  status: ('A' for Active; 'I' for Inactive)
REMARK    1  A    between atoms: C2_2  and  C3_3 
REMARK    2  A    between atoms: N2_9  and  C6_10 
REMARK    3  A    between atoms: C7_13  and  N4_14 
REMARK    4  A    between atoms: C10_20  and  C11_21 
REMARK    5  A    between atoms: C13_23  and  O1_24 
REMARK    6  A    between atoms: C15_26  and  O2_27 
REMARK    7  A    between atoms: C17_29  and  O3_30 
REMARK    8  A    between atoms: C20_33  and  O4_34 
ROOT
HETATM    1  C6  UNL     1       4.575  43.253  15.900  1.00  0.00     0.151 A 
HETATM    2  N3  UNL     1       4.843  43.539  14.619  1.00  0.00    -0.325 N 
ATOM      3  H3  UNL     1       4.186  44.109  14.086  1.00  0.00     0.169 HD
HETATM    4  C7  UNL     1       5.970  43.084  14.016  1.00  0.00     0.122 A 
HETATM    5  C8  UNL     1       6.851  42.307  14.757  1.00  0.00     0.102 A 
HETATM    6  C9  UNL     1       8.062  41.808  14.138  1.00  0.00     0.104 C 
HETATM    7  N5  UNL     1       9.034  41.401  13.629  1.00  0.00    -0.191 NA
HETATM    8  C10 UNL     1       6.628  41.981  16.075  1.00  0.00     0.036 A 
HETATM    9  C20 UNL     1       5.459  42.477  16.629  1.00  0.00     0.123 A 
ENDROOT
BRANCH   4  10
HETATM   10  N4  UNL     1       6.242  43.353  12.771  1.00  0.00    -0.384 N 
ATOM     11  H42 UNL     1       7.216  43.434  12.475  1.00  0.00     0.157 HD
ATOM     12  H41 UNL     1       5.509  43.485  12.073  1.00  0.00     0.157 HD
ENDBRANCH   4  10
BRANCH   8  13
HETATM   13  C11 UNL     1       7.563  41.169  16.843  1.00  0.00    -0.016 A 
HETATM   14  C12 UNL     1       7.348  39.817  17.088  1.00  0.00     0.052 A 
HETATM   15  C13 UNL     1       8.231  39.065  17.830  1.00  0.00     0.105 A 
HETATM   16  C15 UNL     1       9.380  39.663  18.361  1.00  0.00     0.135 A 
HETATM   17  C17 UNL     1       9.605  41.007  18.126  1.00  0.00     0.105 A 
HETATM   18  C19 UNL     1       8.697  41.741  17.373  1.00  0.00     0.052 A 
BRANCH  15  19
HETATM   19  O1  UNL     1       8.067  37.717  18.102  1.00  0.00    -0.353 OA
HETATM   20  C14 UNL     1       6.769  37.203  18.371  1.00  0.00     0.210 C 
ENDBRANCH  15  19
BRANCH  16  21
HETATM   21  O2  UNL     1      10.266  38.924  19.103  1.00  0.00    -0.351 OA
HETATM   22  C16 UNL     1      10.259  38.712  20.477  1.00  0.00     0.210 C 
ENDBRANCH  16  21
BRANCH  17  23
HETATM   23  O3  UNL     1      10.751  41.565  18.665  1.00  0.00    -0.353 OA
HETATM   24  C18 UNL     1      11.280  42.756  18.165  1.00  0.00     0.210 C 
ENDBRANCH  17  23
ENDBRANCH   8  13
BRANCH   9  25
HETATM   25  O4  UNL     1       5.174  42.191  17.939  1.00  0.00    -0.356 OA
ATOM     26  H4  UNL     1       4.569  41.487  18.138  1.00  0.00     0.218 HD
ENDBRANCH   9  25
BRANCH   1  27
HETATM   27  N2  UNL     1       3.386  43.754  16.496  1.00  0.00    -0.263 N 
HETATM   28  C5  UNL     1       3.138  45.083  16.959  1.00  0.00     0.181 C 
HETATM   29  N1  UNL     1       1.825  45.163  17.485  1.00  0.00    -0.351 N 
HETATM   30  S1  UNL     1       4.162  46.352  16.918  1.00  0.00    -0.040 SA
HETATM   31  C3  UNL     1       1.363  43.807  17.669  1.00  0.00     0.082 C 
ATOM     32  H1  UNL     1       1.306  46.016  17.693  1.00  0.00     0.163 HD
HETATM   33  C4  UNL     1      -0.072  43.664  17.163  1.00  0.00     0.046 C 
HETATM   34  C21 UNL     1       2.204  43.017  16.744  1.00  0.00     0.116 C 
HETATM   35  S2  UNL     1       1.778  41.560  16.151  1.00  0.00    -0.062 SA
BRANCH  31  36
HETATM   36  C2  UNL     1       1.412  43.343  19.088  1.00  0.00     0.033 C 
HETATM   37  C1  UNL     1       0.166  43.571  19.863  1.00  0.00     0.008 C 
ENDBRANCH  31  36
ENDBRANCH   1  27
TORSDOF 8
ENDMDL
MODEL 4
REMARK VINA RESULT: -7.345083034      3.878      8.084
REMARK  8 active torsions:
REMARK  status: ('A' for Active; 'I' for Inactive)
REMARK    1  A    between atoms: C2_2  and  C3_3 
REMARK    2  A    between atoms: N2_9  and  C6_10 
REMARK    3  A    between atoms: C7_13  and  N4_14 
REMARK    4  A    between atoms: C10_20  and  C11_21 
REMARK    5  A    between atoms: C13_23  and  O1_24 
REMARK    6  A    between atoms: C15_26  and  O2_27 
REMARK    7  A    between atoms: C17_29  and  O3_30 
REMARK    8  A    between atoms: C20_33  and  O4_34 
ROOT
HETATM    1  C6  UNL     1       8.029  41.413  16.485  1.00  0.00     0.151 A 
HETATM    2  N3  UNL     1       8.604  41.386  15.275  1.00  0.00    -0.325 N 
ATOM      3  H3  UNL     1       9.499  40.913  15.157  1.00  0.00     0.169 HD
HETATM    4  C7  UNL     1       8.018  41.977  14.203  1.00  0.00     0.122 A 
HETATM    5  C8  UNL     1       6.799  42.620  14.384  1.00  0.00     0.102 A 
HETATM    6  C9  UNL     1       6.152  43.259  13.257  1.00  0.00     0.104 C 
HETATM    7  N5  UNL     1       5.638  43.781  12.345  1.00  0.00    -0.191 NA
HETATM    8  C10 UNL     1       6.163  42.679  15.603  1.00  0.00     0.036 A 
HETATM    9  C20 UNL     1       6.815  42.056  16.654  1.00  0.00     0.123 A 
ENDROOT
BRANCH   4  10
HETATM   10  N4  UNL     1       8.565  41.961  13.022  1.00  0.00    -0.384 N 
ATOM     11  H42 UNL     1       9.134  41.161  12.742  1.00  0.00     0.157 HD
ATOM     12  H41 UNL     1       8.442  42.726  12.358  1.00  0.00     0.157 HD
ENDBRANCH   4  10
BRANCH   8  13
HETATM   13  C11 UNL     1       4.882  43.351  15.779  1.00  0.00    -0.016 A 
HETATM   14  C12 UNL     1       3.668  42.693  15.622  1.00  0.00     0.052 A 
HETATM   15  C13 UNL     1       2.464  43.344  15.774  1.00  0.00     0.105 A 
HETATM   16  C15 UNL     1       2.445  44.706  16.093  1.00  0.00     0.135 A 
HETATM   17  C17 UNL     1       3.647  45.374  16.252  1.00  0.00     0.105 A 
HETATM   18  C19 UNL     1       4.846  44.691  16.093  1.00  0.00     0.052 A 
BRANCH  15  19
HETATM   19  O1  UNL     1       1.227  42.737  15.631  1.00  0.00    -0.353 OA
HETATM   20  C14 UNL     1       1.088  41.347  15.898  1.00  0.00     0.210 C 
ENDBRANCH  15  19
BRANCH  16  21
HETATM   21  O2  UNL     1       1.253  45.367  16.246  1.00  0.00    -0.351 OA
HETATM   22  C16 UNL     1       0.505  46.014  15.269  1.00  0.00     0.210 C 
ENDBRANCH  16  21
BRANCH  17  23
HETATM   23  O3  UNL     1       3.590  46.720  16.569  1.00  0.00    -0.353 OA
HETATM   24  C18 UNL     1       4.038  47.693  15.674  1.00  0.00     0.210 C 
ENDBRANCH  17  23
ENDBRANCH   8  13
BRANCH   9  25
HETATM   25  O4  UNL     1       6.238  42.077  17.897  1.00  0.00    -0.356 OA
ATOM     26  H4  UNL     1       6.480  42.762  18.509  1.00  0.00     0.218 HD
ENDBRANCH   9  25
BRANCH   1  27
HETATM   27  N2  UNL     1       8.673  40.776  17.581  1.00  0.00    -0.263 N 
HETATM   28  C5  UNL     1       9.764  41.274  18.358  1.00  0.00     0.181 C 
HETATM   29  N1  UNL     1      10.103  40.329  19.356  1.00  0.00    -0.351 N 
HETATM   30  S1  UNL     1      10.540  42.697  18.176  1.00  0.00    -0.040 SA
HETATM   31  C3  UNL     1       9.457  39.088  18.996  1.00  0.00     0.082 C 
ATOM     32  H1  UNL     1      10.692  40.493  20.173  1.00  0.00     0.163 HD
HETATM   33  C4  UNL     1       8.807  38.454  20.226  1.00  0.00     0.046 C 
HETATM   34  C21 UNL     1       8.345  39.509  18.117  1.00  0.00     0.116 C 
HETATM   35  S2  UNL     1       7.005  38.618  17.861  1.00  0.00    -0.062 SA
BRANCH  31  36
HETATM   36  C2  UNL     1      10.379  38.087  18.381  1.00  0.00     0.033 C 
HETATM   37  C1  UNL     1      11.778  38.138  18.876  1.00  0.00     0.008 C 
ENDBRANCH  31  36
ENDBRANCH   1  27
TORSDOF 8
ENDMDL
MODEL 5
REMARK VINA RESULT: -7.322798027      3.876      8.190
REMARK  8 active torsions:
REMARK  status: ('A' for Active; 'I' for Inactive)
REMARK    1  A    between atoms: C2_2  and  C3_3 
REMARK    2  A    between atoms: N2_9  and  C6_10 
REMARK    3  A    between atoms: C7_13  and  N4_14 
REMARK    4  A    between atoms: C10_20  and  C11_21 
REMARK    5  A    between atoms: C13_23  and  O1_24 
REMARK    6  A    between atoms: C15_26  and  O2_27 
REMARK    7  A    between atoms: C17_29  and  O3_30 
REMARK    8  A    between atoms: C20_33  and  O4_34 
ROOT
HETATM    1  C6  UNL     1       8.009  41.416  16.466  1.00  0.00     0.151 A 
HETATM    2  N3  UNL     1       8.586  41.376  15.258  1.00  0.00    -0.325 N 
ATOM      3  H3  UNL     1       9.474  40.888  15.144  1.00  0.00     0.169 HD
HETATM    4  C7  UNL     1       8.013  41.974  14.184  1.00  0.00     0.122 A 
HETATM    5  C8  UNL     1       6.805  42.637  14.359  1.00  0.00     0.102 A 
HETATM    6  C9  UNL     1       6.171  43.283  13.229  1.00  0.00     0.104 C 
HETATM    7  N5  UNL     1       5.669  43.811  12.313  1.00  0.00    -0.191 NA
HETATM    8  C10 UNL     1       6.167  42.710  15.576  1.00  0.00     0.036 A 
HETATM    9  C20 UNL     1       6.806  42.079  16.631  1.00  0.00     0.123 A 
ENDROOT
BRANCH   4  10
HETATM   10  N4  UNL     1       8.563  41.944  13.003  1.00  0.00    -0.384 N 
ATOM     11  H42 UNL     1       8.286  42.632  12.302  1.00  0.00     0.157 HD
ATOM     12  H41 UNL     1       9.271  41.252  12.754  1.00  0.00     0.157 HD
ENDBRANCH   4  10
BRANCH   8  13
HETATM   13  C11 UNL     1       4.897  43.404  15.747  1.00  0.00    -0.016 A 
HETATM   14  C12 UNL     1       4.824  44.752  16.081  1.00  0.00     0.052 A 
HETATM   15  C13 UNL     1       3.617  45.392  16.256  1.00  0.00     0.105 A 
HETATM   16  C15 UNL     1       2.423  44.680  16.098  1.00  0.00     0.135 A 
HETATM   17  C17 UNL     1       2.481  43.338  15.766  1.00  0.00     0.105 A 
HETATM   18  C19 UNL     1       3.713  42.719  15.595  1.00  0.00     0.052 A 
BRANCH  15  19
HETATM   19  O1  UNL     1       3.487  46.731  16.587  1.00  0.00    -0.353 OA
HETATM   20  C14 UNL     1       3.861  47.730  15.647  1.00  0.00     0.210 C 
ENDBRANCH  15  19
BRANCH  16  21
HETATM   21  O2  UNL     1       1.214  45.306  16.271  1.00  0.00    -0.351 OA
HETATM   22  C16 UNL     1       0.425  45.918  15.303  1.00  0.00     0.210 C 
ENDBRANCH  16  21
BRANCH  17  23
HETATM   23  O3  UNL     1       1.280  42.667  15.616  1.00  0.00    -0.353 OA
HETATM   24  C18 UNL     1       1.155  41.322  15.968  1.00  0.00     0.210 C 
ENDBRANCH  17  23
ENDBRANCH   8  13
BRANCH   9  25
HETATM   25  O4  UNL     1       6.226  42.114  17.872  1.00  0.00    -0.356 OA
ATOM     26  H4  UNL     1       5.363  41.734  17.991  1.00  0.00     0.218 HD
ENDBRANCH   9  25
BRANCH   1  27
HETATM   27  N2  UNL     1       8.640  40.772  17.566  1.00  0.00    -0.263 N 
HETATM   28  C5  UNL     1       9.747  41.246  18.334  1.00  0.00     0.181 C 
HETATM   29  N1  UNL     1      10.064  40.301  19.340  1.00  0.00    -0.351 N 
HETATM   30  S1  UNL     1      10.562  42.645  18.135  1.00  0.00    -0.040 SA
HETATM   31  C3  UNL     1       9.382  39.076  18.995  1.00  0.00     0.082 C 
ATOM     32  H1  UNL     1      10.660  40.456  20.153  1.00  0.00     0.163 HD
HETATM   33  C4  UNL     1       8.720  38.471  20.232  1.00  0.00     0.046 C 
HETATM   34  C21 UNL     1       8.279  39.519  18.115  1.00  0.00     0.116 C 
HETATM   35  S2  UNL     1       6.913  38.664  17.873  1.00  0.00    -0.062 SA
BRANCH  31  36
HETATM   36  C2  UNL     1      10.273  38.043  18.385  1.00  0.00     0.033 C 
HETATM   37  C1  UNL     1      11.652  38.006  18.934  1.00  0.00     0.008 C 
ENDBRANCH  31  36
ENDBRANCH   1  27
TORSDOF 8
ENDMDL
