MODEL 1
REMARK VINA RESULT: -8.550594407      0.000      0.000
REMARK  10 active torsions:
REMARK  status: ('A' for Active; 'I' for Inactive)
REMARK    1  A    between atoms: C2_2  and  C3_3 
REMARK    2  A    between atoms: C2_2  and  C17_27 
REMARK    3  A    between atoms: C4_4  and  C5_5 
REMARK    4  A    between atoms: C10_11  and  O2_12 
REMARK    5  A    between atoms: C12_18  and  C13_19 
REMARK    6  A    between atoms: C13_19  and  O5_20 
REMARK    7  A    between atoms: C13_19  and  C14_22 
REMARK    8  A    between atoms: C14_22  and  O6_25 
REMARK    9  A    between atoms: C21_31  and  O7_32 
REMARK   10  A    between atoms: C21_31  and  C22_34 
ROOT
HETATM    1  C5  UNL     1       6.266  41.384  16.498  1.00  0.00     0.189 C 
HETATM    2  O1  UNL     1       5.637  40.507  17.321  1.00  0.00    -0.371 OA
HETATM    3  C6  UNL     1       5.259  40.917  18.557  1.00  0.00     0.126 C 
HETATM    4  C7  UNL     1       5.698  39.807  19.534  1.00  0.00     0.040 C 
HETATM    5  C8  UNL     1       3.750  40.963  18.631  1.00  0.00     0.054 C 
HETATM    6  C9  UNL     1       3.328  41.725  19.902  1.00  0.00     0.016 C 
HETATM    7  C10 UNL     1       3.054  41.465  17.440  1.00  0.00     0.250 C 
HETATM    8  S1  UNL     1       3.777  42.859  16.618  1.00  0.00     0.201 S 
HETATM    9  O3  UNL     1       3.601  44.044  17.504  1.00  0.00    -0.220 OA
HETATM   10  O4  UNL     1       2.893  43.072  15.395  1.00  0.00    -0.220 OA
HETATM   11  C11 UNL     1       5.428  42.589  16.177  1.00  0.00     0.071 C 
HETATM   12  C12 UNL     1       6.039  43.490  15.476  1.00  0.00     0.029 C 
ENDROOT
BRANCH   1  13
HETATM   13  C4  UNL     1       7.612  41.674  16.989  1.00  0.00     0.011 C 
HETATM   14  C3  UNL     1       8.343  40.762  17.556  1.00  0.00     0.006 C 
BRANCH  14  15
HETATM   15  C2  UNL     1       9.714  40.910  18.091  1.00  0.00    -0.059 C 
HETATM   16  C1  UNL     1      10.144  42.131  18.217  1.00  0.00     0.019 C 
BRANCH  15  17
HETATM   17  C17 UNL     1      10.436  39.723  18.403  1.00  0.00     0.049 C 
HETATM   18  C18 UNL     1       9.870  38.427  17.719  1.00  0.00     0.014 C 
HETATM   19  C19 UNL     1      10.974  37.448  17.750  1.00  0.00     0.004 C 
HETATM   20  C20 UNL     1      12.116  37.623  18.667  1.00  0.00     0.042 C 
HETATM   21  C21 UNL     1      11.897  38.438  19.917  1.00  0.00     0.081 C 
HETATM   22  C24 UNL     1      10.580  39.194  19.755  1.00  0.00    -0.047 C 
HETATM   23  C25 UNL     1       9.754  39.181  20.719  1.00  0.00     0.018 C 
BRANCH  21  24
HETATM   24  O7  UNL     1      11.830  37.659  21.051  1.00  0.00    -0.385 OA
ATOM     25  H7  UNL     1      11.289  38.048  21.728  1.00  0.00     0.211 HD
ENDBRANCH  21  24
BRANCH  21  26
HETATM   26  C22 UNL     1      12.949  39.486  20.113  1.00  0.00     0.038 C 
HETATM   27  C23 UNL     1      14.218  38.980  19.443  1.00  0.00     0.008 C 
ENDBRANCH  21  26
ENDBRANCH  15  17
ENDBRANCH  14  15
ENDBRANCH   1  13
BRANCH  12  28
HETATM   28  C13 UNL     1       5.679  44.786  14.932  1.00  0.00     0.175 C 
BRANCH  28  29
HETATM   29  O5  UNL     1       4.720  45.536  15.506  1.00  0.00    -0.389 OA
ATOM     30  H5  UNL     1       4.629  46.458  15.296  1.00  0.00     0.210 HD
ENDBRANCH  28  29
BRANCH  28  31
HETATM   31  C14 UNL     1       5.347  44.710  13.429  1.00  0.00     0.080 C 
HETATM   32  C15 UNL     1       6.022  43.550  12.779  1.00  0.00     0.048 C 
HETATM   33  C16 UNL     1       5.669  46.004  12.746  1.00  0.00     0.048 C 
BRANCH  31  34
HETATM   34  O6  UNL     1       3.961  44.501  13.322  1.00  0.00    -0.388 OA
ATOM     35  H6  UNL     1       3.838  43.660  12.898  1.00  0.00     0.210 HD
ENDBRANCH  31  34
ENDBRANCH  28  31
ENDBRANCH  12  28
BRANCH   7  36
HETATM   36  O2  UNL     1       1.756  41.859  17.820  1.00  0.00    -0.380 OA
ATOM     37  H2  UNL     1       1.367  42.342  17.099  1.00  0.00     0.211 HD
ENDBRANCH   7  36
TORSDOF 10
ENDMDL
MODEL 2
REMARK VINA RESULT: -8.487810019      2.840      8.137
REMARK  10 active torsions:
REMARK  status: ('A' for Active; 'I' for Inactive)
REMARK    1  A    between atoms: C2_2  and  C3_3 
REMARK    2  A    between atoms: C2_2  and  C17_27 
REMARK    3  A    between atoms: C4_4  and  C5_5 
REMARK    4  A    between atoms: C10_11  and  O2_12 
REMARK    5  A    between atoms: C12_18  and  C13_19 
REMARK    6  A    between atoms: C13_19  and  O5_20 
REMARK    7  A    between atoms: C13_19  and  C14_22 
REMARK    8  A    between atoms: C14_22  and  O6_25 
REMARK    9  A    between atoms: C21_31  and  O7_32 
REMARK   10  A    between atoms: C21_31  and  C22_34 
ROOT
HETATM    1  C5  UNL     1       2.972  41.768  19.592  1.00  0.00     0.189 C 
HETATM    2  O1  UNL     1       1.647  41.667  19.313  1.00  0.00    -0.371 OA
HETATM    3  C6  UNL     1       1.262  41.163  18.114  1.00  0.00     0.126 C 
HETATM    4  C7  UNL     1       0.170  42.110  17.577  1.00  0.00     0.040 C 
HETATM    5  C8  UNL     1       0.588  39.828  18.324  1.00  0.00     0.054 C 
HETATM    6  C9  UNL     1       0.443  39.113  16.967  1.00  0.00     0.016 C 
HETATM    7  C10 UNL     1       1.183  38.949  19.340  1.00  0.00     0.250 C 
HETATM    8  S1  UNL     1       2.952  38.879  19.400  1.00  0.00     0.201 S 
HETATM    9  O3  UNL     1       3.416  38.164  18.178  1.00  0.00    -0.220 OA
HETATM   10  O4  UNL     1       3.251  37.979  20.593  1.00  0.00    -0.220 OA
HETATM   11  C11 UNL     1       3.675  40.442  19.580  1.00  0.00     0.071 C 
HETATM   12  C12 UNL     1       4.957  40.518  19.743  1.00  0.00     0.029 C 
ENDROOT
BRANCH   1  13
HETATM   13  C4  UNL     1       3.591  42.809  18.775  1.00  0.00     0.011 C 
HETATM   14  C3  UNL     1       3.195  44.045  18.828  1.00  0.00     0.006 C 
BRANCH  14  15
HETATM   15  C2  UNL     1       3.729  45.196  18.068  1.00  0.00    -0.059 C 
HETATM   16  C1  UNL     1       4.554  45.967  18.713  1.00  0.00     0.019 C 
BRANCH  15  17
HETATM   17  C17 UNL     1       3.290  45.365  16.724  1.00  0.00     0.049 C 
HETATM   18  C18 UNL     1       1.791  44.963  16.480  1.00  0.00     0.014 C 
HETATM   19  C19 UNL     1       1.398  45.640  15.228  1.00  0.00     0.004 C 
HETATM   20  C20 UNL     1       2.416  46.145  14.288  1.00  0.00     0.042 C 
HETATM   21  C21 UNL     1       3.779  45.498  14.310  1.00  0.00     0.081 C 
HETATM   22  C24 UNL     1       3.877  44.665  15.586  1.00  0.00    -0.047 C 
HETATM   23  C25 UNL     1       4.325  43.479  15.500  1.00  0.00     0.018 C 
BRANCH  21  24
HETATM   24  O7  UNL     1       3.992  44.680  13.223  1.00  0.00    -0.385 OA
ATOM     25  H7  UNL     1       4.794  44.177  13.298  1.00  0.00     0.211 HD
ENDBRANCH  21  24
BRANCH  21  26
HETATM   26  C22 UNL     1       4.891  46.498  14.388  1.00  0.00     0.038 C 
HETATM   27  C23 UNL     1       5.674  46.401  13.087  1.00  0.00     0.008 C 
ENDBRANCH  21  26
ENDBRANCH  15  17
ENDBRANCH  14  15
ENDBRANCH   1  13
BRANCH  12  28
HETATM   28  C13 UNL     1       6.043  39.557  19.803  1.00  0.00     0.175 C 
BRANCH  28  29
HETATM   29  O5  UNL     1       6.963  39.612  20.783  1.00  0.00    -0.389 OA
ATOM     30  H5  UNL     1       7.858  39.329  20.631  1.00  0.00     0.210 HD
ENDBRANCH  28  29
BRANCH  28  31
HETATM   31  C14 UNL     1       6.814  39.472  18.471  1.00  0.00     0.080 C 
HETATM   32  C15 UNL     1       8.287  39.414  18.695  1.00  0.00     0.048 C 
HETATM   33  C16 UNL     1       6.427  40.597  17.559  1.00  0.00     0.048 C 
BRANCH  31  34
HETATM   34  O6  UNL     1       6.437  38.268  17.851  1.00  0.00    -0.388 OA
ATOM     35  H6  UNL     1       7.007  38.150  17.100  1.00  0.00     0.210 HD
ENDBRANCH  31  34
ENDBRANCH  28  31
ENDBRANCH  12  28
BRANCH   7  36
HETATM   36  O2  UNL     1       0.742  37.633  19.099  1.00  0.00    -0.380 OA
ATOM     37  H2  UNL     1       1.143  37.327  18.294  1.00  0.00     0.211 HD
ENDBRANCH   7  36
TORSDOF 10
ENDMDL
MODEL 3
REMARK VINA RESULT: -8.191570279      3.188      8.119
REMARK  10 active torsions:
REMARK  status: ('A' for Active; 'I' for Inactive)
REMARK    1  A    between atoms: C2_2  and  C3_3 
REMARK    2  A    between atoms: C2_2  and  C17_27 
REMARK    3  A    between atoms: C4_4  and  C5_5 
REMARK    4  A    between atoms: C10_11  and  O2_12 
REMARK    5  A    between atoms: C12_18  and  C13_19 
REMARK    6  A    between atoms: C13_19  and  O5_20 
REMARK    7  A    between atoms: C13_19  and  C14_22 
REMARK    8  A    between atoms: C14_22  and  O6_25 
REMARK    9  A    between atoms: C21_31  and  O7_32 
REMARK   10  A    between atoms: C21_31  and  C22_34 
ROOT
HETATM    1  C5  UNL     1       3.332  41.895  19.505  1.00  0.00     0.189 C 
HETATM    2  O1  UNL     1       1.984  41.928  19.665  1.00  0.00    -0.371 OA
HETATM    3  C6  UNL     1       1.187  41.758  18.581  1.00  0.00     0.126 C 
HETATM    4  C7  UNL     1       0.110  42.858  18.660  1.00  0.00     0.040 C 
HETATM    5  C8  UNL     1       0.450  40.444  18.702  1.00  0.00     0.054 C 
HETATM    6  C9  UNL     1      -0.196  40.099  17.347  1.00  0.00     0.016 C 
HETATM    7  C10 UNL     1       1.216  39.313  19.243  1.00  0.00     0.250 C 
HETATM    8  S1  UNL     1       2.894  39.149  18.696  1.00  0.00     0.201 S 
HETATM    9  O3  UNL     1       2.862  38.742  17.263  1.00  0.00    -0.220 OA
HETATM   10  O4  UNL     1       3.432  37.967  19.492  1.00  0.00    -0.220 OA
HETATM   11  C11 UNL     1       3.825  40.582  18.968  1.00  0.00     0.071 C 
HETATM   12  C12 UNL     1       5.094  40.556  18.710  1.00  0.00     0.029 C 
ENDROOT
BRANCH   1  13
HETATM   13  C4  UNL     1       3.792  43.078  18.781  1.00  0.00     0.011 C 
HETATM   14  C3  UNL     1       3.454  44.277  19.147  1.00  0.00     0.006 C 
BRANCH  14  15
HETATM   15  C2  UNL     1       3.847  45.556  18.517  1.00  0.00    -0.059 C 
HETATM   16  C1  UNL     1       4.534  46.369  19.264  1.00  0.00     0.019 C 
BRANCH  15  17
HETATM   17  C17 UNL     1       3.436  45.787  17.173  1.00  0.00     0.049 C 
HETATM   18  C18 UNL     1       2.241  44.883  16.701  1.00  0.00     0.014 C 
HETATM   19  C19 UNL     1       1.660  45.572  15.531  1.00  0.00     0.004 C 
HETATM   20  C20 UNL     1       2.425  46.603  14.803  1.00  0.00     0.042 C 
HETATM   21  C21 UNL     1       3.930  46.550  14.881  1.00  0.00     0.081 C 
HETATM   22  C24 UNL     1       4.304  45.599  16.016  1.00  0.00    -0.047 C 
HETATM   23  C25 UNL     1       5.198  44.723  15.800  1.00  0.00     0.018 C 
BRANCH  21  24
HETATM   24  O7  UNL     1       4.504  46.100  13.712  1.00  0.00    -0.385 OA
ATOM     25  H7  UNL     1       4.947  45.268  13.821  1.00  0.00     0.211 HD
ENDBRANCH  21  24
BRANCH  21  26
HETATM   26  C22 UNL     1       4.536  47.872  15.238  1.00  0.00     0.038 C 
HETATM   27  C23 UNL     1       3.431  48.914  15.138  1.00  0.00     0.008 C 
ENDBRANCH  21  26
ENDBRANCH  15  17
ENDBRANCH  14  15
ENDBRANCH   1  13
BRANCH  12  28
HETATM   28  C13 UNL     1       6.016  39.562  18.192  1.00  0.00     0.175 C 
BRANCH  28  29
HETATM   29  O5  UNL     1       6.472  38.567  18.974  1.00  0.00    -0.389 OA
ATOM     30  H5  UNL     1       6.054  37.713  18.973  1.00  0.00     0.210 HD
ENDBRANCH  28  29
BRANCH  28  31
HETATM   31  C14 UNL     1       7.247  40.207  17.527  1.00  0.00     0.080 C 
HETATM   32  C15 UNL     1       6.854  41.310  16.603  1.00  0.00     0.048 C 
HETATM   33  C16 UNL     1       8.087  39.172  16.843  1.00  0.00     0.048 C 
BRANCH  31  34
HETATM   34  O6  UNL     1       8.020  40.777  18.554  1.00  0.00    -0.388 OA
ATOM     35  H6  UNL     1       8.669  40.130  18.806  1.00  0.00     0.210 HD
ENDBRANCH  31  34
ENDBRANCH  28  31
ENDBRANCH  12  28
BRANCH   7  36
HETATM   36  O2  UNL     1       0.562  38.121  18.876  1.00  0.00    -0.380 OA
ATOM     37  H2  UNL     1       0.267  37.686  19.669  1.00  0.00     0.211 HD
ENDBRANCH   7  36
TORSDOF 10
ENDMDL
MODEL 4
REMARK VINA RESULT: -8.176042610      2.491      8.175
REMARK  10 active torsions:
REMARK  status: ('A' for Active; 'I' for Inactive)
REMARK    1  A    between atoms: C2_2  and  C3_3 
REMARK    2  A    between atoms: C2_2  and  C17_27 
REMARK    3  A    between atoms: C4_4  and  C5_5 
REMARK    4  A    between atoms: C10_11  and  O2_12 
REMARK    5  A    between atoms: C12_18  and  C13_19 
REMARK    6  A    between atoms: C13_19  and  O5_20 
REMARK    7  A    between atoms: C13_19  and  C14_22 
REMARK    8  A    between atoms: C14_22  and  O6_25 
REMARK    9  A    between atoms: C21_31  and  O7_32 
REMARK   10  A    between atoms: C21_31  and  C22_34 
ROOT
HETATM    1  C5  UNL     1       5.683  40.945  18.124  1.00  0.00     0.189 C 
HETATM    2  O1  UNL     1       4.339  40.909  18.315  1.00  0.00    -0.371 OA
HETATM    3  C6  UNL     1       3.604  39.987  17.646  1.00  0.00     0.126 C 
HETATM    4  C7  UNL     1       2.385  40.739  17.075  1.00  0.00     0.040 C 
HETATM    5  C8  UNL     1       3.049  38.980  18.627  1.00  0.00     0.054 C 
HETATM    6  C9  UNL     1       2.494  37.770  17.852  1.00  0.00     0.016 C 
HETATM    7  C10 UNL     1       3.946  38.564  19.713  1.00  0.00     0.250 C 
HETATM    8  S1  UNL     1       5.645  38.294  19.288  1.00  0.00     0.201 S 
HETATM    9  O3  UNL     1       5.710  37.062  18.452  1.00  0.00    -0.220 OA
HETATM   10  O4  UNL     1       6.317  37.975  20.618  1.00  0.00    -0.220 OA
HETATM   11  C11 UNL     1       6.366  39.667  18.518  1.00  0.00     0.071 C 
HETATM   12  C12 UNL     1       7.632  39.637  18.254  1.00  0.00     0.029 C 
ENDROOT
BRANCH   1  13
HETATM   13  C4  UNL     1       5.998  41.432  16.783  1.00  0.00     0.011 C 
HETATM   14  C3  UNL     1       5.820  42.674  16.448  1.00  0.00     0.006 C 
BRANCH  14  15
HETATM   15  C2  UNL     1       6.098  43.303  15.139  1.00  0.00    -0.059 C 
HETATM   16  C1  UNL     1       6.861  42.624  14.335  1.00  0.00     0.019 C 
BRANCH  15  17
HETATM   17  C17 UNL     1       5.525  44.582  14.882  1.00  0.00     0.049 C 
HETATM   18  C18 UNL     1       6.376  45.487  13.920  1.00  0.00     0.014 C 
HETATM   19  C19 UNL     1       5.440  46.505  13.403  1.00  0.00     0.004 C 
HETATM   20  C20 UNL     1       4.161  46.775  14.086  1.00  0.00     0.042 C 
HETATM   21  C21 UNL     1       4.065  46.451  15.556  1.00  0.00     0.081 C 
HETATM   22  C24 UNL     1       5.263  45.574  15.918  1.00  0.00    -0.047 C 
HETATM   23  C25 UNL     1       5.929  45.863  16.961  1.00  0.00     0.018 C 
BRANCH  21  24
HETATM   24  O7  UNL     1       4.080  47.579  16.347  1.00  0.00    -0.385 OA
ATOM     25  H7  UNL     1       3.357  47.601  16.963  1.00  0.00     0.211 HD
ENDBRANCH  21  24
BRANCH  21  26
HETATM   26  C22 UNL     1       2.850  45.643  15.891  1.00  0.00     0.038 C 
HETATM   27  C23 UNL     1       1.831  45.886  14.788  1.00  0.00     0.008 C 
ENDBRANCH  21  26
ENDBRANCH  15  17
ENDBRANCH  14  15
ENDBRANCH   1  13
BRANCH  12  28
HETATM   28  C13 UNL     1       8.695  38.665  18.431  1.00  0.00     0.175 C 
BRANCH  28  29
HETATM   29  O5  UNL     1       8.417  37.366  18.647  1.00  0.00    -0.389 OA
ATOM     30  H5  UNL     1       8.284  36.767  17.921  1.00  0.00     0.210 HD
ENDBRANCH  28  29
BRANCH  28  31
HETATM   31  C14 UNL     1       9.695  39.094  19.523  1.00  0.00     0.080 C 
HETATM   32  C15 UNL     1      10.320  40.410  19.203  1.00  0.00     0.048 C 
HETATM   33  C16 UNL     1      10.720  38.026  19.758  1.00  0.00     0.048 C 
BRANCH  31  34
HETATM   34  O6  UNL     1       8.964  39.256  20.712  1.00  0.00    -0.388 OA
ATOM     35  H6  UNL     1       8.052  39.083  20.505  1.00  0.00     0.210 HD
ENDBRANCH  31  34
ENDBRANCH  28  31
ENDBRANCH  12  28
BRANCH   7  36
HETATM   36  O2  UNL     1       3.471  37.346  20.237  1.00  0.00    -0.380 OA
ATOM     37  H2  UNL     1       3.634  37.340  21.174  1.00  0.00     0.211 HD
ENDBRANCH   7  36
TORSDOF 10
ENDMDL
MODEL 5
REMARK VINA RESULT: -8.108784405      3.172      8.383
REMARK  10 active torsions:
REMARK  status: ('A' for Active; 'I' for Inactive)
REMARK    1  A    between atoms: C2_2  and  C3_3 
REMARK    2  A    between atoms: C2_2  and  C17_27 
REMARK    3  A    between atoms: C4_4  and  C5_5 
REMARK    4  A    between atoms: C10_11  and  O2_12 
REMARK    5  A    between atoms: C12_18  and  C13_19 
REMARK    6  A    between atoms: C13_19  and  O5_20 
REMARK    7  A    between atoms: C13_19  and  C14_22 
REMARK    8  A    between atoms: C14_22  and  O6_25 
REMARK    9  A    between atoms: C21_31  and  O7_32 
REMARK   10  A    between atoms: C21_31  and  C22_34 
ROOT
HETATM    1  C5  UNL     1       2.819  42.184  19.451  1.00  0.00     0.189 C 
HETATM    2  O1  UNL     1       1.478  42.394  19.486  1.00  0.00    -0.371 OA
HETATM    3  C6  UNL     1       0.765  42.294  18.338  1.00  0.00     0.126 C 
HETATM    4  C7  UNL     1      -0.164  43.524  18.297  1.00  0.00     0.040 C 
HETATM    5  C8  UNL     1      -0.145  41.089  18.415  1.00  0.00     0.054 C 
HETATM    6  C9  UNL     1      -0.708  40.789  17.013  1.00  0.00     0.016 C 
HETATM    7  C10 UNL     1       0.418  39.887  19.044  1.00  0.00     0.250 C 
HETATM    8  S1  UNL     1       2.101  39.494  18.656  1.00  0.00     0.201 S 
HETATM    9  O3  UNL     1       2.144  39.051  17.234  1.00  0.00    -0.220 OA
HETATM   10  O4  UNL     1       2.410  38.277  19.519  1.00  0.00    -0.220 OA
HETATM   11  C11 UNL     1       3.184  40.804  18.985  1.00  0.00     0.071 C 
HETATM   12  C12 UNL     1       4.456  40.608  18.844  1.00  0.00     0.029 C 
ENDROOT
BRANCH   1  13
HETATM   13  C4  UNL     1       3.491  43.276  18.750  1.00  0.00     0.011 C 
HETATM   14  C3  UNL     1       3.190  44.520  18.974  1.00  0.00     0.006 C 
BRANCH  14  15
HETATM   15  C2  UNL     1       3.787  45.719  18.348  1.00  0.00    -0.059 C 
HETATM   16  C1  UNL     1       4.508  46.467  19.129  1.00  0.00     0.019 C 
BRANCH  15  17
HETATM   17  C17 UNL     1       3.514  45.952  16.969  1.00  0.00     0.049 C 
HETATM   18  C18 UNL     1       2.243  45.204  16.429  1.00  0.00     0.014 C 
HETATM   19  C19 UNL     1       1.855  45.921  15.198  1.00  0.00     0.004 C 
HETATM   20  C20 UNL     1       2.808  46.807  14.504  1.00  0.00     0.042 C 
HETATM   21  C21 UNL     1       4.282  46.551  14.704  1.00  0.00     0.081 C 
HETATM   22  C24 UNL     1       4.432  45.602  15.891  1.00  0.00    -0.047 C 
HETATM   23  C25 UNL     1       5.209  44.604  15.772  1.00  0.00     0.018 C 
BRANCH  21  24
HETATM   24  O7  UNL     1       4.873  45.982  13.597  1.00  0.00    -0.385 OA
ATOM     25  H7  UNL     1       5.243  46.630  13.010  1.00  0.00     0.211 HD
ENDBRANCH  21  24
BRANCH  21  26
HETATM   26  C22 UNL     1       5.038  47.790  15.072  1.00  0.00     0.038 C 
HETATM   27  C23 UNL     1       4.106  48.970  14.840  1.00  0.00     0.008 C 
ENDBRANCH  21  26
ENDBRANCH  15  17
ENDBRANCH  14  15
ENDBRANCH   1  13
BRANCH  12  28
HETATM   28  C13 UNL     1       5.283  39.490  18.431  1.00  0.00     0.175 C 
BRANCH  28  29
HETATM   29  O5  UNL     1       4.739  38.291  18.152  1.00  0.00    -0.389 OA
ATOM     30  H5  UNL     1       5.253  37.495  18.212  1.00  0.00     0.210 HD
ENDBRANCH  28  29
BRANCH  28  31
HETATM   31  C14 UNL     1       6.443  39.235  19.414  1.00  0.00     0.080 C 
HETATM   32  C15 UNL     1       7.767  39.445  18.762  1.00  0.00     0.048 C 
HETATM   33  C16 UNL     1       6.329  37.875  20.032  1.00  0.00     0.048 C 
BRANCH  31  34
HETATM   34  O6  UNL     1       6.328  40.185  20.444  1.00  0.00    -0.388 OA
ATOM     35  H6  UNL     1       5.576  39.937  20.970  1.00  0.00     0.210 HD
ENDBRANCH  31  34
ENDBRANCH  28  31
ENDBRANCH  12  28
BRANCH   7  36
HETATM   36  O2  UNL     1      -0.351  38.777  18.641  1.00  0.00    -0.380 OA
ATOM     37  H2  UNL     1      -0.763  38.985  17.810  1.00  0.00     0.211 HD
ENDBRANCH   7  36
TORSDOF 10
ENDMDL
