MODEL 1
REMARK VINA RESULT: -8.136768429      0.000      0.000
REMARK  9 active torsions:
REMARK  status: ('A' for Active; 'I' for Inactive)
REMARK    1  A    between atoms: C4_4  and  O1_5 
REMARK    2  A    between atoms: C9_12  and  O3_13 
REMARK    3  A    between atoms: C19_25  and  S1_26 
REMARK    4  A    between atoms: S1_26  and  C20_27 
REMARK    5  A    between atoms: C20_27  and  C21_28 
REMARK    6  A    between atoms: C21_28  and  C22_29 
REMARK    7  A    between atoms: C22_29  and  C23_30 
REMARK    8  A    between atoms: C23_30  and  C24_31 
REMARK    9  A    between atoms: C25_34  and  O5_35 
ROOT
HETATM    1  C1  UNL     1       4.475  45.985  18.690  1.00  0.00     0.018 C 
HETATM    2  C2  UNL     1       4.202  45.200  17.463  1.00  0.00    -0.011 C 
HETATM    3  C3  UNL     1       4.164  43.727  17.767  1.00  0.00     0.050 C 
HETATM    4  C4  UNL     1       2.903  43.405  18.526  1.00  0.00     0.068 C 
HETATM    5  C5  UNL     1       3.237  42.234  19.461  1.00  0.00     0.071 C 
HETATM    6  C6  UNL     1       3.674  41.092  18.583  1.00  0.00     0.132 C 
HETATM    7  O2  UNL     1       4.314  40.166  19.383  1.00  0.00    -0.385 OA
HETATM    8  C7  UNL     1       3.427  39.531  20.220  1.00  0.00     0.172 C 
HETATM    9  C8  UNL     1       2.604  38.618  19.358  1.00  0.00     0.080 C 
HETATM   10  C9  UNL     1       1.986  39.259  18.170  1.00  0.00     0.154 C 
HETATM   11  C10 UNL     1       2.114  38.292  17.048  1.00  0.00     0.098 C 
HETATM   12  N1  UNL     1       2.233  37.535  16.181  1.00  0.00    -0.194 NA
HETATM   13  C11 UNL     1       2.521  40.614  17.807  1.00  0.00     0.065 C 
HETATM   14  C12 UNL     1       1.376  41.577  17.831  1.00  0.00     0.023 C 
HETATM   15  C13 UNL     1       1.749  43.032  17.653  1.00  0.00    -0.012 C 
HETATM   16  C14 UNL     1       0.482  43.825  17.985  1.00  0.00     0.018 C 
HETATM   17  C15 UNL     1       2.012  43.244  16.188  1.00  0.00     0.012 C 
HETATM   18  C16 UNL     1       2.499  44.542  15.755  1.00  0.00     0.006 C 
HETATM   19  C17 UNL     1       2.929  45.552  16.747  1.00  0.00    -0.003 C 
HETATM   20  C18 UNL     1       3.316  46.811  15.957  1.00  0.00     0.023 C 
HETATM   21  C19 UNL     1       4.799  46.933  16.026  1.00  0.00     0.077 C 
HETATM   22  C25 UNL     1       5.247  45.555  16.427  1.00  0.00     0.140 C 
ENDROOT
BRANCH  10  23
HETATM   23  O3  UNL     1       0.589  39.302  18.420  1.00  0.00    -0.375 OA
ATOM     24  H3  UNL     1       0.213  39.852  17.742  1.00  0.00     0.211 HD
ENDBRANCH  10  23
BRANCH   4  25
HETATM   25  O1  UNL     1       2.540  44.448  19.388  1.00  0.00    -0.389 OA
ATOM     26  H1  UNL     1       2.204  44.118  20.213  1.00  0.00     0.210 HD
ENDBRANCH   4  25
BRANCH  22  27
HETATM   27  O5  UNL     1       6.510  45.552  17.016  1.00  0.00    -0.394 OA
ATOM     28  H5  UNL     1       7.143  45.928  16.416  1.00  0.00     0.210 HD
ENDBRANCH  22  27
BRANCH  21  29
HETATM   29  S1  UNL     1       5.580  47.522  14.523  1.00  0.00    -0.162 SA
BRANCH  29  30
HETATM   30  C20 UNL     1       6.414  46.039  13.757  1.00  0.00     0.074 C 
BRANCH  30  31
HETATM   31  C21 UNL     1       5.433  45.307  12.917  1.00  0.00     0.010 C 
BRANCH  31  32
HETATM   32  C22 UNL     1       5.349  43.862  13.148  1.00  0.00     0.010 C 
BRANCH  32  33
HETATM   33  C23 UNL     1       6.549  43.018  12.996  1.00  0.00     0.099 C 
BRANCH  33  34
HETATM   34  C24 UNL     1       7.107  42.363  14.163  1.00  0.00     0.231 C 
HETATM   35  N2  UNL     1       7.787  41.122  14.116  1.00  0.00    -0.062 NA
HETATM   36  O4  UNL     1       7.010  42.876  15.331  1.00  0.00    -0.277 OA
ENDBRANCH  33  34
ENDBRANCH  32  33
ENDBRANCH  31  32
ENDBRANCH  30  31
ENDBRANCH  29  30
ENDBRANCH  21  29
TORSDOF 9
ENDMDL
MODEL 2
REMARK VINA RESULT: -7.897271760      3.014      4.505
REMARK  9 active torsions:
REMARK  status: ('A' for Active; 'I' for Inactive)
REMARK    1  A    between atoms: C4_4  and  O1_5 
REMARK    2  A    between atoms: C9_12  and  O3_13 
REMARK    3  A    between atoms: C19_25  and  S1_26 
REMARK    4  A    between atoms: S1_26  and  C20_27 
REMARK    5  A    between atoms: C20_27  and  C21_28 
REMARK    6  A    between atoms: C21_28  and  C22_29 
REMARK    7  A    between atoms: C22_29  and  C23_30 
REMARK    8  A    between atoms: C23_30  and  C24_31 
REMARK    9  A    between atoms: C25_34  and  O5_35 
ROOT
HETATM    1  C1  UNL     1       5.803  43.110  15.479  1.00  0.00     0.018 C 
HETATM    2  C2  UNL     1       4.717  44.108  15.618  1.00  0.00    -0.011 C 
HETATM    3  C3  UNL     1       3.420  43.441  15.985  1.00  0.00     0.050 C 
HETATM    4  C4  UNL     1       3.484  42.976  17.417  1.00  0.00     0.068 C 
HETATM    5  C5  UNL     1       2.624  41.708  17.509  1.00  0.00     0.071 C 
HETATM    6  C6  UNL     1       1.228  42.103  17.106  1.00  0.00     0.132 C 
HETATM    7  O2  UNL     1       0.526  40.946  16.831  1.00  0.00    -0.385 OA
HETATM    8  C7  UNL     1       0.276  40.229  17.977  1.00  0.00     0.172 C 
HETATM    9  C8  UNL     1      -0.761  40.997  18.745  1.00  0.00     0.080 C 
HETATM   10  C9  UNL     1      -0.448  42.431  18.967  1.00  0.00     0.154 C 
HETATM   11  C10 UNL     1      -1.719  43.180  18.776  1.00  0.00     0.098 C 
HETATM   12  N1  UNL     1      -2.711  43.750  18.612  1.00  0.00    -0.194 NA
HETATM   13  C11 UNL     1       0.666  42.993  18.131  1.00  0.00     0.065 C 
HETATM   14  C12 UNL     1       1.709  43.526  19.062  1.00  0.00     0.023 C 
HETATM   15  C13 UNL     1       2.992  43.985  18.403  1.00  0.00    -0.012 C 
HETATM   16  C14 UNL     1       3.981  44.217  19.548  1.00  0.00     0.018 C 
HETATM   17  C15 UNL     1       2.717  45.333  17.796  1.00  0.00     0.012 C 
HETATM   18  C16 UNL     1       3.760  45.957  17.001  1.00  0.00     0.006 C 
HETATM   19  C17 UNL     1       4.971  45.196  16.621  1.00  0.00    -0.003 C 
HETATM   20  C18 UNL     1       5.880  46.167  15.852  1.00  0.00     0.023 C 
HETATM   21  C19 UNL     1       5.855  45.752  14.423  1.00  0.00     0.077 C 
HETATM   22  C25 UNL     1       4.624  44.894  14.327  1.00  0.00     0.140 C 
ENDROOT
BRANCH  10  23
HETATM   23  O3  UNL     1      -0.179  42.573  20.353  1.00  0.00    -0.375 OA
ATOM     24  H3  UNL     1      -0.765  43.249  20.673  1.00  0.00     0.211 HD
ENDBRANCH  10  23
BRANCH   4  25
HETATM   25  O1  UNL     1       4.772  42.550  17.763  1.00  0.00    -0.389 OA
ATOM     26  H1  UNL     1       5.409  43.247  17.664  1.00  0.00     0.210 HD
ENDBRANCH   4  25
BRANCH  22  27
HETATM   27  O5  UNL     1       4.662  44.019  13.243  1.00  0.00    -0.394 OA
ATOM     28  H5  UNL     1       4.417  44.482  12.451  1.00  0.00     0.210 HD
ENDBRANCH  22  27
BRANCH  21  29
HETATM   29  S1  UNL     1       5.870  47.102  13.243  1.00  0.00    -0.162 SA
BRANCH  29  30
HETATM   30  C20 UNL     1       5.240  48.600  14.161  1.00  0.00     0.074 C 
BRANCH  30  31
HETATM   31  C21 UNL     1       3.817  48.828  13.806  1.00  0.00     0.010 C 
BRANCH  31  32
HETATM   32  C22 UNL     1       2.832  48.358  14.785  1.00  0.00     0.010 C 
BRANCH  32  33
HETATM   33  C23 UNL     1       1.390  48.484  14.501  1.00  0.00     0.099 C 
BRANCH  33  34
HETATM   34  C24 UNL     1       0.553  47.300  14.551  1.00  0.00     0.231 C 
HETATM   35  N2  UNL     1       1.058  45.979  14.490  1.00  0.00    -0.062 NA
HETATM   36  O4  UNL     1      -0.720  47.382  14.649  1.00  0.00    -0.277 OA
ENDBRANCH  33  34
ENDBRANCH  32  33
ENDBRANCH  31  32
ENDBRANCH  30  31
ENDBRANCH  29  30
ENDBRANCH  21  29
TORSDOF 9
ENDMDL
MODEL 3
REMARK VINA RESULT: -7.557624527      2.001      2.771
REMARK  9 active torsions:
REMARK  status: ('A' for Active; 'I' for Inactive)
REMARK    1  A    between atoms: C4_4  and  O1_5 
REMARK    2  A    between atoms: C9_12  and  O3_13 
REMARK    3  A    between atoms: C19_25  and  S1_26 
REMARK    4  A    between atoms: S1_26  and  C20_27 
REMARK    5  A    between atoms: C20_27  and  C21_28 
REMARK    6  A    between atoms: C21_28  and  C22_29 
REMARK    7  A    between atoms: C22_29  and  C23_30 
REMARK    8  A    between atoms: C23_30  and  C24_31 
REMARK    9  A    between atoms: C25_34  and  O5_35 
ROOT
HETATM    1  C1  UNL     1       3.293  44.329  18.761  1.00  0.00     0.018 C 
HETATM    2  C2  UNL     1       3.240  43.377  17.626  1.00  0.00    -0.011 C 
HETATM    3  C3  UNL     1       3.989  42.114  17.953  1.00  0.00     0.050 C 
HETATM    4  C4  UNL     1       3.206  41.312  18.958  1.00  0.00     0.068 C 
HETATM    5  C5  UNL     1       4.230  40.562  19.821  1.00  0.00     0.071 C 
HETATM    6  C6  UNL     1       5.019  39.682  18.888  1.00  0.00     0.132 C 
HETATM    7  O2  UNL     1       6.159  39.278  19.553  1.00  0.00    -0.385 OA
HETATM    8  C7  UNL     1       5.862  38.393  20.562  1.00  0.00     0.172 C 
HETATM    9  C8  UNL     1       5.467  37.105  19.899  1.00  0.00     0.080 C 
HETATM   10  C9  UNL     1       4.420  37.228  18.855  1.00  0.00     0.154 C 
HETATM   11  C10 UNL     1       4.816  36.323  17.744  1.00  0.00     0.098 C 
HETATM   12  N1  UNL     1       5.144  35.625  16.882  1.00  0.00    -0.194 NA
HETATM   13  C11 UNL     1       4.141  38.622  18.371  1.00  0.00     0.065 C 
HETATM   14  C12 UNL     1       2.693  38.909  18.616  1.00  0.00     0.023 C 
HETATM   15  C13 UNL     1       2.258  40.332  18.345  1.00  0.00    -0.012 C 
HETATM   16  C14 UNL     1       0.844  40.447  18.919  1.00  0.00     0.018 C 
HETATM   17  C15 UNL     1       2.127  40.477  16.855  1.00  0.00     0.012 C 
HETATM   18  C16 UNL     1       1.824  41.790  16.312  1.00  0.00     0.006 C 
HETATM   19  C17 UNL     1       1.859  42.987  17.182  1.00  0.00    -0.003 C 
HETATM   20  C18 UNL     1       1.429  44.178  16.312  1.00  0.00     0.023 C 
HETATM   21  C19 UNL     1       2.643  45.007  16.074  1.00  0.00     0.077 C 
HETATM   22  C25 UNL     1       3.776  44.073  16.394  1.00  0.00     0.140 C 
ENDROOT
BRANCH  10  23
HETATM   23  O3  UNL     1       3.252  36.620  19.385  1.00  0.00    -0.375 OA
ATOM     24  H3  UNL     1       2.599  36.646  18.695  1.00  0.00     0.211 HD
ENDBRANCH  10  23
BRANCH   4  25
HETATM   25  O1  UNL     1       2.527  42.139  19.862  1.00  0.00    -0.389 OA
ATOM     26  H1  UNL     1       1.851  42.648  19.430  1.00  0.00     0.210 HD
ENDBRANCH   4  25
BRANCH  22  27
HETATM   27  O5  UNL     1       4.954  44.747  16.712  1.00  0.00    -0.394 OA
ATOM     28  H5  UNL     1       5.682  44.352  16.247  1.00  0.00     0.210 HD
ENDBRANCH  22  27
BRANCH  21  29
HETATM   29  S1  UNL     1       2.758  45.726  14.435  1.00  0.00    -0.162 SA
BRANCH  29  30
HETATM   30  C20 UNL     1       3.415  47.456  14.673  1.00  0.00     0.074 C 
BRANCH  30  31
HETATM   31  C21 UNL     1       4.876  47.465  14.406  1.00  0.00     0.010 C 
BRANCH  31  32
HETATM   32  C22 UNL     1       5.343  46.525  13.384  1.00  0.00     0.010 C 
BRANCH  32  33
HETATM   33  C23 UNL     1       6.413  45.560  13.701  1.00  0.00     0.099 C 
BRANCH  33  34
HETATM   34  C24 UNL     1       6.157  44.141  13.546  1.00  0.00     0.231 C 
HETATM   35  N2  UNL     1       5.503  43.581  12.422  1.00  0.00    -0.062 NA
HETATM   36  O4  UNL     1       6.508  43.294  14.438  1.00  0.00    -0.277 OA
ENDBRANCH  33  34
ENDBRANCH  32  33
ENDBRANCH  31  32
ENDBRANCH  30  31
ENDBRANCH  29  30
ENDBRANCH  21  29
TORSDOF 9
ENDMDL
MODEL 4
REMARK VINA RESULT: -7.400272135      2.331      3.377
REMARK  9 active torsions:
REMARK  status: ('A' for Active; 'I' for Inactive)
REMARK    1  A    between atoms: C4_4  and  O1_5 
REMARK    2  A    between atoms: C9_12  and  O3_13 
REMARK    3  A    between atoms: C19_25  and  S1_26 
REMARK    4  A    between atoms: S1_26  and  C20_27 
REMARK    5  A    between atoms: C20_27  and  C21_28 
REMARK    6  A    between atoms: C21_28  and  C22_29 
REMARK    7  A    between atoms: C22_29  and  C23_30 
REMARK    8  A    between atoms: C23_30  and  C24_31 
REMARK    9  A    between atoms: C25_34  and  O5_35 
ROOT
HETATM    1  C1  UNL     1       3.473  44.385  18.709  1.00  0.00     0.018 C 
HETATM    2  C2  UNL     1       3.342  43.414  17.597  1.00  0.00    -0.011 C 
HETATM    3  C3  UNL     1       4.090  42.146  17.904  1.00  0.00     0.050 C 
HETATM    4  C4  UNL     1       3.353  41.374  18.967  1.00  0.00     0.068 C 
HETATM    5  C5  UNL     1       4.414  40.624  19.784  1.00  0.00     0.071 C 
HETATM    6  C6  UNL     1       5.136  39.715  18.825  1.00  0.00     0.132 C 
HETATM    7  O2  UNL     1       6.306  39.305  19.432  1.00  0.00    -0.385 OA
HETATM    8  C7  UNL     1       6.054  38.443  20.473  1.00  0.00     0.172 C 
HETATM    9  C8  UNL     1       5.603  37.149  19.857  1.00  0.00     0.080 C 
HETATM   10  C9  UNL     1       4.500  37.270  18.871  1.00  0.00     0.154 C 
HETATM   11  C10 UNL     1       4.821  36.340  17.757  1.00  0.00     0.098 C 
HETATM   12  N1  UNL     1       5.090  35.622  16.891  1.00  0.00    -0.194 NA
HETATM   13  C11 UNL     1       4.215  38.660  18.378  1.00  0.00     0.065 C 
HETATM   14  C12 UNL     1       2.787  38.973  18.698  1.00  0.00     0.023 C 
HETATM   15  C13 UNL     1       2.359  40.398  18.426  1.00  0.00    -0.012 C 
HETATM   16  C14 UNL     1       0.981  40.544  19.075  1.00  0.00     0.018 C 
HETATM   17  C15 UNL     1       2.146  40.518  16.942  1.00  0.00     0.012 C 
HETATM   18  C16 UNL     1       1.832  41.826  16.394  1.00  0.00     0.006 C 
HETATM   19  C17 UNL     1       1.933  43.037  17.238  1.00  0.00    -0.003 C 
HETATM   20  C18 UNL     1       1.472  44.219  16.371  1.00  0.00     0.023 C 
HETATM   21  C19 UNL     1       2.682  45.026  16.050  1.00  0.00     0.077 C 
HETATM   22  C25 UNL     1       3.818  44.080  16.324  1.00  0.00     0.140 C 
ENDROOT
BRANCH  10  23
HETATM   23  O3  UNL     1       3.356  36.689  19.476  1.00  0.00    -0.375 OA
ATOM     24  H3  UNL     1       3.235  37.137  20.306  1.00  0.00     0.211 HD
ENDBRANCH  10  23
BRANCH   4  25
HETATM   25  O1  UNL     1       2.739  42.227  19.891  1.00  0.00    -0.389 OA
ATOM     26  H1  UNL     1       1.794  42.125  19.888  1.00  0.00     0.210 HD
ENDBRANCH   4  25
BRANCH  22  27
HETATM   27  O5  UNL     1       5.022  44.741  16.563  1.00  0.00    -0.394 OA
ATOM     28  H5  UNL     1       5.748  44.159  16.373  1.00  0.00     0.210 HD
ENDBRANCH  22  27
BRANCH  21  29
HETATM   29  S1  UNL     1       2.715  45.713  14.395  1.00  0.00    -0.162 SA
BRANCH  29  30
HETATM   30  C20 UNL     1       2.479  47.554  14.593  1.00  0.00     0.074 C 
BRANCH  30  31
HETATM   31  C21 UNL     1       3.564  48.096  15.449  1.00  0.00     0.010 C 
BRANCH  31  32
HETATM   32  C22 UNL     1       4.506  49.003  14.787  1.00  0.00     0.010 C 
BRANCH  32  33
HETATM   33  C23 UNL     1       5.875  48.548  14.476  1.00  0.00     0.099 C 
BRANCH  33  34
HETATM   34  C24 UNL     1       6.070  47.231  13.902  1.00  0.00     0.231 C 
HETATM   35  N2  UNL     1       6.652  46.148  14.605  1.00  0.00    -0.062 NA
HETATM   36  O4  UNL     1       5.729  46.966  12.698  1.00  0.00    -0.277 OA
ENDBRANCH  33  34
ENDBRANCH  32  33
ENDBRANCH  31  32
ENDBRANCH  30  31
ENDBRANCH  29  30
ENDBRANCH  21  29
TORSDOF 9
ENDMDL
MODEL 5
REMARK VINA RESULT: -7.325303614      2.509      3.384
REMARK  9 active torsions:
REMARK  status: ('A' for Active; 'I' for Inactive)
REMARK    1  A    between atoms: C4_4  and  O1_5 
REMARK    2  A    between atoms: C9_12  and  O3_13 
REMARK    3  A    between atoms: C19_25  and  S1_26 
REMARK    4  A    between atoms: S1_26  and  C20_27 
REMARK    5  A    between atoms: C20_27  and  C21_28 
REMARK    6  A    between atoms: C21_28  and  C22_29 
REMARK    7  A    between atoms: C22_29  and  C23_30 
REMARK    8  A    between atoms: C23_30  and  C24_31 
REMARK    9  A    between atoms: C25_34  and  O5_35 
ROOT
HETATM    1  C1  UNL     1       5.120  44.950  18.006  1.00  0.00     0.018 C 
HETATM    2  C2  UNL     1       4.386  44.082  17.055  1.00  0.00    -0.011 C 
HETATM    3  C3  UNL     1       4.224  42.695  17.613  1.00  0.00     0.050 C 
HETATM    4  C4  UNL     1       3.211  42.717  18.727  1.00  0.00     0.068 C 
HETATM    5  C5  UNL     1       3.630  41.632  19.728  1.00  0.00     0.071 C 
HETATM    6  C6  UNL     1       3.618  40.326  18.980  1.00  0.00     0.132 C 
HETATM    7  O2  UNL     1       4.322  39.405  19.729  1.00  0.00    -0.385 OA
HETATM    8  C7  UNL     1       3.639  39.061  20.871  1.00  0.00     0.172 C 
HETATM    9  C8  UNL     1       2.474  38.219  20.436  1.00  0.00     0.080 C 
HETATM   10  C9  UNL     1       1.633  38.810  19.364  1.00  0.00     0.154 C 
HETATM   11  C10 UNL     1       1.283  37.702  18.437  1.00  0.00     0.098 C 
HETATM   12  N1  UNL     1       1.029  36.832  17.717  1.00  0.00    -0.194 NA
HETATM   13  C11 UNL     1       2.230  39.982  18.638  1.00  0.00     0.065 C 
HETATM   14  C12 UNL     1       1.296  41.140  18.799  1.00  0.00     0.023 C 
HETATM   15  C13 UNL     1       1.809  42.463  18.275  1.00  0.00    -0.012 C 
HETATM   16  C14 UNL     1       0.827  43.518  18.790  1.00  0.00     0.018 C 
HETATM   17  C15 UNL     1       1.657  42.433  16.779  1.00  0.00     0.012 C 
HETATM   18  C16 UNL     1       2.179  43.549  16.010  1.00  0.00     0.006 C 
HETATM   19  C17 UNL     1       3.024  44.576  16.657  1.00  0.00    -0.003 C 
HETATM   20  C18 UNL     1       3.342  45.629  15.584  1.00  0.00     0.023 C 
HETATM   21  C19 UNL     1       4.780  45.474  15.229  1.00  0.00     0.077 C 
HETATM   22  C25 UNL     1       5.120  44.098  15.731  1.00  0.00     0.140 C 
ENDROOT
BRANCH  10  23
HETATM   23  O3  UNL     1       0.395  39.149  19.968  1.00  0.00    -0.375 OA
ATOM     24  H3  UNL     1      -0.123  38.352  19.984  1.00  0.00     0.211 HD
ENDBRANCH  10  23
BRANCH   4  25
HETATM   25  O1  UNL     1       3.274  43.910  19.457  1.00  0.00    -0.389 OA
ATOM     26  H1  UNL     1       2.408  44.223  19.691  1.00  0.00     0.210 HD
ENDBRANCH   4  25
BRANCH  22  27
HETATM   27  O5  UNL     1       6.486  43.930  15.952  1.00  0.00    -0.394 OA
ATOM     28  H5  UNL     1       6.967  44.622  15.514  1.00  0.00     0.210 HD
ENDBRANCH  22  27
BRANCH  21  29
HETATM   29  S1  UNL     1       5.161  45.709  13.493  1.00  0.00    -0.162 SA
BRANCH  29  30
HETATM   30  C20 UNL     1       5.709  47.484  13.318  1.00  0.00     0.074 C 
BRANCH  30  31
HETATM   31  C21 UNL     1       5.532  48.180  14.618  1.00  0.00     0.010 C 
BRANCH  31  32
HETATM   32  C22 UNL     1       4.432  49.146  14.680  1.00  0.00     0.010 C 
BRANCH  32  33
HETATM   33  C23 UNL     1       3.231  48.953  13.844  1.00  0.00     0.099 C 
BRANCH  33  34
HETATM   34  C24 UNL     1       1.924  48.946  14.473  1.00  0.00     0.231 C 
HETATM   35  N2  UNL     1       1.011  47.869  14.371  1.00  0.00    -0.062 NA
HETATM   36  O4  UNL     1       1.507  49.937  15.166  1.00  0.00    -0.277 OA
ENDBRANCH  33  34
ENDBRANCH  32  33
ENDBRANCH  31  32
ENDBRANCH  30  31
ENDBRANCH  29  30
ENDBRANCH  21  29
TORSDOF 9
ENDMDL
