MODEL 1
REMARK VINA RESULT: -9.349868697      0.000      0.000
REMARK  7 active torsions:
REMARK  status: ('A' for Active; 'I' for Inactive)
REMARK    1  A    between atoms: C2_2  and  C4_4 
REMARK    2  A    between atoms: C4_4  and  C5_5 
REMARK    3  A    between atoms: C5_5  and  N1_6 
REMARK    4  A    between atoms: N1_6  and  C6_9 
REMARK    5  A    between atoms: C19_25  and  C20_26 
REMARK    6  A    between atoms: C20_26  and  N3_27 
REMARK       I    between atoms: N3_27  and  C21_29 
REMARK    7  A    between atoms: C21_29  and  C22_31 
ROOT
HETATM    1  C6  UNL     1       3.322  46.032  16.772  1.00  0.00     0.186 C 
HETATM    2  C7  UNL     1       2.946  44.599  17.036  1.00  0.00     0.038 C 
HETATM    3  C8  UNL     1       3.616  43.660  16.048  1.00  0.00     0.074 C 
HETATM    4  C9  UNL     1       5.070  43.550  16.442  1.00  0.00     0.258 C 
HETATM    5  C10 UNL     1       5.530  44.860  17.043  1.00  0.00     0.074 C 
HETATM    6  C11 UNL     1       4.799  45.997  16.359  1.00  0.00     0.038 C 
HETATM    7  N2  UNL     1       5.177  42.464  17.410  1.00  0.00    -0.035 N 
ATOM      8  H21 UNL     1       4.311  42.277  17.916  1.00  0.00     0.281 HD
ATOM      9  H22 UNL     1       5.743  42.695  18.226  1.00  0.00     0.281 HD
HETATM   10  C12 UNL     1       5.679  41.311  16.644  1.00  0.00     0.310 C 
HETATM   11  C13 UNL     1       7.106  41.695  16.250  1.00  0.00     0.253 C 
HETATM   12  C14 UNL     1       7.752  40.586  15.483  1.00  0.00     0.079 C 
HETATM   13  C15 UNL     1       8.939  40.060  16.232  1.00  0.00     0.048 C 
HETATM   14  C16 UNL     1       8.626  39.789  17.704  1.00  0.00     0.120 C 
HETATM   15  C17 UNL     1       8.324  38.340  17.852  1.00  0.00     0.045 C 
HETATM   16  C18 UNL     1       9.028  37.625  18.949  1.00  0.00     0.038 C 
HETATM   17  C19 UNL     1      10.469  38.017  19.147  1.00  0.00     0.203 C 
HETATM   18  N4  UNL     1      10.840  39.148  18.311  1.00  0.00    -0.066 N 
ATOM     19  H41 UNL     1      10.960  38.897  17.330  1.00  0.00     0.277 HD
ATOM     20  H42 UNL     1      11.791  39.475  18.479  1.00  0.00     0.277 HD
HETATM   21  C25 UNL     1       9.838  40.176  18.518  1.00  0.00     0.273 C 
HETATM   22  O2  UNL     1       7.581  40.630  18.083  1.00  0.00    -0.225 OA
HETATM   23  O3  UNL     1       7.803  41.797  17.473  1.00  0.00    -0.195 OA
HETATM   24  O4  UNL     1       7.033  42.896  15.580  1.00  0.00    -0.193 OA
HETATM   25  O5  UNL     1       5.800  43.264  15.292  1.00  0.00    -0.197 OA
ENDROOT
BRANCH   1  26
HETATM   26  N1  UNL     1       2.601  46.639  15.706  1.00  0.00    -0.071 N 
ATOM     27  H12 UNL     1       2.245  47.551  15.992  1.00  0.00     0.277 HD
ATOM     28  H11 UNL     1       1.721  46.148  15.548  1.00  0.00     0.277 HD
BRANCH  26  29
HETATM   29  C5  UNL     1       3.338  46.753  14.477  1.00  0.00     0.233 C 
BRANCH  29  30
HETATM   30  C4  UNL     1       3.391  48.210  14.066  1.00  0.00     0.031 C 
BRANCH  30  31
HETATM   31  C2  UNL     1       4.785  48.546  13.586  1.00  0.00    -0.021 C 
HETATM   32  C1  UNL     1       5.506  49.235  14.725  1.00  0.00     0.009 C 
HETATM   33  C3  UNL     1       5.520  47.315  13.099  1.00  0.00     0.009 C 
ENDBRANCH  30  31
ENDBRANCH  29  30
ENDBRANCH  26  29
ENDBRANCH   1  26
BRANCH  17  34
HETATM   34  C20 UNL     1      11.438  36.923  18.878  1.00  0.00     0.155 C 
BRANCH  34  35
HETATM   35  N3  UNL     1      12.771  37.418  18.640  1.00  0.00    -0.359 N 
HETATM   36  C21 UNL     1      13.466  38.288  19.492  1.00  0.00     0.221 C 
HETATM   37  O1  UNL     1      12.947  38.704  20.553  1.00  0.00    -0.273 OA
ATOM     38  H3  UNL     1      13.243  37.113  17.788  1.00  0.00     0.162 HD
BRANCH  36  39
HETATM   39  C22 UNL     1      14.849  38.770  19.203  1.00  0.00     0.070 C 
HETATM   40  C23 UNL     1      14.972  40.257  19.499  1.00  0.00     0.019 C 
HETATM   41  C24 UNL     1      15.829  37.984  20.032  1.00  0.00     0.019 C 
ENDBRANCH  36  39
ENDBRANCH  34  35
ENDBRANCH  17  34
TORSDOF 7
ENDMDL
MODEL 2
REMARK VINA RESULT: -9.220833548      2.366     11.221
REMARK  7 active torsions:
REMARK  status: ('A' for Active; 'I' for Inactive)
REMARK    1  A    between atoms: C2_2  and  C4_4 
REMARK    2  A    between atoms: C4_4  and  C5_5 
REMARK    3  A    between atoms: C5_5  and  N1_6 
REMARK    4  A    between atoms: N1_6  and  C6_9 
REMARK    5  A    between atoms: C19_25  and  C20_26 
REMARK    6  A    between atoms: C20_26  and  N3_27 
REMARK       I    between atoms: N3_27  and  C21_29 
REMARK    7  A    between atoms: C21_29  and  C22_31 
ROOT
HETATM    1  C6  UNL     1       9.260  37.909  19.163  1.00  0.00     0.186 C 
HETATM    2  C7  UNL     1       9.667  39.357  19.222  1.00  0.00     0.038 C 
HETATM    3  C8  UNL     1       9.720  39.973  17.834  1.00  0.00     0.074 C 
HETATM    4  C9  UNL     1       8.295  40.196  17.384  1.00  0.00     0.258 C 
HETATM    5  C10 UNL     1       7.408  39.116  17.962  1.00  0.00     0.074 C 
HETATM    6  C11 UNL     1       8.201  37.828  18.055  1.00  0.00     0.038 C 
HETATM    7  N2  UNL     1       7.891  41.515  17.858  1.00  0.00    -0.035 N 
ATOM      8  H21 UNL     1       8.413  41.838  18.673  1.00  0.00     0.281 HD
ATOM      9  H22 UNL     1       6.969  41.531  18.294  1.00  0.00     0.281 HD
HETATM   10  C12 UNL     1       8.010  42.400  16.687  1.00  0.00     0.310 C 
HETATM   11  C13 UNL     1       6.923  41.923  15.723  1.00  0.00     0.253 C 
HETATM   12  C14 UNL     1       6.912  42.766  14.489  1.00  0.00     0.079 C 
HETATM   13  C15 UNL     1       5.604  43.488  14.365  1.00  0.00     0.048 C 
HETATM   14  C16 UNL     1       5.190  44.171  15.669  1.00  0.00     0.120 C 
HETATM   15  C17 UNL     1       5.594  45.600  15.590  1.00  0.00     0.045 C 
HETATM   16  C18 UNL     1       4.558  46.603  15.954  1.00  0.00     0.038 C 
HETATM   17  C19 UNL     1       3.165  46.289  15.472  1.00  0.00     0.203 C 
HETATM   18  N4  UNL     1       3.089  44.965  14.872  1.00  0.00    -0.066 N 
ATOM     19  H41 UNL     1       3.506  44.923  13.942  1.00  0.00     0.277 HD
ATOM     20  H42 UNL     1       2.142  44.703  14.602  1.00  0.00     0.277 HD
HETATM   21  C25 UNL     1       3.692  44.037  15.809  1.00  0.00     0.273 C 
HETATM   22  O2  UNL     1       5.774  43.472  16.724  1.00  0.00    -0.225 OA
HETATM   23  O3  UNL     1       5.708  42.179  16.396  1.00  0.00    -0.195 OA
HETATM   24  O4  UNL     1       7.134  40.580  15.505  1.00  0.00    -0.193 OA
HETATM   25  O5  UNL     1       8.278  40.141  15.993  1.00  0.00    -0.197 OA
ENDROOT
BRANCH   1  26
HETATM   26  N1  UNL     1      10.311  37.019  18.806  1.00  0.00    -0.071 N 
ATOM     27  H12 UNL     1      10.579  37.159  17.832  1.00  0.00     0.277 HD
ATOM     28  H11 UNL     1       9.963  36.061  18.757  1.00  0.00     0.277 HD
BRANCH  26  29
HETATM   29  C5  UNL     1      11.466  37.089  19.659  1.00  0.00     0.233 C 
BRANCH  29  30
HETATM   30  C4  UNL     1      12.657  37.542  18.840  1.00  0.00     0.031 C 
BRANCH  30  31
HETATM   31  C2  UNL     1      13.568  38.386  19.703  1.00  0.00    -0.021 C 
HETATM   32  C1  UNL     1      14.990  37.935  19.443  1.00  0.00     0.009 C 
HETATM   33  C3  UNL     1      13.375  39.865  19.438  1.00  0.00     0.009 C 
ENDBRANCH  30  31
ENDBRANCH  29  30
ENDBRANCH  26  29
ENDBRANCH   1  26
BRANCH  17  34
HETATM   34  C20 UNL     1       2.631  47.260  14.484  1.00  0.00     0.155 C 
BRANCH  34  35
HETATM   35  N3  UNL     1       1.279  47.660  14.784  1.00  0.00    -0.359 N 
HETATM   36  C21 UNL     1       0.134  46.915  14.465  1.00  0.00     0.221 C 
HETATM   37  O1  UNL     1       0.224  45.815  13.874  1.00  0.00    -0.273 OA
ATOM     38  H3  UNL     1       1.145  48.550  15.265  1.00  0.00     0.162 HD
BRANCH  36  39
HETATM   39  C22 UNL     1      -1.247  47.371  14.801  1.00  0.00     0.070 C 
HETATM   40  C23 UNL     1      -2.213  47.028  13.678  1.00  0.00     0.019 C 
HETATM   41  C24 UNL     1      -1.681  46.722  16.088  1.00  0.00     0.019 C 
ENDBRANCH  36  39
ENDBRANCH  34  35
ENDBRANCH  17  34
TORSDOF 7
ENDMDL
MODEL 3
REMARK VINA RESULT: -9.141025075      1.667     10.402
REMARK  7 active torsions:
REMARK  status: ('A' for Active; 'I' for Inactive)
REMARK    1  A    between atoms: C2_2  and  C4_4 
REMARK    2  A    between atoms: C4_4  and  C5_5 
REMARK    3  A    between atoms: C5_5  and  N1_6 
REMARK    4  A    between atoms: N1_6  and  C6_9 
REMARK    5  A    between atoms: C19_25  and  C20_26 
REMARK    6  A    between atoms: C20_26  and  N3_27 
REMARK       I    between atoms: N3_27  and  C21_29 
REMARK    7  A    between atoms: C21_29  and  C22_31 
ROOT
HETATM    1  C6  UNL     1      10.320  37.474  19.335  1.00  0.00     0.186 C 
HETATM    2  C7  UNL     1      10.335  38.946  19.652  1.00  0.00     0.038 C 
HETATM    3  C8  UNL     1      10.296  39.784  18.386  1.00  0.00     0.074 C 
HETATM    4  C9  UNL     1       8.887  39.722  17.845  1.00  0.00     0.258 C 
HETATM    5  C10 UNL     1       8.282  38.374  18.167  1.00  0.00     0.074 C 
HETATM    6  C11 UNL     1       9.376  37.326  18.135  1.00  0.00     0.038 C 
HETATM    7  N2  UNL     1       8.132  40.799  18.476  1.00  0.00    -0.035 N 
ATOM      8  H21 UNL     1       8.511  41.096  19.375  1.00  0.00     0.281 HD
ATOM      9  H22 UNL     1       7.217  40.512  18.822  1.00  0.00     0.281 HD
HETATM   10  C12 UNL     1       8.077  41.874  17.470  1.00  0.00     0.310 C 
HETATM   11  C13 UNL     1       7.200  41.315  16.349  1.00  0.00     0.253 C 
HETATM   12  C14 UNL     1       7.033  42.328  15.262  1.00  0.00     0.079 C 
HETATM   13  C15 UNL     1       5.591  42.716  15.130  1.00  0.00     0.048 C 
HETATM   14  C16 UNL     1       4.949  43.040  16.479  1.00  0.00     0.120 C 
HETATM   15  C17 UNL     1       4.973  44.516  16.657  1.00  0.00     0.045 C 
HETATM   16  C18 UNL     1       3.696  45.155  17.073  1.00  0.00     0.038 C 
HETATM   17  C19 UNL     1       2.458  44.594  16.422  1.00  0.00     0.203 C 
HETATM   18  N4  UNL     1       2.757  43.416  15.622  1.00  0.00    -0.066 N 
ATOM     19  H41 UNL     1       3.217  43.638  14.740  1.00  0.00     0.277 HD
ATOM     20  H42 UNL     1       1.925  42.978  15.229  1.00  0.00     0.277 HD
HETATM   21  C25 UNL     1       3.532  42.519  16.458  1.00  0.00     0.273 C 
HETATM   22  O2  UNL     1       5.640  42.337  17.464  1.00  0.00    -0.225 OA
HETATM   23  O3  UNL     1       5.928  41.144  16.937  1.00  0.00    -0.195 OA
HETATM   24  O4  UNL     1       7.762  40.124  15.948  1.00  0.00    -0.193 OA
HETATM   25  O5  UNL     1       8.955  39.905  16.467  1.00  0.00    -0.197 OA
ENDROOT
BRANCH   1  26
HETATM   26  N1  UNL     1      11.582  36.946  18.945  1.00  0.00    -0.071 N 
ATOM     27  H12 UNL     1      11.697  37.012  17.933  1.00  0.00     0.277 HD
ATOM     28  H11 UNL     1      11.593  35.932  19.057  1.00  0.00     0.277 HD
BRANCH  26  29
HETATM   29  C5  UNL     1      12.708  37.536  19.616  1.00  0.00     0.233 C 
BRANCH  29  30
HETATM   30  C4  UNL     1      13.896  37.541  18.676  1.00  0.00     0.031 C 
BRANCH  30  31
HETATM   31  C2  UNL     1      14.890  38.587  19.129  1.00  0.00    -0.021 C 
HETATM   32  C1  UNL     1      14.103  39.771  19.648  1.00  0.00     0.009 C 
HETATM   33  C3  UNL     1      15.849  38.034  20.163  1.00  0.00     0.009 C 
ENDBRANCH  30  31
ENDBRANCH  29  30
ENDBRANCH  26  29
ENDBRANCH   1  26
BRANCH  17  34
HETATM   34  C20 UNL     1       1.741  45.558  15.550  1.00  0.00     0.155 C 
BRANCH  34  35
HETATM   35  N3  UNL     1       2.572  46.671  15.164  1.00  0.00    -0.359 N 
HETATM   36  C21 UNL     1       3.567  46.623  14.177  1.00  0.00     0.221 C 
HETATM   37  O1  UNL     1       3.803  45.566  13.549  1.00  0.00    -0.273 OA
ATOM     38  H3  UNL     1       2.425  47.559  15.644  1.00  0.00     0.162 HD
BRANCH  36  39
HETATM   39  C22 UNL     1       4.400  47.807  13.810  1.00  0.00     0.070 C 
HETATM   40  C23 UNL     1       4.432  48.814  14.950  1.00  0.00     0.019 C 
HETATM   41  C24 UNL     1       5.793  47.344  13.476  1.00  0.00     0.019 C 
ENDBRANCH  36  39
ENDBRANCH  34  35
ENDBRANCH  17  34
TORSDOF 7
ENDMDL
MODEL 4
REMARK VINA RESULT: -9.134379237      1.508      2.148
REMARK  7 active torsions:
REMARK  status: ('A' for Active; 'I' for Inactive)
REMARK    1  A    between atoms: C2_2  and  C4_4 
REMARK    2  A    between atoms: C4_4  and  C5_5 
REMARK    3  A    between atoms: C5_5  and  N1_6 
REMARK    4  A    between atoms: N1_6  and  C6_9 
REMARK    5  A    between atoms: C19_25  and  C20_26 
REMARK    6  A    between atoms: C20_26  and  N3_27 
REMARK       I    between atoms: N3_27  and  C21_29 
REMARK    7  A    between atoms: C21_29  and  C22_31 
ROOT
HETATM    1  C6  UNL     1       3.616  46.668  15.979  1.00  0.00     0.186 C 
HETATM    2  C7  UNL     1       3.132  45.288  16.334  1.00  0.00     0.038 C 
HETATM    3  C8  UNL     1       3.754  44.234  15.434  1.00  0.00     0.074 C 
HETATM    4  C9  UNL     1       5.188  44.051  15.875  1.00  0.00     0.258 C 
HETATM    5  C10 UNL     1       5.728  45.366  16.393  1.00  0.00     0.074 C 
HETATM    6  C11 UNL     1       5.096  46.498  15.609  1.00  0.00     0.038 C 
HETATM    7  N2  UNL     1       5.194  43.034  16.921  1.00  0.00    -0.035 N 
ATOM      8  H21 UNL     1       4.306  42.946  17.415  1.00  0.00     0.281 HD
ATOM      9  H22 UNL     1       5.757  43.283  17.734  1.00  0.00     0.281 HD
HETATM   10  C12 UNL     1       5.628  41.795  16.253  1.00  0.00     0.310 C 
HETATM   11  C13 UNL     1       7.087  42.048  15.872  1.00  0.00     0.253 C 
HETATM   12  C14 UNL     1       7.669  40.843  15.205  1.00  0.00     0.079 C 
HETATM   13  C15 UNL     1       8.798  40.291  16.022  1.00  0.00     0.048 C 
HETATM   14  C16 UNL     1       8.433  40.152  17.500  1.00  0.00     0.120 C 
HETATM   15  C17 UNL     1       8.024  38.742  17.743  1.00  0.00     0.045 C 
HETATM   16  C18 UNL     1       8.650  38.062  18.907  1.00  0.00     0.038 C 
HETATM   17  C19 UNL     1      10.111  38.364  19.117  1.00  0.00     0.203 C 
HETATM   18  N4  UNL     1      10.581  39.402  18.212  1.00  0.00    -0.066 N 
ATOM     19  H41 UNL     1      10.704  39.073  17.255  1.00  0.00     0.277 HD
ATOM     20  H42 UNL     1      11.549  39.673  18.382  1.00  0.00     0.277 HD
HETATM   21  C25 UNL     1       9.652  40.511  18.317  1.00  0.00     0.273 C 
HETATM   22  O2  UNL     1       7.443  41.089  17.789  1.00  0.00    -0.225 OA
HETATM   23  O3  UNL     1       7.762  42.190  17.103  1.00  0.00    -0.195 OA
HETATM   24  O4  UNL     1       7.117  43.199  15.117  1.00  0.00    -0.193 OA
HETATM   25  O5  UNL     1       5.920  43.630  14.769  1.00  0.00    -0.197 OA
ENDROOT
BRANCH   1  26
HETATM   26  N1  UNL     1       2.965  47.244  14.852  1.00  0.00    -0.071 N 
ATOM     27  H12 UNL     1       3.588  47.245  14.044  1.00  0.00     0.277 HD
ATOM     28  H11 UNL     1       2.849  48.249  14.985  1.00  0.00     0.277 HD
BRANCH  26  29
HETATM   29  C5  UNL     1       1.708  46.635  14.514  1.00  0.00     0.233 C 
BRANCH  29  30
HETATM   30  C4  UNL     1       0.626  47.696  14.529  1.00  0.00     0.031 C 
BRANCH  30  31
HETATM   31  C2  UNL     1      -0.714  47.043  14.783  1.00  0.00    -0.021 C 
HETATM   32  C1  UNL     1      -1.335  46.733  13.438  1.00  0.00     0.009 C 
HETATM   33  C3  UNL     1      -0.578  45.810  15.653  1.00  0.00     0.009 C 
ENDBRANCH  30  31
ENDBRANCH  29  30
ENDBRANCH  26  29
ENDBRANCH   1  26
BRANCH  17  34
HETATM   34  C20 UNL     1      11.004  37.189  18.953  1.00  0.00     0.155 C 
BRANCH  34  35
HETATM   35  N3  UNL     1      12.361  37.569  18.650  1.00  0.00    -0.359 N 
HETATM   36  C21 UNL     1      13.148  38.422  19.438  1.00  0.00     0.221 C 
HETATM   37  O1  UNL     1      12.698  38.925  20.493  1.00  0.00    -0.273 OA
ATOM     38  H3  UNL     1      12.780  37.190  17.801  1.00  0.00     0.162 HD
BRANCH  36  39
HETATM   39  C22 UNL     1      14.553  38.783  19.084  1.00  0.00     0.070 C 
HETATM   40  C23 UNL     1      14.821  40.250  19.385  1.00  0.00     0.019 C 
HETATM   41  C24 UNL     1      15.498  37.904  19.857  1.00  0.00     0.019 C 
ENDBRANCH  36  39
ENDBRANCH  34  35
ENDBRANCH  17  34
TORSDOF 7
ENDMDL
MODEL 5
REMARK VINA RESULT: -8.998754023      2.218     11.069
REMARK  7 active torsions:
REMARK  status: ('A' for Active; 'I' for Inactive)
REMARK    1  A    between atoms: C2_2  and  C4_4 
REMARK    2  A    between atoms: C4_4  and  C5_5 
REMARK    3  A    between atoms: C5_5  and  N1_6 
REMARK    4  A    between atoms: N1_6  and  C6_9 
REMARK    5  A    between atoms: C19_25  and  C20_26 
REMARK    6  A    between atoms: C20_26  and  N3_27 
REMARK       I    between atoms: N3_27  and  C21_29 
REMARK    7  A    between atoms: C21_29  and  C22_31 
ROOT
HETATM    1  C6  UNL     1      10.305  38.715  18.200  1.00  0.00     0.186 C 
HETATM    2  C7  UNL     1       9.864  38.887  16.771  1.00  0.00     0.038 C 
HETATM    3  C8  UNL     1       8.357  39.050  16.673  1.00  0.00     0.074 C 
HETATM    4  C9  UNL     1       8.021  40.445  17.143  1.00  0.00     0.258 C 
HETATM    5  C10 UNL     1       9.001  40.866  18.215  1.00  0.00     0.074 C 
HETATM    6  C11 UNL     1       9.401  39.647  19.019  1.00  0.00     0.038 C 
HETATM    7  N2  UNL     1       8.103  41.326  15.983  1.00  0.00    -0.035 N 
ATOM      8  H21 UNL     1       8.713  40.978  15.244  1.00  0.00     0.281 HD
ATOM      9  H22 UNL     1       8.612  42.192  16.159  1.00  0.00     0.281 HD
HETATM   10  C12 UNL     1       6.709  41.532  15.555  1.00  0.00     0.310 C 
HETATM   11  C13 UNL     1       6.069  42.343  16.682  1.00  0.00     0.253 C 
HETATM   12  C14 UNL     1       4.643  42.653  16.359  1.00  0.00     0.079 C 
HETATM   13  C15 UNL     1       4.446  44.134  16.243  1.00  0.00     0.048 C 
HETATM   14  C16 UNL     1       5.511  44.796  15.368  1.00  0.00     0.120 C 
HETATM   15  C17 UNL     1       4.947  44.962  14.002  1.00  0.00     0.045 C 
HETATM   16  C18 UNL     1       5.094  46.306  13.382  1.00  0.00     0.038 C 
HETATM   17  C19 UNL     1       4.891  47.468  14.319  1.00  0.00     0.203 C 
HETATM   18  N4  UNL     1       4.745  47.029  15.699  1.00  0.00    -0.066 N 
ATOM     19  H41 UNL     1       3.834  46.612  15.891  1.00  0.00     0.277 HD
ATOM     20  H42 UNL     1       4.677  47.802  16.360  1.00  0.00     0.277 HD
HETATM   21  C25 UNL     1       5.851  46.135  15.980  1.00  0.00     0.273 C 
HETATM   22  O2  UNL     1       6.659  44.008  15.418  1.00  0.00    -0.225 OA
HETATM   23  O3  UNL     1       6.759  43.574  16.677  1.00  0.00    -0.195 OA
HETATM   24  O4  UNL     1       6.258  41.636  17.849  1.00  0.00    -0.193 OA
HETATM   25  O5  UNL     1       6.727  40.419  17.656  1.00  0.00    -0.197 OA
ENDROOT
BRANCH   1  26
HETATM   26  N1  UNL     1      10.128  37.400  18.713  1.00  0.00    -0.071 N 
ATOM     27  H12 UNL     1       9.803  36.773  17.977  1.00  0.00     0.277 HD
ATOM     28  H11 UNL     1       9.323  37.369  19.339  1.00  0.00     0.277 HD
BRANCH  26  29
HETATM   29  C5  UNL     1      11.287  36.852  19.362  1.00  0.00     0.233 C 
BRANCH  29  30
HETATM   30  C4  UNL     1      12.531  37.461  18.748  1.00  0.00     0.031 C 
BRANCH  30  31
HETATM   31  C2  UNL     1      13.340  38.147  19.826  1.00  0.00    -0.021 C 
HETATM   32  C1  UNL     1      14.800  37.836  19.568  1.00  0.00     0.009 C 
HETATM   33  C3  UNL     1      13.066  39.636  19.867  1.00  0.00     0.009 C 
ENDBRANCH  30  31
ENDBRANCH  29  30
ENDBRANCH  26  29
ENDBRANCH   1  26
BRANCH  17  34
HETATM   34  C20 UNL     1       3.716  48.315  13.992  1.00  0.00     0.155 C 
BRANCH  34  35
HETATM   35  N3  UNL     1       2.475  47.585  14.071  1.00  0.00    -0.359 N 
HETATM   36  C21 UNL     1       1.257  48.121  14.512  1.00  0.00     0.221 C 
HETATM   37  O1  UNL     1       1.174  49.315  14.881  1.00  0.00    -0.273 OA
ATOM     38  H3  UNL     1       2.484  46.606  13.784  1.00  0.00     0.162 HD
BRANCH  36  39
HETATM   39  C22 UNL     1      -0.003  47.323  14.572  1.00  0.00     0.070 C 
HETATM   40  C23 UNL     1       0.258  45.951  15.175  1.00  0.00     0.019 C 
HETATM   41  C24 UNL     1      -1.023  48.073  15.388  1.00  0.00     0.019 C 
ENDBRANCH  36  39
ENDBRANCH  34  35
ENDBRANCH  17  34
TORSDOF 7
ENDMDL
