MODEL 1
REMARK VINA RESULT: -9.843119997      0.000      0.000
REMARK  14 active torsions:
REMARK  status: ('A' for Active; 'I' for Inactive)
REMARK    1  A    between atoms: C2_3  and  O2_4 
REMARK    2  A    between atoms: C2_3  and  C3_6 
REMARK    3  A    between atoms: C3_6  and  C4_7 
REMARK    4  A    between atoms: C4_7  and  C6_9 
REMARK       I    between atoms: C6_9  and  N1_11 
REMARK    5  A    between atoms: N1_11  and  C7_12 
REMARK    6  A    between atoms: N1_11  and  C26_38 
REMARK    7  A    between atoms: C7_12  and  C8_13 
REMARK       I    between atoms: N2_16  and  C11_18 
REMARK       I    between atoms: C11_18  and  N3_20 
REMARK    8  A    between atoms: N3_20  and  C12_22 
REMARK    9  A    between atoms: C12_22  and  C14_24 
REMARK   10  A    between atoms: C14_24  and  C15_25 
REMARK   11  A    between atoms: C16_26  and  C18_28 
REMARK   12  A    between atoms: C18_28  and  C19_29 
REMARK   13  A    between atoms: C19_29  and  C20_30 
REMARK   14  A    between atoms: C20_30  and  C21_31 
ROOT
HETATM    1  C1  UNL     1      29.504  23.853  20.148  1.00  0.00     0.204 C 
HETATM    2  O1  UNL     1      29.449  24.429  21.334  1.00  0.00    -0.365 OA
HETATM    3  C2  UNL     1      29.263  24.992  22.439  1.00  0.00     0.265 C 
ENDROOT
BRANCH   3   4
HETATM    4  O2  UNL     1      28.005  25.316  22.654  1.00  0.00    -0.370 OA
ATOM      5  H2  UNL     1      27.791  25.399  23.576  1.00  0.00     0.212 HD
ENDBRANCH   3   4
BRANCH   3   6
HETATM    6  C3  UNL     1      30.245  25.365  23.561  1.00  0.00     0.021 C 
HETATM    7  C29 UNL     1      31.653  25.188  23.104  1.00  0.00     0.015 C 
HETATM    8  C30 UNL     1      31.606  23.748  23.631  1.00  0.00     0.002 C 
HETATM    9  C31 UNL     1      30.406  24.144  24.455  1.00  0.00     0.015 C 
BRANCH   6  10
HETATM   10  C4  UNL     1      29.807  26.607  24.239  1.00  0.00     0.087 C 
HETATM   11  C5  UNL     1      29.414  26.303  25.701  1.00  0.00     0.021 C 
BRANCH  10  12
HETATM   12  C6  UNL     1      30.776  27.702  24.208  1.00  0.00     0.228 C 
HETATM   13  O3  UNL     1      31.645  27.768  25.129  1.00  0.00    -0.273 OA
HETATM   14  N1  UNL     1      30.859  28.744  23.246  1.00  0.00    -0.322 N 
BRANCH  14  15
HETATM   15  C7  UNL     1      30.036  28.807  22.103  1.00  0.00     0.123 C 
BRANCH  15  16
HETATM   16  C8  UNL     1      29.068  29.910  21.980  1.00  0.00     0.050 A 
HETATM   17  C9  UNL     1      28.498  30.481  23.136  1.00  0.00     0.060 A 
HETATM   18  C10 UNL     1      27.572  31.490  23.096  1.00  0.00     0.039 A 
HETATM   19  N2  UNL     1      27.067  31.964  24.198  1.00  0.00    -0.309 N 
HETATM   20  C24 UNL     1      27.171  31.979  21.879  1.00  0.00     0.046 A 
HETATM   21  C11 UNL     1      26.098  33.025  24.026  1.00  0.00     0.321 C 
ATOM     22  H2  UNL     1      27.335  31.613  25.117  1.00  0.00     0.170 HD
HETATM   23  O4  UNL     1      24.912  32.670  24.098  1.00  0.00    -0.247 OA
HETATM   24  N3  UNL     1      26.514  34.349  23.799  1.00  0.00    -0.338 N 
ATOM     25  H3  UNL     1      27.520  34.514  23.772  1.00  0.00     0.164 HD
HETATM   26  C25 UNL     1      27.731  31.419  20.746  1.00  0.00     0.090 A 
HETATM   27  N4  UNL     1      28.648  30.418  20.827  1.00  0.00    -0.365 N 
ATOM     28  H4  UNL     1      29.033  30.039  19.961  1.00  0.00     0.165 HD
BRANCH  24  29
HETATM   29  C12 UNL     1      25.669  35.495  23.602  1.00  0.00     0.085 C 
HETATM   30  C13 UNL     1      24.842  35.885  24.767  1.00  0.00     0.032 C 
BRANCH  29  31
HETATM   31  C14 UNL     1      24.831  35.373  22.326  1.00  0.00     0.052 C 
BRANCH  31  32
HETATM   32  C15 UNL     1      25.655  34.765  21.244  1.00  0.00    -0.022 C 
HETATM   33  C16 UNL     1      25.324  34.967  19.930  1.00  0.00    -0.087 C 
HETATM   34  C17 UNL     1      24.147  35.800  19.679  1.00  0.00     0.043 C 
BRANCH  33  35
HETATM   35  C18 UNL     1      26.167  34.345  18.894  1.00  0.00     0.033 C 
BRANCH  35  36
HETATM   36  C19 UNL     1      25.608  34.126  17.556  1.00  0.00     0.005 C 
BRANCH  36  37
HETATM   37  C20 UNL     1      25.971  34.923  16.381  1.00  0.00     0.004 C 
BRANCH  37  38
HETATM   38  C21 UNL     1      26.119  36.397  16.532  1.00  0.00    -0.023 C 
HETATM   39  C22 UNL     1      27.423  36.988  16.870  1.00  0.00     0.009 C 
HETATM   40  C23 UNL     1      25.550  37.100  15.284  1.00  0.00     0.009 C 
ENDBRANCH  37  38
ENDBRANCH  36  37
ENDBRANCH  35  36
ENDBRANCH  33  35
ENDBRANCH  31  32
ENDBRANCH  29  31
ENDBRANCH  24  29
ENDBRANCH  15  16
ENDBRANCH  14  15
BRANCH  14  41
HETATM   41  C26 UNL     1      31.828  29.810  23.501  1.00  0.00     0.084 C 
HETATM   42  C27 UNL     1      32.066  30.678  22.318  1.00  0.00     0.032 C 
HETATM   43  C28 UNL     1      31.494  30.600  24.718  1.00  0.00     0.032 C 
ENDBRANCH  14  41
ENDBRANCH  10  12
ENDBRANCH   6  10
ENDBRANCH   3   6
TORSDOF 14
ENDMDL
MODEL 2
REMARK VINA RESULT: -9.815617646      2.083      3.038
REMARK  14 active torsions:
REMARK  status: ('A' for Active; 'I' for Inactive)
REMARK    1  A    between atoms: C2_3  and  O2_4 
REMARK    2  A    between atoms: C2_3  and  C3_6 
REMARK    3  A    between atoms: C3_6  and  C4_7 
REMARK    4  A    between atoms: C4_7  and  C6_9 
REMARK       I    between atoms: C6_9  and  N1_11 
REMARK    5  A    between atoms: N1_11  and  C7_12 
REMARK    6  A    between atoms: N1_11  and  C26_38 
REMARK    7  A    between atoms: C7_12  and  C8_13 
REMARK       I    between atoms: N2_16  and  C11_18 
REMARK       I    between atoms: C11_18  and  N3_20 
REMARK    8  A    between atoms: N3_20  and  C12_22 
REMARK    9  A    between atoms: C12_22  and  C14_24 
REMARK   10  A    between atoms: C14_24  and  C15_25 
REMARK   11  A    between atoms: C16_26  and  C18_28 
REMARK   12  A    between atoms: C18_28  and  C19_29 
REMARK   13  A    between atoms: C19_29  and  C20_30 
REMARK   14  A    between atoms: C20_30  and  C21_31 
ROOT
HETATM    1  C1  UNL     1      29.924  24.052  21.096  1.00  0.00     0.204 C 
HETATM    2  O1  UNL     1      29.819  24.895  22.106  1.00  0.00    -0.365 OA
HETATM    3  C2  UNL     1      29.596  25.726  23.018  1.00  0.00     0.265 C 
ENDROOT
BRANCH   3   4
HETATM    4  O2  UNL     1      28.404  26.280  22.938  1.00  0.00    -0.370 OA
ATOM      5  H2  UNL     1      28.378  27.033  22.359  1.00  0.00     0.212 HD
ENDBRANCH   3   4
BRANCH   3   6
HETATM    6  C3  UNL     1      30.470  26.200  24.189  1.00  0.00     0.021 C 
HETATM    7  C29 UNL     1      31.674  25.332  24.330  1.00  0.00     0.015 C 
HETATM    8  C30 UNL     1      30.875  24.442  25.292  1.00  0.00     0.002 C 
HETATM    9  C31 UNL     1      29.906  25.586  25.462  1.00  0.00     0.015 C 
BRANCH   6  10
HETATM   10  C4  UNL     1      30.586  27.678  24.183  1.00  0.00     0.087 C 
HETATM   11  C5  UNL     1      31.222  28.165  25.504  1.00  0.00     0.021 C 
BRANCH  10  12
HETATM   12  C6  UNL     1      31.321  28.235  23.049  1.00  0.00     0.228 C 
HETATM   13  O3  UNL     1      32.566  28.009  22.963  1.00  0.00    -0.273 OA
HETATM   14  N1  UNL     1      30.795  29.036  22.000  1.00  0.00    -0.322 N 
BRANCH  14  15
HETATM   15  C7  UNL     1      29.425  29.335  21.869  1.00  0.00     0.123 C 
BRANCH  15  16
HETATM   16  C8  UNL     1      28.891  30.543  22.521  1.00  0.00     0.050 A 
HETATM   17  C9  UNL     1      27.800  31.230  21.951  1.00  0.00     0.060 A 
HETATM   18  C10 UNL     1      27.270  32.374  22.488  1.00  0.00     0.039 A 
HETATM   19  N2  UNL     1      26.274  32.974  21.904  1.00  0.00    -0.309 N 
HETATM   20  C24 UNL     1      27.815  32.885  23.637  1.00  0.00     0.046 A 
HETATM   21  C11 UNL     1      25.803  34.172  22.565  1.00  0.00     0.321 C 
ATOM     22  H2  UNL     1      25.855  32.626  21.042  1.00  0.00     0.170 HD
HETATM   23  O4  UNL     1      26.216  35.236  22.082  1.00  0.00    -0.247 OA
HETATM   24  N3  UNL     1      24.937  34.090  23.671  1.00  0.00    -0.338 N 
ATOM     25  H3  UNL     1      24.661  33.155  23.967  1.00  0.00     0.164 HD
HETATM   26  C25 UNL     1      28.884  32.210  24.197  1.00  0.00     0.090 A 
HETATM   27  N4  UNL     1      29.383  31.077  23.633  1.00  0.00    -0.365 N 
ATOM     28  H4  UNL     1      30.172  30.616  24.086  1.00  0.00     0.165 HD
BRANCH  24  29
HETATM   29  C12 UNL     1      24.401  35.189  24.427  1.00  0.00     0.085 C 
HETATM   30  C13 UNL     1      24.218  34.936  25.875  1.00  0.00     0.032 C 
BRANCH  29  31
HETATM   31  C14 UNL     1      23.133  35.759  23.785  1.00  0.00     0.052 C 
BRANCH  31  32
HETATM   32  C15 UNL     1      23.486  36.936  22.942  1.00  0.00    -0.022 C 
HETATM   33  C16 UNL     1      22.540  37.884  22.653  1.00  0.00    -0.087 C 
HETATM   34  C17 UNL     1      21.209  37.664  23.218  1.00  0.00     0.043 C 
BRANCH  33  35
HETATM   35  C18 UNL     1      22.934  39.030  21.815  1.00  0.00     0.033 C 
BRANCH  35  36
HETATM   36  C19 UNL     1      23.231  38.809  20.396  1.00  0.00     0.005 C 
BRANCH  36  37
HETATM   37  C20 UNL     1      22.339  38.096  19.479  1.00  0.00     0.004 C 
BRANCH  37  38
HETATM   38  C21 UNL     1      22.817  36.836  18.846  1.00  0.00    -0.023 C 
HETATM   39  C22 UNL     1      23.806  35.986  19.525  1.00  0.00     0.009 C 
HETATM   40  C23 UNL     1      21.605  35.978  18.434  1.00  0.00     0.009 C 
ENDBRANCH  37  38
ENDBRANCH  36  37
ENDBRANCH  35  36
ENDBRANCH  33  35
ENDBRANCH  31  32
ENDBRANCH  29  31
ENDBRANCH  24  29
ENDBRANCH  15  16
ENDBRANCH  14  15
BRANCH  14  41
HETATM   41  C26 UNL     1      31.754  29.596  21.046  1.00  0.00     0.084 C 
HETATM   42  C27 UNL     1      31.241  29.623  19.650  1.00  0.00     0.032 C 
HETATM   43  C28 UNL     1      32.273  30.923  21.478  1.00  0.00     0.032 C 
ENDBRANCH  14  41
ENDBRANCH  10  12
ENDBRANCH   6  10
ENDBRANCH   3   6
TORSDOF 14
ENDMDL
MODEL 3
REMARK VINA RESULT: -9.745952872      3.594     11.373
REMARK  14 active torsions:
REMARK  status: ('A' for Active; 'I' for Inactive)
REMARK    1  A    between atoms: C2_3  and  O2_4 
REMARK    2  A    between atoms: C2_3  and  C3_6 
REMARK    3  A    between atoms: C3_6  and  C4_7 
REMARK    4  A    between atoms: C4_7  and  C6_9 
REMARK       I    between atoms: C6_9  and  N1_11 
REMARK    5  A    between atoms: N1_11  and  C7_12 
REMARK    6  A    between atoms: N1_11  and  C26_38 
REMARK    7  A    between atoms: C7_12  and  C8_13 
REMARK       I    between atoms: N2_16  and  C11_18 
REMARK       I    between atoms: C11_18  and  N3_20 
REMARK    8  A    between atoms: N3_20  and  C12_22 
REMARK    9  A    between atoms: C12_22  and  C14_24 
REMARK   10  A    between atoms: C14_24  and  C15_25 
REMARK   11  A    between atoms: C16_26  and  C18_28 
REMARK   12  A    between atoms: C18_28  and  C19_29 
REMARK   13  A    between atoms: C19_29  and  C20_30 
REMARK   14  A    between atoms: C20_30  and  C21_31 
ROOT
HETATM    1  C1  UNL     1      29.084  38.242  16.751  1.00  0.00     0.204 C 
HETATM    2  O1  UNL     1      27.942  37.587  16.658  1.00  0.00    -0.365 OA
HETATM    3  C2  UNL     1      26.923  36.856  16.616  1.00  0.00     0.265 C 
ENDROOT
BRANCH   3   4
HETATM    4  O2  UNL     1      27.140  35.635  17.058  1.00  0.00    -0.370 OA
ATOM      5  H2  UNL     1      27.087  34.974  16.377  1.00  0.00     0.212 HD
ENDBRANCH   3   4
BRANCH   3   6
HETATM    6  C3  UNL     1      25.492  37.145  16.139  1.00  0.00     0.021 C 
HETATM    7  C29 UNL     1      24.890  35.928  15.524  1.00  0.00     0.015 C 
HETATM    8  C30 UNL     1      25.431  36.391  14.164  1.00  0.00     0.002 C 
HETATM    9  C31 UNL     1      25.586  37.771  14.755  1.00  0.00     0.015 C 
BRANCH   6  10
HETATM   10  C4  UNL     1      24.758  37.935  17.155  1.00  0.00     0.087 C 
HETATM   11  C5  UNL     1      24.941  39.445  16.886  1.00  0.00     0.021 C 
BRANCH  10  12
HETATM   12  C6  UNL     1      23.334  37.625  17.269  1.00  0.00     0.228 C 
HETATM   13  O3  UNL     1      22.570  37.923  16.302  1.00  0.00    -0.273 OA
HETATM   14  N1  UNL     1      22.677  37.019  18.373  1.00  0.00    -0.322 N 
BRANCH  14  15
HETATM   15  C7  UNL     1      23.357  36.542  19.511  1.00  0.00     0.123 C 
BRANCH  15  16
HETATM   16  C8  UNL     1      24.249  35.377  19.375  1.00  0.00     0.050 A 
HETATM   17  C9  UNL     1      25.456  35.324  20.100  1.00  0.00     0.060 A 
HETATM   18  C10 UNL     1      26.345  34.285  20.002  1.00  0.00     0.039 A 
HETATM   19  N2  UNL     1      27.454  34.302  20.683  1.00  0.00    -0.309 N 
HETATM   20  C24 UNL     1      26.059  33.240  19.163  1.00  0.00     0.046 A 
HETATM   21  C11 UNL     1      28.312  33.152  20.494  1.00  0.00     0.321 C 
ATOM     22  H2  UNL     1      27.701  35.071  21.305  1.00  0.00     0.170 HD
HETATM   23  O4  UNL     1      29.253  33.322  19.706  1.00  0.00    -0.247 OA
HETATM   24  N3  UNL     1      28.061  31.948  21.178  1.00  0.00    -0.338 N 
ATOM     25  H3  UNL     1      27.259  31.939  21.808  1.00  0.00     0.164 HD
HETATM   26  C25 UNL     1      24.874  33.292  18.452  1.00  0.00     0.090 A 
HETATM   27  N4  UNL     1      24.016  34.341  18.577  1.00  0.00    -0.365 N 
ATOM     28  H4  UNL     1      23.154  34.332  18.032  1.00  0.00     0.165 HD
BRANCH  24  29
HETATM   29  C12 UNL     1      28.817  30.730  21.081  1.00  0.00     0.085 C 
HETATM   30  C13 UNL     1      28.259  29.574  21.819  1.00  0.00     0.032 C 
BRANCH  29  31
HETATM   31  C14 UNL     1      30.298  30.951  21.404  1.00  0.00     0.052 C 
BRANCH  31  32
HETATM   32  C15 UNL     1      30.962  29.636  21.626  1.00  0.00    -0.022 C 
HETATM   33  C16 UNL     1      31.761  29.096  20.653  1.00  0.00    -0.087 C 
HETATM   34  C17 UNL     1      31.913  29.881  19.428  1.00  0.00     0.043 C 
BRANCH  33  35
HETATM   35  C18 UNL     1      32.397  27.793  20.917  1.00  0.00     0.033 C 
BRANCH  35  36
HETATM   36  C19 UNL     1      32.008  27.038  22.112  1.00  0.00     0.005 C 
BRANCH  36  37
HETATM   37  C20 UNL     1      30.998  25.976  22.112  1.00  0.00     0.004 C 
BRANCH  37  38
HETATM   38  C21 UNL     1      30.052  25.886  23.259  1.00  0.00    -0.023 C 
HETATM   39  C22 UNL     1      30.047  26.915  24.309  1.00  0.00     0.009 C 
HETATM   40  C23 UNL     1      28.619  25.694  22.727  1.00  0.00     0.009 C 
ENDBRANCH  37  38
ENDBRANCH  36  37
ENDBRANCH  35  36
ENDBRANCH  33  35
ENDBRANCH  31  32
ENDBRANCH  29  31
ENDBRANCH  24  29
ENDBRANCH  15  16
ENDBRANCH  14  15
BRANCH  14  41
HETATM   41  C26 UNL     1      21.217  36.935  18.314  1.00  0.00     0.084 C 
HETATM   42  C27 UNL     1      20.728  35.642  17.765  1.00  0.00     0.032 C 
HETATM   43  C28 UNL     1      20.577  37.269  19.616  1.00  0.00     0.032 C 
ENDBRANCH  14  41
ENDBRANCH  10  12
ENDBRANCH   6  10
ENDBRANCH   3   6
TORSDOF 14
ENDMDL
MODEL 4
REMARK VINA RESULT: -9.724451263      3.498     11.631
REMARK  14 active torsions:
REMARK  status: ('A' for Active; 'I' for Inactive)
REMARK    1  A    between atoms: C2_3  and  O2_4 
REMARK    2  A    between atoms: C2_3  and  C3_6 
REMARK    3  A    between atoms: C3_6  and  C4_7 
REMARK    4  A    between atoms: C4_7  and  C6_9 
REMARK       I    between atoms: C6_9  and  N1_11 
REMARK    5  A    between atoms: N1_11  and  C7_12 
REMARK    6  A    between atoms: N1_11  and  C26_38 
REMARK    7  A    between atoms: C7_12  and  C8_13 
REMARK       I    between atoms: N2_16  and  C11_18 
REMARK       I    between atoms: C11_18  and  N3_20 
REMARK    8  A    between atoms: N3_20  and  C12_22 
REMARK    9  A    between atoms: C12_22  and  C14_24 
REMARK   10  A    between atoms: C14_24  and  C15_25 
REMARK   11  A    between atoms: C16_26  and  C18_28 
REMARK   12  A    between atoms: C18_28  and  C19_29 
REMARK   13  A    between atoms: C19_29  and  C20_30 
REMARK   14  A    between atoms: C20_30  and  C21_31 
ROOT
HETATM    1  C1  UNL     1      20.910  36.390  15.578  1.00  0.00     0.204 C 
HETATM    2  O1  UNL     1      22.170  36.690  15.329  1.00  0.00    -0.365 OA
HETATM    3  C2  UNL     1      23.324  37.097  15.051  1.00  0.00     0.265 C 
ENDROOT
BRANCH   3   4
HETATM    4  O2  UNL     1      23.346  38.336  14.606  1.00  0.00    -0.370 OA
ATOM      5  H2  UNL     1      23.394  38.396  13.659  1.00  0.00     0.212 HD
ENDBRANCH   3   4
BRANCH   3   6
HETATM    6  C3  UNL     1      24.689  36.399  15.136  1.00  0.00     0.021 C 
HETATM    7  C29 UNL     1      25.405  36.486  13.831  1.00  0.00     0.015 C 
HETATM    8  C30 UNL     1      24.756  35.157  13.426  1.00  0.00     0.002 C 
HETATM    9  C31 UNL     1      24.463  34.915  14.886  1.00  0.00     0.015 C 
BRANCH   6  10
HETATM   10  C4  UNL     1      25.367  36.742  16.408  1.00  0.00     0.087 C 
HETATM   11  C5  UNL     1      26.427  37.839  16.166  1.00  0.00     0.021 C 
BRANCH  10  12
HETATM   12  C6  UNL     1      24.476  37.150  17.492  1.00  0.00     0.228 C 
HETATM   13  O3  UNL     1      24.189  38.380  17.610  1.00  0.00    -0.273 OA
HETATM   14  N1  UNL     1      23.879  36.311  18.471  1.00  0.00    -0.322 N 
BRANCH  14  15
HETATM   15  C7  UNL     1      24.008  34.908  18.468  1.00  0.00     0.123 C 
BRANCH  15  16
HETATM   16  C8  UNL     1      25.270  34.305  18.930  1.00  0.00     0.050 A 
HETATM   17  C9  UNL     1      25.318  33.629  20.166  1.00  0.00     0.060 A 
HETATM   18  C10 UNL     1      26.463  33.068  20.670  1.00  0.00     0.039 A 
HETATM   19  N2  UNL     1      26.449  32.473  21.827  1.00  0.00    -0.309 N 
HETATM   20  C24 UNL     1      27.624  33.160  19.947  1.00  0.00     0.046 A 
HETATM   21  C11 UNL     1      27.718  31.922  22.253  1.00  0.00     0.321 C 
ATOM     22  H2  UNL     1      25.604  32.399  22.394  1.00  0.00     0.170 HD
HETATM   23  O4  UNL     1      28.349  32.620  23.060  1.00  0.00    -0.247 OA
HETATM   24  N3  UNL     1      28.163  30.681  21.764  1.00  0.00    -0.338 N 
ATOM     25  H3  UNL     1      27.546  30.199  21.111  1.00  0.00     0.164 HD
HETATM   26  C25 UNL     1      27.576  33.823  18.735  1.00  0.00     0.090 A 
HETATM   27  N4  UNL     1      26.419  34.366  18.268  1.00  0.00    -0.365 N 
ATOM     28  H4  UNL     1      26.436  34.844  17.367  1.00  0.00     0.165 HD
BRANCH  24  29
HETATM   29  C12 UNL     1      29.398  30.021  22.089  1.00  0.00     0.085 C 
HETATM   30  C13 UNL     1      30.286  29.730  20.941  1.00  0.00     0.032 C 
BRANCH  29  31
HETATM   31  C14 UNL     1      29.171  28.782  22.961  1.00  0.00     0.052 C 
BRANCH  31  32
HETATM   32  C15 UNL     1      30.174  27.737  22.615  1.00  0.00    -0.022 C 
HETATM   33  C16 UNL     1      31.143  27.387  23.518  1.00  0.00    -0.087 C 
HETATM   34  C17 UNL     1      31.115  28.087  24.802  1.00  0.00     0.043 C 
BRANCH  33  35
HETATM   35  C18 UNL     1      32.114  26.349  23.132  1.00  0.00     0.033 C 
BRANCH  35  36
HETATM   36  C19 UNL     1      32.134  25.081  23.869  1.00  0.00     0.005 C 
BRANCH  36  37
HETATM   37  C20 UNL     1      31.178  23.994  23.645  1.00  0.00     0.004 C 
BRANCH  37  38
HETATM   38  C21 UNL     1      29.896  23.998  24.403  1.00  0.00    -0.023 C 
HETATM   39  C22 UNL     1      29.770  24.755  25.656  1.00  0.00     0.009 C 
HETATM   40  C23 UNL     1      28.743  24.382  23.456  1.00  0.00     0.009 C 
ENDBRANCH  37  38
ENDBRANCH  36  37
ENDBRANCH  35  36
ENDBRANCH  33  35
ENDBRANCH  31  32
ENDBRANCH  29  31
ENDBRANCH  24  29
ENDBRANCH  15  16
ENDBRANCH  14  15
BRANCH  14  41
HETATM   41  C26 UNL     1      23.133  36.968  19.545  1.00  0.00     0.084 C 
HETATM   42  C27 UNL     1      21.666  36.737  19.462  1.00  0.00     0.032 C 
HETATM   43  C28 UNL     1      23.675  36.645  20.893  1.00  0.00     0.032 C 
ENDBRANCH  14  41
ENDBRANCH  10  12
ENDBRANCH   6  10
ENDBRANCH   3   6
TORSDOF 14
ENDMDL
MODEL 5
REMARK VINA RESULT: -9.621940389      2.860      4.450
REMARK  14 active torsions:
REMARK  status: ('A' for Active; 'I' for Inactive)
REMARK    1  A    between atoms: C2_3  and  O2_4 
REMARK    2  A    between atoms: C2_3  and  C3_6 
REMARK    3  A    between atoms: C3_6  and  C4_7 
REMARK    4  A    between atoms: C4_7  and  C6_9 
REMARK       I    between atoms: C6_9  and  N1_11 
REMARK    5  A    between atoms: N1_11  and  C7_12 
REMARK    6  A    between atoms: N1_11  and  C26_38 
REMARK    7  A    between atoms: C7_12  and  C8_13 
REMARK       I    between atoms: N2_16  and  C11_18 
REMARK       I    between atoms: C11_18  and  N3_20 
REMARK    8  A    between atoms: N3_20  and  C12_22 
REMARK    9  A    between atoms: C12_22  and  C14_24 
REMARK   10  A    between atoms: C14_24  and  C15_25 
REMARK   11  A    between atoms: C16_26  and  C18_28 
REMARK   12  A    between atoms: C18_28  and  C19_29 
REMARK   13  A    between atoms: C19_29  and  C20_30 
REMARK   14  A    between atoms: C20_30  and  C21_31 
ROOT
HETATM    1  C1  UNL     1      29.889  24.212  21.032  1.00  0.00     0.204 C 
HETATM    2  O1  UNL     1      29.797  24.979  22.101  1.00  0.00    -0.365 OA
HETATM    3  C2  UNL     1      29.582  25.735  23.079  1.00  0.00     0.265 C 
ENDROOT
BRANCH   3   4
HETATM    4  O2  UNL     1      28.363  26.231  23.096  1.00  0.00    -0.370 OA
ATOM      5  H2  UNL     1      27.688  25.574  22.974  1.00  0.00     0.212 HD
ENDBRANCH   3   4
BRANCH   3   6
HETATM    6  C3  UNL     1      30.493  26.175  24.235  1.00  0.00     0.021 C 
HETATM    7  C29 UNL     1      31.685  25.284  24.332  1.00  0.00     0.015 C 
HETATM    8  C30 UNL     1      30.895  24.392  25.299  1.00  0.00     0.002 C 
HETATM    9  C31 UNL     1      29.950  25.549  25.512  1.00  0.00     0.015 C 
BRANCH   6  10
HETATM   10  C4  UNL     1      30.634  27.650  24.250  1.00  0.00     0.087 C 
HETATM   11  C5  UNL     1      31.348  28.101  25.544  1.00  0.00     0.021 C 
BRANCH  10  12
HETATM   12  C6  UNL     1      31.317  28.217  23.089  1.00  0.00     0.228 C 
HETATM   13  O3  UNL     1      32.560  28.008  22.954  1.00  0.00    -0.273 OA
HETATM   14  N1  UNL     1      30.740  29.011  22.062  1.00  0.00    -0.322 N 
BRANCH  14  15
HETATM   15  C7  UNL     1      29.361  29.292  21.985  1.00  0.00     0.123 C 
BRANCH  15  16
HETATM   16  C8  UNL     1      28.848  30.530  22.597  1.00  0.00     0.050 A 
HETATM   17  C9  UNL     1      27.748  31.198  22.023  1.00  0.00     0.060 A 
HETATM   18  C10 UNL     1      27.235  32.367  22.523  1.00  0.00     0.039 A 
HETATM   19  N2  UNL     1      26.229  32.947  21.937  1.00  0.00    -0.309 N 
HETATM   20  C24 UNL     1      27.809  32.924  23.636  1.00  0.00     0.046 A 
HETATM   21  C11 UNL     1      25.779  34.175  22.556  1.00  0.00     0.321 C 
ATOM     22  H2  UNL     1      25.788  32.565  21.100  1.00  0.00     0.170 HD
HETATM   23  O4  UNL     1      26.186  35.215  22.018  1.00  0.00    -0.247 OA
HETATM   24  N3  UNL     1      24.939  34.146  23.684  1.00  0.00    -0.338 N 
ATOM     25  H3  UNL     1      24.665  33.225  24.026  1.00  0.00     0.164 HD
HETATM   26  C25 UNL     1      28.888  32.267  24.199  1.00  0.00     0.090 A 
HETATM   27  N4  UNL     1      29.368  31.108  23.674  1.00  0.00    -0.365 N 
ATOM     28  H4  UNL     1      30.166  30.662  24.127  1.00  0.00     0.165 HD
BRANCH  24  29
HETATM   29  C12 UNL     1      24.425  35.279  24.404  1.00  0.00     0.085 C 
HETATM   30  C13 UNL     1      24.247  35.079  25.861  1.00  0.00     0.032 C 
BRANCH  29  31
HETATM   31  C14 UNL     1      23.164  35.848  23.749  1.00  0.00     0.052 C 
BRANCH  31  32
HETATM   32  C15 UNL     1      23.411  37.254  23.327  1.00  0.00    -0.022 C 
HETATM   33  C16 UNL     1      22.358  38.108  23.127  1.00  0.00    -0.087 C 
HETATM   34  C17 UNL     1      21.023  37.556  23.357  1.00  0.00     0.043 C 
BRANCH  33  35
HETATM   35  C18 UNL     1      22.651  39.491  22.710  1.00  0.00     0.033 C 
BRANCH  35  36
HETATM   36  C19 UNL     1      22.549  40.571  23.696  1.00  0.00     0.005 C 
BRANCH  36  37
HETATM   37  C20 UNL     1      23.680  41.058  24.490  1.00  0.00     0.004 C 
BRANCH  37  38
HETATM   38  C21 UNL     1      24.093  40.290  25.698  1.00  0.00    -0.023 C 
HETATM   39  C22 UNL     1      23.137  39.413  26.390  1.00  0.00     0.009 C 
HETATM   40  C23 UNL     1      25.378  39.499  25.388  1.00  0.00     0.009 C 
ENDBRANCH  37  38
ENDBRANCH  36  37
ENDBRANCH  35  36
ENDBRANCH  33  35
ENDBRANCH  31  32
ENDBRANCH  29  31
ENDBRANCH  24  29
ENDBRANCH  15  16
ENDBRANCH  14  15
BRANCH  14  41
HETATM   41  C26 UNL     1      31.652  29.585  21.072  1.00  0.00     0.084 C 
HETATM   42  C27 UNL     1      31.074  29.630  19.702  1.00  0.00     0.032 C 
HETATM   43  C28 UNL     1      32.193  30.905  21.497  1.00  0.00     0.032 C 
ENDBRANCH  14  41
ENDBRANCH  10  12
ENDBRANCH   6  10
ENDBRANCH   3   6
TORSDOF 14
ENDMDL
