MODEL 1
REMARK VINA RESULT: -10.112602481      0.000      0.000
REMARK  13 active torsions:
REMARK  status: ('A' for Active; 'I' for Inactive)
REMARK    1  A    between atoms: C2_2  and  C3_3 
REMARK    2  A    between atoms: C3_3  and  N1_4 
REMARK    3  A    between atoms: C5_7  and  N2_8 
REMARK    4  A    between atoms: N2_8  and  C6_10 
REMARK    5  A    between atoms: C6_10  and  C7_11 
REMARK    6  A    between atoms: C6_10  and  C17_24 
REMARK    7  A    between atoms: C7_11  and  N3_12 
REMARK    8  A    between atoms: N3_12  and  C8_15 
REMARK    9  A    between atoms: C8_15  and  C10_17 
REMARK   10  A    between atoms: C10_17  and  C11_18 
REMARK   11  A    between atoms: C20_27  and  O2_28 
REMARK   12  A    between atoms: O2_28  and  C21_29 
REMARK   13  A    between atoms: C21_29  and  C22_30 
ROOT
HETATM    1  C6  UNL     1      25.914  32.786  23.823  1.00  0.00     0.154 C 
ENDROOT
BRANCH   1   2
HETATM    2  N2  UNL     1      25.253  33.032  22.621  1.00  0.00    -0.390 N 
ATOM      3  H2  UNL     1      24.475  32.439  22.331  1.00  0.00     0.155 HD
BRANCH   2   4
HETATM    4  C5  UNL     1      25.674  34.123  21.800  1.00  0.00     0.239 C 
HETATM    5  C4  UNL     1      25.832  33.785  20.341  1.00  0.00     0.258 C 
HETATM    6  N1  UNL     1      25.247  34.510  19.198  1.00  0.00    -0.311 N 
HETATM    7  O1  UNL     1      26.499  32.828  19.969  1.00  0.00    -0.270 OA
HETATM    8  C36 UNL     1      24.075  35.352  19.175  1.00  0.00     0.044 A 
HETATM    9  C31 UNL     1      23.522  36.146  20.165  1.00  0.00    -0.021 A 
HETATM   10  C35 UNL     1      23.446  35.330  17.940  1.00  0.00     0.030 A 
HETATM   11  C30 UNL     1      23.973  36.344  21.614  1.00  0.00     0.123 C 
HETATM   12  C32 UNL     1      22.404  36.882  19.947  1.00  0.00     0.010 A 
HETATM   13  C29 UNL     1      24.856  35.282  21.898  1.00  0.00    -0.144 C 
HETATM   14  C33 UNL     1      21.794  36.849  18.721  1.00  0.00     0.001 A 
HETATM   15  C34 UNL     1      22.300  36.081  17.706  1.00  0.00     0.002 A 
BRANCH   6  16
HETATM   16  C3  UNL     1      25.939  34.404  17.958  1.00  0.00     0.158 C 
BRANCH  16  17
HETATM   17  C2  UNL     1      27.079  35.367  17.832  1.00  0.00    -0.017 C 
HETATM   18  C1  UNL     1      27.077  36.440  17.077  1.00  0.00     0.008 C 
ENDBRANCH  16  17
ENDBRANCH   6  16
ENDBRANCH   2   4
ENDBRANCH   1   2
BRANCH   1  19
HETATM   19  C7  UNL     1      26.108  34.067  24.598  1.00  0.00     0.263 C 
BRANCH  19  20
HETATM   20  N3  UNL     1      24.970  34.429  25.401  1.00  0.00    -0.069 N 
ATOM     21  H32 UNL     1      24.139  34.630  24.846  1.00  0.00     0.277 HD
ATOM     22  H31 UNL     1      24.589  33.643  25.928  1.00  0.00     0.277 HD
BRANCH  20  23
HETATM   23  C8  UNL     1      25.376  35.555  26.260  1.00  0.00     0.186 C 
HETATM   24  C9  UNL     1      26.681  35.220  26.912  1.00  0.00     0.040 C 
BRANCH  23  25
HETATM   25  C10 UNL     1      25.469  36.770  25.399  1.00  0.00     0.071 C 
BRANCH  25  26
HETATM   26  C11 UNL     1      24.247  37.533  25.199  1.00  0.00    -0.056 A 
HETATM   27  C12 UNL     1      23.025  37.234  25.809  1.00  0.00     0.007 A 
HETATM   28  C13 UNL     1      21.878  37.971  25.586  1.00  0.00     0.001 A 
HETATM   29  C14 UNL     1      21.886  39.050  24.740  1.00  0.00     0.000 A 
HETATM   30  C15 UNL     1      23.073  39.377  24.120  1.00  0.00     0.001 A 
HETATM   31  C16 UNL     1      24.211  38.638  24.346  1.00  0.00     0.007 A 
ENDBRANCH  25  26
ENDBRANCH  23  25
ENDBRANCH  20  23
ENDBRANCH  19  20
ENDBRANCH   1  19
BRANCH   1  32
HETATM   32  C17 UNL     1      27.248  32.156  23.597  1.00  0.00     0.033 A 
HETATM   33  C18 UNL     1      28.290  32.349  24.482  1.00  0.00     0.030 A 
HETATM   34  C19 UNL     1      29.532  31.813  24.242  1.00  0.00     0.040 A 
HETATM   35  C20 UNL     1      29.691  31.069  23.066  1.00  0.00     0.084 A 
HETATM   36  C28 UNL     1      28.655  30.881  22.199  1.00  0.00     0.124 A 
HETATM   37  N4  UNL     1      27.456  31.439  22.501  1.00  0.00    -0.365 N 
ATOM     38  H4  UNL     1      26.680  31.302  21.855  1.00  0.00     0.165 HD
BRANCH  35  39
HETATM   39  O2  UNL     1      30.968  30.538  22.829  1.00  0.00    -0.345 OA
BRANCH  39  40
HETATM   40  C21 UNL     1      31.744  30.104  23.918  1.00  0.00     0.214 C 
BRANCH  40  41
HETATM   41  C22 UNL     1      31.770  28.624  23.933  1.00  0.00    -0.034 A 
HETATM   42  C23 UNL     1      31.826  27.974  22.703  1.00  0.00     0.009 A 
HETATM   43  C24 UNL     1      31.877  26.606  22.593  1.00  0.00     0.001 A 
HETATM   44  C25 UNL     1      31.873  25.840  23.732  1.00  0.00     0.000 A 
HETATM   45  C26 UNL     1      31.818  26.457  24.962  1.00  0.00     0.001 A 
HETATM   46  C27 UNL     1      31.767  27.831  25.042  1.00  0.00     0.009 A 
ENDBRANCH  40  41
ENDBRANCH  39  40
ENDBRANCH  35  39
ENDBRANCH   1  32
TORSDOF 13
ENDMDL
MODEL 2
REMARK VINA RESULT: -9.966598910      1.750      9.138
REMARK  13 active torsions:
REMARK  status: ('A' for Active; 'I' for Inactive)
REMARK    1  A    between atoms: C2_2  and  C3_3 
REMARK    2  A    between atoms: C3_3  and  N1_4 
REMARK    3  A    between atoms: C5_7  and  N2_8 
REMARK    4  A    between atoms: N2_8  and  C6_10 
REMARK    5  A    between atoms: C6_10  and  C7_11 
REMARK    6  A    between atoms: C6_10  and  C17_24 
REMARK    7  A    between atoms: C7_11  and  N3_12 
REMARK    8  A    between atoms: N3_12  and  C8_15 
REMARK    9  A    between atoms: C8_15  and  C10_17 
REMARK   10  A    between atoms: C10_17  and  C11_18 
REMARK   11  A    between atoms: C20_27  and  O2_28 
REMARK   12  A    between atoms: O2_28  and  C21_29 
REMARK   13  A    between atoms: C21_29  and  C22_30 
ROOT
HETATM    1  C6  UNL     1      26.828  32.713  20.924  1.00  0.00     0.154 C 
ENDROOT
BRANCH   1   2
HETATM    2  N2  UNL     1      27.593  31.620  21.327  1.00  0.00    -0.390 N 
ATOM      3  H2  UNL     1      27.156  30.709  21.465  1.00  0.00     0.155 HD
BRANCH   2   4
HETATM    4  C5  UNL     1      28.995  31.789  21.546  1.00  0.00     0.239 C 
HETATM    5  C4  UNL     1      29.449  31.509  22.953  1.00  0.00     0.258 C 
HETATM    6  N1  UNL     1      30.550  30.619  23.366  1.00  0.00    -0.311 N 
HETATM    7  O1  UNL     1      28.910  32.030  23.921  1.00  0.00    -0.270 OA
HETATM    8  C36 UNL     1      31.112  29.498  22.652  1.00  0.00     0.044 A 
HETATM    9  C31 UNL     1      31.223  29.265  21.292  1.00  0.00    -0.021 A 
HETATM   10  C35 UNL     1      31.611  28.533  23.513  1.00  0.00     0.030 A 
HETATM   11  C30 UNL     1      30.743  30.123  20.120  1.00  0.00     0.123 C 
HETATM   12  C32 UNL     1      31.798  28.137  20.806  1.00  0.00     0.010 A 
HETATM   13  C29 UNL     1      29.821  31.044  20.659  1.00  0.00    -0.144 C 
HETATM   14  C33 UNL     1      32.287  27.193  21.670  1.00  0.00     0.001 A 
HETATM   15  C34 UNL     1      32.203  27.374  23.026  1.00  0.00     0.002 A 
BRANCH   6  16
HETATM   16  C3  UNL     1      31.172  30.915  24.612  1.00  0.00     0.158 C 
BRANCH  16  17
HETATM   17  C2  UNL     1      32.618  31.281  24.480  1.00  0.00    -0.017 C 
HETATM   18  C1  UNL     1      33.262  32.101  25.275  1.00  0.00     0.008 C 
ENDBRANCH  16  17
ENDBRANCH   6  16
ENDBRANCH   2   4
ENDBRANCH   1   2
BRANCH   1  19
HETATM   19  C7  UNL     1      27.708  33.807  20.371  1.00  0.00     0.263 C 
BRANCH  19  20
HETATM   20  N3  UNL     1      27.669  33.903  18.936  1.00  0.00    -0.069 N 
ATOM     21  H32 UNL     1      28.590  34.046  18.521  1.00  0.00     0.277 HD
ATOM     22  H31 UNL     1      27.457  33.014  18.483  1.00  0.00     0.277 HD
BRANCH  20  23
HETATM   23  C8  UNL     1      26.711  34.968  18.590  1.00  0.00     0.186 C 
HETATM   24  C9  UNL     1      27.316  35.838  17.533  1.00  0.00     0.040 C 
BRANCH  23  25
HETATM   25  C10 UNL     1      25.452  34.313  18.131  1.00  0.00     0.071 C 
BRANCH  25  26
HETATM   26  C11 UNL     1      24.208  35.026  18.376  1.00  0.00    -0.056 A 
HETATM   27  C12 UNL     1      24.037  35.986  19.378  1.00  0.00     0.007 A 
HETATM   28  C13 UNL     1      22.837  36.636  19.594  1.00  0.00     0.001 A 
HETATM   29  C14 UNL     1      21.739  36.365  18.819  1.00  0.00     0.000 A 
HETATM   30  C15 UNL     1      21.868  35.425  17.820  1.00  0.00     0.001 A 
HETATM   31  C16 UNL     1      23.066  34.781  17.612  1.00  0.00     0.007 A 
ENDBRANCH  25  26
ENDBRANCH  23  25
ENDBRANCH  20  23
ENDBRANCH  19  20
ENDBRANCH   1  19
BRANCH   1  32
HETATM   32  C17 UNL     1      26.025  33.269  22.054  1.00  0.00     0.033 A 
HETATM   33  C18 UNL     1      25.346  34.463  21.928  1.00  0.00     0.030 A 
HETATM   34  C19 UNL     1      24.654  35.000  22.988  1.00  0.00     0.040 A 
HETATM   35  C20 UNL     1      24.671  34.283  24.191  1.00  0.00     0.084 A 
HETATM   36  C28 UNL     1      25.343  33.101  24.304  1.00  0.00     0.124 A 
HETATM   37  N4  UNL     1      26.004  32.633  23.217  1.00  0.00    -0.365 N 
ATOM     38  H4  UNL     1      26.509  31.750  23.298  1.00  0.00     0.165 HD
BRANCH  35  39
HETATM   39  O2  UNL     1      23.970  34.849  25.267  1.00  0.00    -0.345 OA
BRANCH  39  40
HETATM   40  C21 UNL     1      24.644  35.712  26.148  1.00  0.00     0.214 C 
BRANCH  40  41
HETATM   41  C22 UNL     1      24.363  37.113  25.760  1.00  0.00    -0.034 A 
HETATM   42  C23 UNL     1      25.452  37.914  25.427  1.00  0.00     0.009 A 
HETATM   43  C24 UNL     1      25.312  39.221  25.030  1.00  0.00     0.001 A 
HETATM   44  C25 UNL     1      24.056  39.770  24.956  1.00  0.00     0.000 A 
HETATM   45  C26 UNL     1      22.961  39.000  25.281  1.00  0.00     0.001 A 
HETATM   46  C27 UNL     1      23.131  37.692  25.676  1.00  0.00     0.009 A 
ENDBRANCH  40  41
ENDBRANCH  39  40
ENDBRANCH  35  39
ENDBRANCH   1  32
TORSDOF 13
ENDMDL
MODEL 3
REMARK VINA RESULT: -9.916909588      1.414      2.721
REMARK  13 active torsions:
REMARK  status: ('A' for Active; 'I' for Inactive)
REMARK    1  A    between atoms: C2_2  and  C3_3 
REMARK    2  A    between atoms: C3_3  and  N1_4 
REMARK    3  A    between atoms: C5_7  and  N2_8 
REMARK    4  A    between atoms: N2_8  and  C6_10 
REMARK    5  A    between atoms: C6_10  and  C7_11 
REMARK    6  A    between atoms: C6_10  and  C17_24 
REMARK    7  A    between atoms: C7_11  and  N3_12 
REMARK    8  A    between atoms: N3_12  and  C8_15 
REMARK    9  A    between atoms: C8_15  and  C10_17 
REMARK   10  A    between atoms: C10_17  and  C11_18 
REMARK   11  A    between atoms: C20_27  and  O2_28 
REMARK   12  A    between atoms: O2_28  and  C21_29 
REMARK   13  A    between atoms: C21_29  and  C22_30 
ROOT
HETATM    1  C6  UNL     1      26.584  33.033  23.662  1.00  0.00     0.154 C 
ENDROOT
BRANCH   1   2
HETATM    2  N2  UNL     1      26.534  33.910  22.581  1.00  0.00    -0.390 N 
ATOM      3  H2  UNL     1      27.297  34.565  22.412  1.00  0.00     0.155 HD
BRANCH   2   4
HETATM    4  C5  UNL     1      25.401  33.883  21.709  1.00  0.00     0.239 C 
HETATM    5  C4  UNL     1      24.765  35.226  21.466  1.00  0.00     0.258 C 
HETATM    6  N1  UNL     1      24.447  35.829  20.159  1.00  0.00    -0.311 N 
HETATM    7  O1  UNL     1      24.441  35.963  22.388  1.00  0.00    -0.270 OA
HETATM    8  C36 UNL     1      25.049  35.557  18.876  1.00  0.00     0.044 A 
HETATM    9  C31 UNL     1      25.618  34.397  18.379  1.00  0.00    -0.021 A 
HETATM   10  C35 UNL     1      25.021  36.667  18.046  1.00  0.00     0.030 A 
HETATM   11  C30 UNL     1      25.814  33.044  19.065  1.00  0.00     0.123 C 
HETATM   12  C32 UNL     1      26.133  34.335  17.126  1.00  0.00     0.010 A 
HETATM   13  C29 UNL     1      25.647  33.276  20.446  1.00  0.00    -0.144 C 
HETATM   14  C33 UNL     1      26.098  35.441  16.318  1.00  0.00     0.001 A 
HETATM   15  C34 UNL     1      25.546  36.614  16.759  1.00  0.00     0.002 A 
BRANCH   6  16
HETATM   16  C3  UNL     1      23.385  36.777  20.139  1.00  0.00     0.158 C 
BRANCH  16  17
HETATM   17  C2  UNL     1      22.198  36.321  19.347  1.00  0.00    -0.017 C 
HETATM   18  C1  UNL     1      21.056  36.961  19.267  1.00  0.00     0.008 C 
ENDBRANCH  16  17
ENDBRANCH   6  16
ENDBRANCH   2   4
ENDBRANCH   1   2
BRANCH   1  19
HETATM   19  C7  UNL     1      26.558  33.791  24.967  1.00  0.00     0.263 C 
BRANCH  19  20
HETATM   20  N3  UNL     1      25.293  34.421  25.238  1.00  0.00    -0.069 N 
ATOM     21  H32 UNL     1      24.826  34.755  24.396  1.00  0.00     0.277 HD
ATOM     22  H31 UNL     1      24.575  33.760  25.534  1.00  0.00     0.277 HD
BRANCH  20  23
HETATM   23  C8  UNL     1      25.534  35.489  26.225  1.00  0.00     0.186 C 
HETATM   24  C9  UNL     1      26.831  35.220  26.921  1.00  0.00     0.040 C 
BRANCH  23  25
HETATM   25  C10 UNL     1      25.544  36.789  25.492  1.00  0.00     0.071 C 
BRANCH  25  26
HETATM   26  C11 UNL     1      24.389  37.655  25.668  1.00  0.00    -0.056 A 
HETATM   27  C12 UNL     1      24.466  39.035  25.875  1.00  0.00     0.007 A 
HETATM   28  C13 UNL     1      23.349  39.829  26.053  1.00  0.00     0.001 A 
HETATM   29  C14 UNL     1      22.089  39.287  26.034  1.00  0.00     0.000 A 
HETATM   30  C15 UNL     1      21.971  37.929  25.831  1.00  0.00     0.001 A 
HETATM   31  C16 UNL     1      23.089  37.145  25.656  1.00  0.00     0.007 A 
ENDBRANCH  25  26
ENDBRANCH  23  25
ENDBRANCH  20  23
ENDBRANCH  19  20
ENDBRANCH   1  19
BRANCH   1  32
HETATM   32  C17 UNL     1      27.813  32.185  23.625  1.00  0.00     0.033 A 
HETATM   33  C18 UNL     1      27.979  31.210  22.662  1.00  0.00     0.030 A 
HETATM   34  C19 UNL     1      29.085  30.394  22.664  1.00  0.00     0.040 A 
HETATM   35  C20 UNL     1      30.026  30.595  23.682  1.00  0.00     0.084 A 
HETATM   36  C28 UNL     1      29.854  31.563  24.627  1.00  0.00     0.124 A 
HETATM   37  N4  UNL     1      28.738  32.332  24.563  1.00  0.00    -0.365 N 
ATOM     38  H4  UNL     1      28.606  33.056  25.268  1.00  0.00     0.165 HD
BRANCH  35  39
HETATM   39  O2  UNL     1      31.144  29.747  23.678  1.00  0.00    -0.345 OA
BRANCH  39  40
HETATM   40  C21 UNL     1      31.104  28.562  22.922  1.00  0.00     0.214 C 
BRANCH  40  41
HETATM   41  C22 UNL     1      30.876  27.417  23.832  1.00  0.00    -0.034 A 
HETATM   42  C23 UNL     1      29.591  26.882  23.876  1.00  0.00     0.009 A 
HETATM   43  C24 UNL     1      29.267  25.806  24.665  1.00  0.00     0.001 A 
HETATM   44  C25 UNL     1      30.237  25.227  25.444  1.00  0.00     0.000 A 
HETATM   45  C26 UNL     1      31.517  25.737  25.420  1.00  0.00     0.001 A 
HETATM   46  C27 UNL     1      31.813  26.817  24.620  1.00  0.00     0.009 A 
ENDBRANCH  40  41
ENDBRANCH  39  40
ENDBRANCH  35  39
ENDBRANCH   1  32
TORSDOF 13
ENDMDL
MODEL 4
REMARK VINA RESULT: -9.913001238      2.758      8.786
REMARK  13 active torsions:
REMARK  status: ('A' for Active; 'I' for Inactive)
REMARK    1  A    between atoms: C2_2  and  C3_3 
REMARK    2  A    between atoms: C3_3  and  N1_4 
REMARK    3  A    between atoms: C5_7  and  N2_8 
REMARK    4  A    between atoms: N2_8  and  C6_10 
REMARK    5  A    between atoms: C6_10  and  C7_11 
REMARK    6  A    between atoms: C6_10  and  C17_24 
REMARK    7  A    between atoms: C7_11  and  N3_12 
REMARK    8  A    between atoms: N3_12  and  C8_15 
REMARK    9  A    between atoms: C8_15  and  C10_17 
REMARK   10  A    between atoms: C10_17  and  C11_18 
REMARK   11  A    between atoms: C20_27  and  O2_28 
REMARK   12  A    between atoms: O2_28  and  C21_29 
REMARK   13  A    between atoms: C21_29  and  C22_30 
ROOT
HETATM    1  C6  UNL     1      25.693  33.994  20.866  1.00  0.00     0.154 C 
ENDROOT
BRANCH   1   2
HETATM    2  N2  UNL     1      24.864  33.390  19.923  1.00  0.00    -0.390 N 
ATOM      3  H2  UNL     1      24.019  32.900  20.219  1.00  0.00     0.155 HD
BRANCH   2   4
HETATM    4  C5  UNL     1      25.208  33.462  18.538  1.00  0.00     0.239 C 
HETATM    5  C4  UNL     1      24.296  34.325  17.709  1.00  0.00     0.258 C 
HETATM    6  N1  UNL     1      24.696  35.412  16.794  1.00  0.00    -0.311 N 
HETATM    7  O1  UNL     1      23.080  34.184  17.728  1.00  0.00    -0.270 OA
HETATM    8  C36 UNL     1      25.902  36.203  16.816  1.00  0.00     0.044 A 
HETATM    9  C31 UNL     1      27.178  35.882  17.247  1.00  0.00    -0.021 A 
HETATM   10  C35 UNL     1      25.695  37.476  16.308  1.00  0.00     0.030 A 
HETATM   11  C30 UNL     1      27.692  34.584  17.873  1.00  0.00     0.123 C 
HETATM   12  C32 UNL     1      28.199  36.772  17.180  1.00  0.00     0.010 A 
HETATM   13  C29 UNL     1      26.549  33.869  18.287  1.00  0.00    -0.144 C 
HETATM   14  C33 UNL     1      27.978  38.027  16.675  1.00  0.00     0.001 A 
HETATM   15  C34 UNL     1      26.735  38.396  16.234  1.00  0.00     0.002 A 
BRANCH   6  16
HETATM   16  C3  UNL     1      23.802  35.701  15.725  1.00  0.00     0.158 C 
BRANCH  16  17
HETATM   17  C2  UNL     1      24.049  34.868  14.505  1.00  0.00    -0.017 C 
HETATM   18  C1  UNL     1      24.763  35.243  13.470  1.00  0.00     0.008 C 
ENDBRANCH  16  17
ENDBRANCH   6  16
ENDBRANCH   2   4
ENDBRANCH   1   2
BRANCH   1  19
HETATM   19  C7  UNL     1      26.413  32.954  21.689  1.00  0.00     0.263 C 
BRANCH  19  20
HETATM   20  N3  UNL     1      27.845  33.098  21.669  1.00  0.00    -0.069 N 
ATOM     21  H32 UNL     1      28.229  33.122  20.725  1.00  0.00     0.277 HD
ATOM     22  H31 UNL     1      28.155  34.025  21.961  1.00  0.00     0.277 HD
BRANCH  20  23
HETATM   23  C8  UNL     1      28.409  32.015  22.494  1.00  0.00     0.186 C 
HETATM   24  C9  UNL     1      27.631  31.922  23.769  1.00  0.00     0.040 C 
BRANCH  23  25
HETATM   25  C10 UNL     1      28.341  30.756  21.696  1.00  0.00     0.071 C 
BRANCH  25  26
HETATM   26  C11 UNL     1      29.596  30.230  21.183  1.00  0.00    -0.056 A 
HETATM   27  C12 UNL     1      30.301  30.786  20.111  1.00  0.00     0.007 A 
HETATM   28  C13 UNL     1      31.485  30.253  19.638  1.00  0.00     0.001 A 
HETATM   29  C14 UNL     1      32.033  29.134  20.211  1.00  0.00     0.000 A 
HETATM   30  C15 UNL     1      31.368  28.558  21.271  1.00  0.00     0.001 A 
HETATM   31  C16 UNL     1      30.189  29.093  21.736  1.00  0.00     0.007 A 
ENDBRANCH  25  26
ENDBRANCH  23  25
ENDBRANCH  20  23
ENDBRANCH  19  20
ENDBRANCH   1  19
BRANCH   1  32
HETATM   32  C17 UNL     1      24.923  34.884  21.785  1.00  0.00     0.033 A 
HETATM   33  C18 UNL     1      24.746  34.558  23.114  1.00  0.00     0.030 A 
HETATM   34  C19 UNL     1      23.990  35.351  23.944  1.00  0.00     0.040 A 
HETATM   35  C20 UNL     1      23.411  36.496  23.381  1.00  0.00     0.084 A 
HETATM   36  C28 UNL     1      23.595  36.812  22.067  1.00  0.00     0.124 A 
HETATM   37  N4  UNL     1      24.354  35.982  21.308  1.00  0.00    -0.365 N 
ATOM     38  H4  UNL     1      24.493  36.214  20.325  1.00  0.00     0.165 HD
BRANCH  35  39
HETATM   39  O2  UNL     1      22.633  37.290  24.238  1.00  0.00    -0.345 OA
BRANCH  39  40
HETATM   40  C21 UNL     1      22.934  37.316  25.610  1.00  0.00     0.214 C 
BRANCH  40  41
HETATM   41  C22 UNL     1      23.785  38.494  25.895  1.00  0.00    -0.034 A 
HETATM   42  C23 UNL     1      23.160  39.622  26.419  1.00  0.00     0.009 A 
HETATM   43  C24 UNL     1      23.850  40.764  26.743  1.00  0.00     0.001 A 
HETATM   44  C25 UNL     1      25.208  40.807  26.548  1.00  0.00     0.000 A 
HETATM   45  C26 UNL     1      25.851  39.705  26.029  1.00  0.00     0.001 A 
HETATM   46  C27 UNL     1      25.134  38.573  25.713  1.00  0.00     0.009 A 
ENDBRANCH  40  41
ENDBRANCH  39  40
ENDBRANCH  35  39
ENDBRANCH   1  32
TORSDOF 13
ENDMDL
MODEL 5
REMARK VINA RESULT: -9.852389017      2.122      9.151
REMARK  13 active torsions:
REMARK  status: ('A' for Active; 'I' for Inactive)
REMARK    1  A    between atoms: C2_2  and  C3_3 
REMARK    2  A    between atoms: C3_3  and  N1_4 
REMARK    3  A    between atoms: C5_7  and  N2_8 
REMARK    4  A    between atoms: N2_8  and  C6_10 
REMARK    5  A    between atoms: C6_10  and  C7_11 
REMARK    6  A    between atoms: C6_10  and  C17_24 
REMARK    7  A    between atoms: C7_11  and  N3_12 
REMARK    8  A    between atoms: N3_12  and  C8_15 
REMARK    9  A    between atoms: C8_15  and  C10_17 
REMARK   10  A    between atoms: C10_17  and  C11_18 
REMARK   11  A    between atoms: C20_27  and  O2_28 
REMARK   12  A    between atoms: O2_28  and  C21_29 
REMARK   13  A    between atoms: C21_29  and  C22_30 
ROOT
HETATM    1  C6  UNL     1      26.689  33.288  20.905  1.00  0.00     0.154 C 
ENDROOT
BRANCH   1   2
HETATM    2  N2  UNL     1      27.507  32.162  20.847  1.00  0.00    -0.390 N 
ATOM      3  H2  UNL     1      27.198  31.326  20.352  1.00  0.00     0.155 HD
BRANCH   2   4
HETATM    4  C5  UNL     1      28.785  32.189  21.488  1.00  0.00     0.239 C 
HETATM    5  C4  UNL     1      28.874  31.363  22.743  1.00  0.00     0.258 C 
HETATM    6  N1  UNL     1      29.897  30.350  23.064  1.00  0.00    -0.311 N 
HETATM    7  O1  UNL     1      28.059  31.476  23.650  1.00  0.00    -0.270 OA
HETATM    8  C36 UNL     1      30.717  29.586  22.154  1.00  0.00     0.044 A 
HETATM    9  C31 UNL     1      31.200  29.906  20.897  1.00  0.00    -0.021 A 
HETATM   10  C35 UNL     1      31.050  28.346  22.676  1.00  0.00     0.030 A 
HETATM   11  C30 UNL     1      30.976  31.171  20.066  1.00  0.00     0.123 C 
HETATM   12  C32 UNL     1      31.974  29.045  20.190  1.00  0.00     0.010 A 
HETATM   13  C29 UNL     1      29.873  31.830  20.645  1.00  0.00    -0.144 C 
HETATM   14  C33 UNL     1      32.294  27.823  20.719  1.00  0.00     0.001 A 
HETATM   15  C34 UNL     1      31.842  27.456  21.959  1.00  0.00     0.002 A 
BRANCH   6  16
HETATM   16  C3  UNL     1      30.144  30.113  24.445  1.00  0.00     0.158 C 
BRANCH  16  17
HETATM   17  C2  UNL     1      31.098  31.094  25.054  1.00  0.00    -0.017 C 
HETATM   18  C1  UNL     1      32.373  31.186  24.758  1.00  0.00     0.008 C 
ENDBRANCH  16  17
ENDBRANCH   6  16
ENDBRANCH   2   4
ENDBRANCH   1   2
BRANCH   1  19
HETATM   19  C7  UNL     1      25.467  33.018  21.748  1.00  0.00     0.263 C 
BRANCH  19  20
HETATM   20  N3  UNL     1      25.615  33.430  23.119  1.00  0.00    -0.069 N 
ATOM     21  H32 UNL     1      25.684  32.645  23.765  1.00  0.00     0.277 HD
ATOM     22  H31 UNL     1      26.527  33.843  23.315  1.00  0.00     0.277 HD
BRANCH  20  23
HETATM   23  C8  UNL     1      24.494  34.336  23.431  1.00  0.00     0.186 C 
HETATM   24  C9  UNL     1      24.268  34.332  24.910  1.00  0.00     0.040 C 
BRANCH  23  25
HETATM   25  C10 UNL     1      24.851  35.690  22.917  1.00  0.00     0.071 C 
BRANCH  25  26
HETATM   26  C11 UNL     1      23.873  36.353  22.068  1.00  0.00    -0.056 A 
HETATM   27  C12 UNL     1      22.809  37.122  22.548  1.00  0.00     0.007 A 
HETATM   28  C13 UNL     1      21.888  37.727  21.714  1.00  0.00     0.001 A 
HETATM   29  C14 UNL     1      21.978  37.599  20.352  1.00  0.00     0.000 A 
HETATM   30  C15 UNL     1      23.014  36.848  19.840  1.00  0.00     0.001 A 
HETATM   31  C16 UNL     1      23.927  36.247  20.677  1.00  0.00     0.007 A 
ENDBRANCH  25  26
ENDBRANCH  23  25
ENDBRANCH  20  23
ENDBRANCH  19  20
ENDBRANCH   1  19
BRANCH   1  32
HETATM   32  C17 UNL     1      26.248  33.718  19.545  1.00  0.00     0.033 A 
HETATM   33  C18 UNL     1      27.060  34.493  18.741  1.00  0.00     0.030 A 
HETATM   34  C19 UNL     1      26.629  34.933  17.513  1.00  0.00     0.040 A 
HETATM   35  C20 UNL     1      25.337  34.562  17.118  1.00  0.00     0.084 A 
HETATM   36  C28 UNL     1      24.543  33.793  17.918  1.00  0.00     0.124 A 
HETATM   37  N4  UNL     1      25.036  33.394  19.117  1.00  0.00    -0.365 N 
ATOM     38  H4  UNL     1      24.445  32.820  19.718  1.00  0.00     0.165 HD
BRANCH  35  39
HETATM   39  O2  UNL     1      24.907  35.028  15.866  1.00  0.00    -0.345 OA
BRANCH  39  40
HETATM   40  C21 UNL     1      25.308  36.304  15.434  1.00  0.00     0.214 C 
BRANCH  40  41
HETATM   41  C22 UNL     1      24.405  37.319  16.024  1.00  0.00    -0.034 A 
HETATM   42  C23 UNL     1      24.992  38.349  16.753  1.00  0.00     0.009 A 
HETATM   43  C24 UNL     1      24.258  39.358  17.326  1.00  0.00     0.001 A 
HETATM   44  C25 UNL     1      22.894  39.362  17.182  1.00  0.00     0.000 A 
HETATM   45  C26 UNL     1      22.287  38.354  16.466  1.00  0.00     0.001 A 
HETATM   46  C27 UNL     1      23.047  37.354  15.902  1.00  0.00     0.009 A 
ENDBRANCH  40  41
ENDBRANCH  39  40
ENDBRANCH  35  39
ENDBRANCH   1  32
TORSDOF 13
ENDMDL
