MODEL 1
REMARK VINA RESULT: -10.742899084      0.000      0.000
REMARK  13 active torsions:
REMARK  status: ('A' for Active; 'I' for Inactive)
REMARK    1  A    between atoms: O1_2  and  C2_3 
REMARK    2  A    between atoms: C4_5  and  C5_6 
REMARK    3  A    between atoms: C5_6  and  C6_7 
REMARK    4  A    between atoms: C6_7  and  N1_8 
REMARK    5  A    between atoms: C6_7  and  C19_26 
REMARK       I    between atoms: N1_8  and  C7_10 
REMARK    6  A    between atoms: C7_10  and  C8_12 
REMARK       I    between atoms: C8_12  and  N2_14 
REMARK    7  A    between atoms: N2_14  and  C9_16 
REMARK    8  A    between atoms: C9_16  and  C11_18 
REMARK    9  A    between atoms: C11_18  and  C13_20 
REMARK   10  A    between atoms: C27_34  and  O4_35 
REMARK   11  A    between atoms: O4_35  and  C28_36 
REMARK   12  A    between atoms: C28_36  and  C29_37 
REMARK   13  A    between atoms: C29_37  and  C30_38 
ROOT
HETATM    1  C6  UNL     1      27.337  32.533  20.726  1.00  0.00     0.122 C 
ENDROOT
BRANCH   1   2
HETATM    2  C5  UNL     1      27.456  31.046  20.740  1.00  0.00     0.068 C 
BRANCH   2   3
HETATM    3  C4  UNL     1      28.596  30.485  21.448  1.00  0.00    -0.053 A 
HETATM    4  C3  UNL     1      29.819  30.415  20.743  1.00  0.00     0.046 A 
HETATM    5  C2  UNL     1      30.946  29.875  21.291  1.00  0.00     0.102 A 
HETATM    6  C27 UNL     1      30.932  29.358  22.600  1.00  0.00     0.102 A 
HETATM    7  C26 UNL     1      29.746  29.425  23.292  1.00  0.00     0.040 A 
HETATM    8  C25 UNL     1      28.611  29.985  22.702  1.00  0.00     0.010 A 
BRANCH   5   9
HETATM    9  O1  UNL     1      32.158  29.816  20.574  1.00  0.00    -0.353 OA
HETATM   10  C1  UNL     1      32.169  30.097  19.182  1.00  0.00     0.210 C 
ENDBRANCH   5   9
BRANCH   6  11
HETATM   11  O4  UNL     1      32.069  28.823  23.107  1.00  0.00    -0.348 OA
BRANCH  11  12
HETATM   12  C28 UNL     1      32.330  27.569  23.635  1.00  0.00     0.180 C 
BRANCH  12  13
HETATM   13  C29 UNL     1      31.993  26.515  22.549  1.00  0.00     0.065 C 
BRANCH  13  14
HETATM   14  C30 UNL     1      30.814  25.714  22.923  1.00  0.00    -0.056 A 
HETATM   15  C31 UNL     1      30.959  24.733  23.876  1.00  0.00     0.007 A 
HETATM   16  C32 UNL     1      29.887  23.938  24.263  1.00  0.00     0.001 A 
HETATM   17  C33 UNL     1      28.666  24.137  23.683  1.00  0.00     0.000 A 
HETATM   18  C34 UNL     1      28.519  25.120  22.729  1.00  0.00     0.001 A 
HETATM   19  C35 UNL     1      29.592  25.907  22.349  1.00  0.00     0.007 A 
ENDBRANCH  13  14
ENDBRANCH  12  13
ENDBRANCH  11  12
ENDBRANCH   6  11
ENDBRANCH   2   3
ENDBRANCH   1   2
BRANCH   1  20
HETATM   20  N1  UNL     1      26.391  33.034  21.691  1.00  0.00    -0.344 N 
HETATM   21  C7  UNL     1      26.882  33.370  23.021  1.00  0.00     0.309 C 
HETATM   22  O2  UNL     1      28.077  33.262  23.284  1.00  0.00    -0.262 OA
ATOM     23  H1  UNL     1      25.406  33.151  21.449  1.00  0.00     0.163 HD
BRANCH  21  24
HETATM   24  C8  UNL     1      25.949  33.830  24.037  1.00  0.00     0.309 C 
HETATM   25  O3  UNL     1      25.116  33.010  24.474  1.00  0.00    -0.262 OA
HETATM   26  N2  UNL     1      25.957  35.183  24.552  1.00  0.00    -0.348 N 
ATOM     27  H2  UNL     1      26.615  35.877  24.199  1.00  0.00     0.163 HD
BRANCH  26  28
HETATM   28  C9  UNL     1      25.019  35.510  25.563  1.00  0.00     0.088 C 
HETATM   29  C10 UNL     1      25.553  35.056  26.901  1.00  0.00     0.033 C 
BRANCH  28  30
HETATM   30  C11 UNL     1      24.620  36.964  25.682  1.00  0.00     0.037 C 
HETATM   31  C12 UNL     1      25.701  37.947  25.437  1.00  0.00     0.017 C 
BRANCH  30  32
HETATM   32  C13 UNL     1      23.361  37.236  24.928  1.00  0.00    -0.052 A 
HETATM   33  C14 UNL     1      22.246  37.736  25.557  1.00  0.00     0.007 A 
HETATM   34  C15 UNL     1      21.068  37.982  24.881  1.00  0.00     0.001 A 
HETATM   35  C16 UNL     1      20.952  37.739  23.545  1.00  0.00     0.000 A 
HETATM   36  C17 UNL     1      22.076  37.230  22.879  1.00  0.00     0.001 A 
HETATM   37  C18 UNL     1      23.225  36.995  23.564  1.00  0.00     0.007 A 
ENDBRANCH  30  32
ENDBRANCH  28  30
ENDBRANCH  26  28
ENDBRANCH  21  24
ENDBRANCH   1  20
BRANCH   1  38
HETATM   38  C19 UNL     1      26.982  33.033  19.352  1.00  0.00    -0.035 A 
HETATM   39  C20 UNL     1      26.859  34.382  19.169  1.00  0.00     0.009 A 
HETATM   40  C21 UNL     1      26.530  34.955  17.928  1.00  0.00     0.001 A 
HETATM   41  C22 UNL     1      26.324  34.114  16.861  1.00  0.00     0.000 A 
HETATM   42  C23 UNL     1      26.452  32.748  17.066  1.00  0.00     0.001 A 
HETATM   43  C24 UNL     1      26.777  32.193  18.287  1.00  0.00     0.009 A 
ENDBRANCH   1  38
TORSDOF 13
ENDMDL
MODEL 2
REMARK VINA RESULT: -10.530052514      1.318      2.093
REMARK  13 active torsions:
REMARK  status: ('A' for Active; 'I' for Inactive)
REMARK    1  A    between atoms: O1_2  and  C2_3 
REMARK    2  A    between atoms: C4_5  and  C5_6 
REMARK    3  A    between atoms: C5_6  and  C6_7 
REMARK    4  A    between atoms: C6_7  and  N1_8 
REMARK    5  A    between atoms: C6_7  and  C19_26 
REMARK       I    between atoms: N1_8  and  C7_10 
REMARK    6  A    between atoms: C7_10  and  C8_12 
REMARK       I    between atoms: C8_12  and  N2_14 
REMARK    7  A    between atoms: N2_14  and  C9_16 
REMARK    8  A    between atoms: C9_16  and  C11_18 
REMARK    9  A    between atoms: C11_18  and  C13_20 
REMARK   10  A    between atoms: C27_34  and  O4_35 
REMARK   11  A    between atoms: O4_35  and  C28_36 
REMARK   12  A    between atoms: C28_36  and  C29_37 
REMARK   13  A    between atoms: C29_37  and  C30_38 
ROOT
HETATM    1  C6  UNL     1      27.635  33.277  21.411  1.00  0.00     0.122 C 
ENDROOT
BRANCH   1   2
HETATM    2  C5  UNL     1      27.470  31.880  21.906  1.00  0.00     0.068 C 
BRANCH   2   3
HETATM    3  C4  UNL     1      28.648  31.238  22.466  1.00  0.00    -0.053 A 
HETATM    4  C3  UNL     1      29.320  30.303  21.646  1.00  0.00     0.046 A 
HETATM    5  C2  UNL     1      30.415  29.611  22.076  1.00  0.00     0.102 A 
HETATM    6  C27 UNL     1      30.924  29.805  23.374  1.00  0.00     0.102 A 
HETATM    7  C26 UNL     1      30.276  30.715  24.176  1.00  0.00     0.040 A 
HETATM    8  C25 UNL     1      29.158  31.406  23.704  1.00  0.00     0.010 A 
BRANCH   5   9
HETATM    9  O1  UNL     1      31.075  28.685  21.245  1.00  0.00    -0.353 OA
HETATM   10  C1  UNL     1      31.949  29.148  20.225  1.00  0.00     0.210 C 
ENDBRANCH   5   9
BRANCH   6  11
HETATM   11  O4  UNL     1      32.008  29.095  23.768  1.00  0.00    -0.348 OA
BRANCH  11  12
HETATM   12  C28 UNL     1      32.151  27.756  24.097  1.00  0.00     0.180 C 
BRANCH  12  13
HETATM   13  C29 UNL     1      31.019  27.387  25.089  1.00  0.00     0.065 C 
BRANCH  13  14
HETATM   14  C30 UNL     1      30.204  26.267  24.586  1.00  0.00    -0.056 A 
HETATM   15  C31 UNL     1      29.393  26.481  23.496  1.00  0.00     0.007 A 
HETATM   16  C32 UNL     1      28.594  25.467  22.981  1.00  0.00     0.001 A 
HETATM   17  C33 UNL     1      28.617  24.235  23.572  1.00  0.00     0.000 A 
HETATM   18  C34 UNL     1      29.429  24.020  24.663  1.00  0.00     0.001 A 
HETATM   19  C35 UNL     1      30.222  25.035  25.170  1.00  0.00     0.007 A 
ENDBRANCH  13  14
ENDBRANCH  12  13
ENDBRANCH  11  12
ENDBRANCH   6  11
ENDBRANCH   2   3
ENDBRANCH   1   2
BRANCH   1  20
HETATM   20  N1  UNL     1      26.999  34.256  22.256  1.00  0.00    -0.344 N 
HETATM   21  C7  UNL     1      25.773  33.874  22.944  1.00  0.00     0.309 C 
HETATM   22  O2  UNL     1      25.329  32.733  22.830  1.00  0.00    -0.262 OA
ATOM     23  H1  UNL     1      27.395  35.190  22.368  1.00  0.00     0.163 HD
BRANCH  21  24
HETATM   24  C8  UNL     1      25.073  34.850  23.764  1.00  0.00     0.309 C 
HETATM   25  O3  UNL     1      24.083  34.459  24.415  1.00  0.00    -0.262 OA
HETATM   26  N2  UNL     1      25.482  36.236  23.850  1.00  0.00    -0.348 N 
ATOM     27  H2  UNL     1      26.276  36.586  23.315  1.00  0.00     0.163 HD
BRANCH  26  28
HETATM   28  C9  UNL     1      24.742  37.091  24.705  1.00  0.00     0.088 C 
HETATM   29  C10 UNL     1      25.688  37.773  25.664  1.00  0.00     0.033 C 
BRANCH  28  30
HETATM   30  C11 UNL     1      23.891  38.153  24.043  1.00  0.00     0.037 C 
HETATM   31  C12 UNL     1      23.462  37.854  22.657  1.00  0.00     0.017 C 
BRANCH  30  32
HETATM   32  C13 UNL     1      22.790  38.596  24.947  1.00  0.00    -0.052 A 
HETATM   33  C14 UNL     1      21.817  37.722  25.367  1.00  0.00     0.007 A 
HETATM   34  C15 UNL     1      20.783  38.114  26.193  1.00  0.00     0.001 A 
HETATM   35  C16 UNL     1      20.676  39.398  26.636  1.00  0.00     0.000 A 
HETATM   36  C17 UNL     1      21.658  40.309  26.224  1.00  0.00     0.001 A 
HETATM   37  C18 UNL     1      22.667  39.902  25.410  1.00  0.00     0.007 A 
ENDBRANCH  30  32
ENDBRANCH  28  30
ENDBRANCH  26  28
ENDBRANCH  21  24
ENDBRANCH   1  20
BRANCH   1  38
HETATM   38  C19 UNL     1      27.131  33.412  19.999  1.00  0.00    -0.035 A 
HETATM   39  C20 UNL     1      27.168  32.309  19.193  1.00  0.00     0.009 A 
HETATM   40  C21 UNL     1      26.725  32.326  17.859  1.00  0.00     0.001 A 
HETATM   41  C22 UNL     1      26.236  33.507  17.354  1.00  0.00     0.000 A 
HETATM   42  C23 UNL     1      26.207  34.615  18.187  1.00  0.00     0.001 A 
HETATM   43  C24 UNL     1      26.643  34.591  19.496  1.00  0.00     0.009 A 
ENDBRANCH   1  38
TORSDOF 13
ENDMDL
MODEL 3
REMARK VINA RESULT: -10.529189150      1.412      2.055
REMARK  13 active torsions:
REMARK  status: ('A' for Active; 'I' for Inactive)
REMARK    1  A    between atoms: O1_2  and  C2_3 
REMARK    2  A    between atoms: C4_5  and  C5_6 
REMARK    3  A    between atoms: C5_6  and  C6_7 
REMARK    4  A    between atoms: C6_7  and  N1_8 
REMARK    5  A    between atoms: C6_7  and  C19_26 
REMARK       I    between atoms: N1_8  and  C7_10 
REMARK    6  A    between atoms: C7_10  and  C8_12 
REMARK       I    between atoms: C8_12  and  N2_14 
REMARK    7  A    between atoms: N2_14  and  C9_16 
REMARK    8  A    between atoms: C9_16  and  C11_18 
REMARK    9  A    between atoms: C11_18  and  C13_20 
REMARK   10  A    between atoms: C27_34  and  O4_35 
REMARK   11  A    between atoms: O4_35  and  C28_36 
REMARK   12  A    between atoms: C28_36  and  C29_37 
REMARK   13  A    between atoms: C29_37  and  C30_38 
ROOT
HETATM    1  C6  UNL     1      27.396  33.119  21.905  1.00  0.00     0.122 C 
ENDROOT
BRANCH   1   2
HETATM    2  C5  UNL     1      27.323  31.766  22.529  1.00  0.00     0.068 C 
BRANCH   2   3
HETATM    3  C4  UNL     1      28.584  31.150  22.911  1.00  0.00    -0.053 A 
HETATM    4  C3  UNL     1      29.125  30.192  22.024  1.00  0.00     0.046 A 
HETATM    5  C2  UNL     1      30.283  29.522  22.293  1.00  0.00     0.102 A 
HETATM    6  C27 UNL     1      30.992  29.763  23.484  1.00  0.00     0.102 A 
HETATM    7  C26 UNL     1      30.472  30.695  24.351  1.00  0.00     0.040 A 
HETATM    8  C25 UNL     1      29.285  31.364  24.044  1.00  0.00     0.010 A 
BRANCH   5   9
HETATM    9  O1  UNL     1      30.809  28.572  21.396  1.00  0.00    -0.353 OA
HETATM   10  C1  UNL     1      31.646  28.995  20.329  1.00  0.00     0.210 C 
ENDBRANCH   5   9
BRANCH   6  11
HETATM   11  O4  UNL     1      32.134  29.073  23.719  1.00  0.00    -0.348 OA
BRANCH  11  12
HETATM   12  C28 UNL     1      32.348  27.734  24.009  1.00  0.00     0.180 C 
BRANCH  12  13
HETATM   13  C29 UNL     1      31.321  27.311  25.091  1.00  0.00     0.065 C 
BRANCH  13  14
HETATM   14  C30 UNL     1      30.415  26.260  24.594  1.00  0.00    -0.056 A 
HETATM   15  C31 UNL     1      30.745  24.944  24.822  1.00  0.00     0.007 A 
HETATM   16  C32 UNL     1      29.936  23.909  24.370  1.00  0.00     0.001 A 
HETATM   17  C33 UNL     1      28.791  24.207  23.686  1.00  0.00     0.000 A 
HETATM   18  C34 UNL     1      28.460  25.524  23.459  1.00  0.00     0.001 A 
HETATM   19  C35 UNL     1      29.270  26.550  23.911  1.00  0.00     0.007 A 
ENDBRANCH  13  14
ENDBRANCH  12  13
ENDBRANCH  11  12
ENDBRANCH   6  11
ENDBRANCH   2   3
ENDBRANCH   1   2
BRANCH   1  20
HETATM   20  N1  UNL     1      26.785  34.148  22.710  1.00  0.00    -0.344 N 
HETATM   21  C7  UNL     1      25.800  33.744  23.705  1.00  0.00     0.309 C 
HETATM   22  O2  UNL     1      25.538  32.555  23.869  1.00  0.00    -0.262 OA
ATOM     23  H1  UNL     1      27.036  35.129  22.587  1.00  0.00     0.163 HD
BRANCH  21  24
HETATM   24  C8  UNL     1      25.124  34.757  24.500  1.00  0.00     0.309 C 
HETATM   25  O3  UNL     1      24.282  34.372  25.335  1.00  0.00    -0.262 OA
HETATM   26  N2  UNL     1      25.393  36.172  24.358  1.00  0.00    -0.348 N 
ATOM     27  H2  UNL     1      26.063  36.514  23.669  1.00  0.00     0.163 HD
BRANCH  26  28
HETATM   28  C9  UNL     1      24.695  37.066  25.207  1.00  0.00     0.088 C 
HETATM   29  C10 UNL     1      25.559  38.275  25.473  1.00  0.00     0.033 C 
BRANCH  28  30
HETATM   30  C11 UNL     1      23.341  37.546  24.732  1.00  0.00     0.037 C 
HETATM   31  C12 UNL     1      22.756  38.669  25.500  1.00  0.00     0.017 C 
BRANCH  30  32
HETATM   32  C13 UNL     1      23.334  37.742  23.253  1.00  0.00    -0.052 A 
HETATM   33  C14 UNL     1      23.394  38.998  22.700  1.00  0.00     0.007 A 
HETATM   34  C15 UNL     1      23.376  39.202  21.334  1.00  0.00     0.001 A 
HETATM   35  C16 UNL     1      23.296  38.158  20.462  1.00  0.00     0.000 A 
HETATM   36  C17 UNL     1      23.236  36.866  21.001  1.00  0.00     0.001 A 
HETATM   37  C18 UNL     1      23.255  36.688  22.348  1.00  0.00     0.007 A 
ENDBRANCH  30  32
ENDBRANCH  28  30
ENDBRANCH  26  28
ENDBRANCH  21  24
ENDBRANCH   1  20
BRANCH   1  38
HETATM   38  C19 UNL     1      26.784  33.113  20.530  1.00  0.00    -0.035 A 
HETATM   39  C20 UNL     1      27.392  32.369  19.558  1.00  0.00     0.009 A 
HETATM   40  C21 UNL     1      26.906  32.294  18.241  1.00  0.00     0.001 A 
HETATM   41  C22 UNL     1      25.771  33.004  17.929  1.00  0.00     0.000 A 
HETATM   42  C23 UNL     1      25.169  33.753  18.928  1.00  0.00     0.001 A 
HETATM   43  C24 UNL     1      25.652  33.821  20.219  1.00  0.00     0.009 A 
ENDBRANCH   1  38
TORSDOF 13
ENDMDL
MODEL 4
REMARK VINA RESULT: -10.441446480      1.409      2.443
REMARK  13 active torsions:
REMARK  status: ('A' for Active; 'I' for Inactive)
REMARK    1  A    between atoms: O1_2  and  C2_3 
REMARK    2  A    between atoms: C4_5  and  C5_6 
REMARK    3  A    between atoms: C5_6  and  C6_7 
REMARK    4  A    between atoms: C6_7  and  N1_8 
REMARK    5  A    between atoms: C6_7  and  C19_26 
REMARK       I    between atoms: N1_8  and  C7_10 
REMARK    6  A    between atoms: C7_10  and  C8_12 
REMARK       I    between atoms: C8_12  and  N2_14 
REMARK    7  A    between atoms: N2_14  and  C9_16 
REMARK    8  A    between atoms: C9_16  and  C11_18 
REMARK    9  A    between atoms: C11_18  and  C13_20 
REMARK   10  A    between atoms: C27_34  and  O4_35 
REMARK   11  A    between atoms: O4_35  and  C28_36 
REMARK   12  A    between atoms: C28_36  and  C29_37 
REMARK   13  A    between atoms: C29_37  and  C30_38 
ROOT
HETATM    1  C6  UNL     1      27.428  33.029  21.980  1.00  0.00     0.122 C 
ENDROOT
BRANCH   1   2
HETATM    2  C5  UNL     1      27.293  31.702  22.647  1.00  0.00     0.068 C 
BRANCH   2   3
HETATM    3  C4  UNL     1      28.465  30.841  22.642  1.00  0.00    -0.053 A 
HETATM    4  C3  UNL     1      29.417  31.047  23.667  1.00  0.00     0.046 A 
HETATM    5  C2  UNL     1      30.572  30.326  23.743  1.00  0.00     0.102 A 
HETATM    6  C27 UNL     1      30.866  29.335  22.788  1.00  0.00     0.102 A 
HETATM    7  C26 UNL     1      29.944  29.129  21.790  1.00  0.00     0.040 A 
HETATM    8  C25 UNL     1      28.770  29.884  21.741  1.00  0.00     0.010 A 
BRANCH   5   9
HETATM    9  O1  UNL     1      31.508  30.542  24.774  1.00  0.00    -0.353 OA
HETATM   10  C1  UNL     1      31.448  29.762  25.959  1.00  0.00     0.210 C 
ENDBRANCH   5   9
BRANCH   6  11
HETATM   11  O4  UNL     1      32.027  28.645  22.893  1.00  0.00    -0.348 OA
BRANCH  11  12
HETATM   12  C28 UNL     1      32.311  27.303  22.693  1.00  0.00     0.180 C 
BRANCH  12  13
HETATM   13  C29 UNL     1      32.020  26.552  24.017  1.00  0.00     0.065 C 
BRANCH  13  14
HETATM   14  C30 UNL     1      30.847  25.669  23.891  1.00  0.00    -0.056 A 
HETATM   15  C31 UNL     1      30.161  25.652  22.699  1.00  0.00     0.007 A 
HETATM   16  C32 UNL     1      29.042  24.847  22.522  1.00  0.00     0.001 A 
HETATM   17  C33 UNL     1      28.617  24.060  23.554  1.00  0.00     0.000 A 
HETATM   18  C34 UNL     1      29.304  24.076  24.748  1.00  0.00     0.001 A 
HETATM   19  C35 UNL     1      30.418  24.880  24.917  1.00  0.00     0.007 A 
ENDBRANCH  13  14
ENDBRANCH  12  13
ENDBRANCH  11  12
ENDBRANCH   6  11
ENDBRANCH   2   3
ENDBRANCH   1   2
BRANCH   1  20
HETATM   20  N1  UNL     1      26.878  34.112  22.757  1.00  0.00    -0.344 N 
HETATM   21  C7  UNL     1      25.814  33.804  23.704  1.00  0.00     0.309 C 
HETATM   22  O2  UNL     1      25.437  32.644  23.854  1.00  0.00    -0.262 OA
ATOM     23  H1  UNL     1      27.224  35.065  22.647  1.00  0.00     0.163 HD
BRANCH  21  24
HETATM   24  C8  UNL     1      25.199  34.877  24.468  1.00  0.00     0.309 C 
HETATM   25  O3  UNL     1      24.386  34.561  25.361  1.00  0.00    -0.262 OA
HETATM   26  N2  UNL     1      25.494  36.274  24.234  1.00  0.00    -0.348 N 
ATOM     27  H2  UNL     1      26.140  36.560  23.498  1.00  0.00     0.163 HD
BRANCH  26  28
HETATM   28  C9  UNL     1      24.855  37.232  25.061  1.00  0.00     0.088 C 
HETATM   29  C10 UNL     1      25.902  37.993  25.838  1.00  0.00     0.033 C 
BRANCH  28  30
HETATM   30  C11 UNL     1      23.952  38.235  24.376  1.00  0.00     0.037 C 
HETATM   31  C12 UNL     1      23.571  37.904  22.983  1.00  0.00     0.017 C 
BRANCH  30  32
HETATM   32  C13 UNL     1      22.806  38.609  25.255  1.00  0.00    -0.052 A 
HETATM   33  C14 UNL     1      22.824  39.766  25.996  1.00  0.00     0.007 A 
HETATM   34  C15 UNL     1      21.779  40.125  26.824  1.00  0.00     0.001 A 
HETATM   35  C16 UNL     1      20.671  39.341  26.950  1.00  0.00     0.000 A 
HETATM   36  C17 UNL     1      20.627  38.156  26.203  1.00  0.00     0.001 A 
HETATM   37  C18 UNL     1      21.666  37.822  25.393  1.00  0.00     0.007 A 
ENDBRANCH  30  32
ENDBRANCH  28  30
ENDBRANCH  26  28
ENDBRANCH  21  24
ENDBRANCH   1  20
BRANCH   1  38
HETATM   38  C19 UNL     1      26.804  33.012  20.611  1.00  0.00    -0.035 A 
HETATM   39  C20 UNL     1      27.482  32.388  19.601  1.00  0.00     0.009 A 
HETATM   40  C21 UNL     1      26.991  32.315  18.286  1.00  0.00     0.001 A 
HETATM   41  C22 UNL     1      25.777  32.900  18.015  1.00  0.00     0.000 A 
HETATM   42  C23 UNL     1      25.105  33.529  19.051  1.00  0.00     0.001 A 
HETATM   43  C24 UNL     1      25.592  33.596  20.340  1.00  0.00     0.009 A 
ENDBRANCH   1  38
TORSDOF 13
ENDMDL
MODEL 5
REMARK VINA RESULT: -10.435551231      1.432      2.463
REMARK  13 active torsions:
REMARK  status: ('A' for Active; 'I' for Inactive)
REMARK    1  A    between atoms: O1_2  and  C2_3 
REMARK    2  A    between atoms: C4_5  and  C5_6 
REMARK    3  A    between atoms: C5_6  and  C6_7 
REMARK    4  A    between atoms: C6_7  and  N1_8 
REMARK    5  A    between atoms: C6_7  and  C19_26 
REMARK       I    between atoms: N1_8  and  C7_10 
REMARK    6  A    between atoms: C7_10  and  C8_12 
REMARK       I    between atoms: C8_12  and  N2_14 
REMARK    7  A    between atoms: N2_14  and  C9_16 
REMARK    8  A    between atoms: C9_16  and  C11_18 
REMARK    9  A    between atoms: C11_18  and  C13_20 
REMARK   10  A    between atoms: C27_34  and  O4_35 
REMARK   11  A    between atoms: O4_35  and  C28_36 
REMARK   12  A    between atoms: C28_36  and  C29_37 
REMARK   13  A    between atoms: C29_37  and  C30_38 
ROOT
HETATM    1  C6  UNL     1      27.407  33.021  22.125  1.00  0.00     0.122 C 
ENDROOT
BRANCH   1   2
HETATM    2  C5  UNL     1      27.288  31.677  22.762  1.00  0.00     0.068 C 
BRANCH   2   3
HETATM    3  C4  UNL     1      28.465  30.825  22.722  1.00  0.00    -0.053 A 
HETATM    4  C3  UNL     1      29.442  31.032  23.723  1.00  0.00     0.046 A 
HETATM    5  C2  UNL     1      30.604  30.318  23.766  1.00  0.00     0.102 A 
HETATM    6  C27 UNL     1      30.879  29.334  22.799  1.00  0.00     0.102 A 
HETATM    7  C26 UNL     1      29.933  29.126  21.824  1.00  0.00     0.040 A 
HETATM    8  C25 UNL     1      28.753  29.874  21.809  1.00  0.00     0.010 A 
BRANCH   5   9
HETATM    9  O1  UNL     1      31.565  30.537  24.773  1.00  0.00    -0.353 OA
HETATM   10  C1  UNL     1      31.512  29.783  25.976  1.00  0.00     0.210 C 
ENDBRANCH   5   9
BRANCH   6  11
HETATM   11  O4  UNL     1      32.047  28.651  22.871  1.00  0.00    -0.348 OA
BRANCH  11  12
HETATM   12  C28 UNL     1      32.333  27.310  22.667  1.00  0.00     0.180 C 
BRANCH  12  13
HETATM   13  C29 UNL     1      32.049  26.556  23.992  1.00  0.00     0.065 C 
BRANCH  13  14
HETATM   14  C30 UNL     1      30.876  25.673  23.870  1.00  0.00    -0.056 A 
HETATM   15  C31 UNL     1      30.199  25.639  22.674  1.00  0.00     0.007 A 
HETATM   16  C32 UNL     1      29.079  24.834  22.501  1.00  0.00     0.001 A 
HETATM   17  C33 UNL     1      28.646  24.062  23.542  1.00  0.00     0.000 A 
HETATM   18  C34 UNL     1      29.325  24.095  24.740  1.00  0.00     0.001 A 
HETATM   19  C35 UNL     1      30.438  24.900  24.905  1.00  0.00     0.007 A 
ENDBRANCH  13  14
ENDBRANCH  12  13
ENDBRANCH  11  12
ENDBRANCH   6  11
ENDBRANCH   2   3
ENDBRANCH   1   2
BRANCH   1  20
HETATM   20  N1  UNL     1      26.830  34.077  22.918  1.00  0.00    -0.344 N 
HETATM   21  C7  UNL     1      25.798  33.723  23.883  1.00  0.00     0.309 C 
HETATM   22  O2  UNL     1      25.469  32.548  24.034  1.00  0.00    -0.262 OA
ATOM     23  H1  UNL     1      27.136  35.044  22.808  1.00  0.00     0.163 HD
BRANCH  21  24
HETATM   24  C8  UNL     1      25.155  34.767  24.665  1.00  0.00     0.309 C 
HETATM   25  O3  UNL     1      24.340  34.416  25.542  1.00  0.00    -0.262 OA
HETATM   26  N2  UNL     1      25.427  36.174  24.466  1.00  0.00    -0.348 N 
ATOM     27  H2  UNL     1      26.075  36.488  23.744  1.00  0.00     0.163 HD
BRANCH  26  28
HETATM   28  C9  UNL     1      24.763  37.102  25.308  1.00  0.00     0.088 C 
HETATM   29  C10 UNL     1      25.654  38.302  25.523  1.00  0.00     0.033 C 
BRANCH  28  30
HETATM   30  C11 UNL     1      23.408  37.594  24.850  1.00  0.00     0.037 C 
HETATM   31  C12 UNL     1      22.852  38.735  25.612  1.00  0.00     0.017 C 
BRANCH  30  32
HETATM   32  C13 UNL     1      23.376  37.768  23.368  1.00  0.00    -0.052 A 
HETATM   33  C14 UNL     1      23.379  39.018  22.797  1.00  0.00     0.007 A 
HETATM   34  C15 UNL     1      23.337  39.202  21.430  1.00  0.00     0.001 A 
HETATM   35  C16 UNL     1      23.291  38.144  20.572  1.00  0.00     0.000 A 
HETATM   36  C17 UNL     1      23.290  36.858  21.129  1.00  0.00     0.001 A 
HETATM   37  C18 UNL     1      23.331  36.699  22.478  1.00  0.00     0.007 A 
ENDBRANCH  30  32
ENDBRANCH  28  30
ENDBRANCH  26  28
ENDBRANCH  21  24
ENDBRANCH   1  20
BRANCH   1  38
HETATM   38  C19 UNL     1      26.797  33.022  20.749  1.00  0.00    -0.035 A 
HETATM   39  C20 UNL     1      27.479  32.398  19.742  1.00  0.00     0.009 A 
HETATM   40  C21 UNL     1      27.002  32.341  18.421  1.00  0.00     0.001 A 
HETATM   41  C22 UNL     1      25.798  32.943  18.141  1.00  0.00     0.000 A 
HETATM   42  C23 UNL     1      25.122  33.572  19.175  1.00  0.00     0.001 A 
HETATM   43  C24 UNL     1      25.596  33.623  20.470  1.00  0.00     0.009 A 
ENDBRANCH   1  38
TORSDOF 13
ENDMDL
