MODEL 1
REMARK VINA RESULT: -10.496059716      0.000      0.000
REMARK  15 active torsions:
REMARK  status: ('A' for Active; 'I' for Inactive)
REMARK    1  A    between atoms: C2_2  and  C3_3 
REMARK    2  A    between atoms: C2_2  and  C25_28 
REMARK    3  A    between atoms: C3_3  and  N1_4 
REMARK    4  A    between atoms: N1_4  and  C4_5 
REMARK    5  A    between atoms: N1_4  and  C12_13 
REMARK    6  A    between atoms: C4_5  and  C5_6 
REMARK    7  A    between atoms: C5_6  and  C6_7 
REMARK    8  A    between atoms: C12_13  and  C13_14 
REMARK    9  A    between atoms: C16_17  and  C17_18 
REMARK   10  A    between atoms: C17_18  and  N2_19 
REMARK   11  A    between atoms: C25_28  and  O1_29 
REMARK   12  A    between atoms: C25_28  and  C26_31 
REMARK   13  A    between atoms: C26_31  and  O2_32 
REMARK   14  A    between atoms: O2_32  and  C27_33 
REMARK   15  A    between atoms: C32_38  and  C33_39 
ROOT
HETATM    1  N1  UNL     1      28.565  32.036  21.307  1.00  0.00     0.093 N 
ENDROOT
BRANCH   1   2
HETATM    2  C3  UNL     1      28.032  33.039  22.189  1.00  0.00     0.279 C 
BRANCH   2   3
HETATM    3  C2  UNL     1      26.877  32.525  23.018  1.00  0.00     0.041 C 
HETATM    4  C1  UNL     1      27.106  32.779  24.496  1.00  0.00     0.014 C 
BRANCH   3   5
HETATM    5  C25 UNL     1      25.640  33.294  22.599  1.00  0.00     0.147 C 
BRANCH   5   6
HETATM    6  O1  UNL     1      25.047  32.688  21.472  1.00  0.00    -0.393 OA
ATOM      7  H1  UNL     1      24.136  32.949  21.399  1.00  0.00     0.210 HD
ENDBRANCH   5   6
BRANCH   5   8
HETATM    8  C26 UNL     1      25.982  34.712  22.157  1.00  0.00     0.207 C 
BRANCH   8   9
HETATM    9  O2  UNL     1      25.380  35.654  23.028  1.00  0.00    -0.348 OA
BRANCH   9  10
HETATM   10  C27 UNL     1      24.241  36.306  22.597  1.00  0.00     0.075 A 
HETATM   11  C28 UNL     1      23.938  36.388  21.231  1.00  0.00     0.037 A 
HETATM   12  C29 UNL     1      22.790  37.047  20.832  1.00  0.00     0.003 A 
HETATM   13  C30 UNL     1      21.956  37.614  21.773  1.00  0.00     0.001 A 
HETATM   14  C31 UNL     1      22.278  37.520  23.132  1.00  0.00     0.011 A 
HETATM   15  C32 UNL     1      23.417  36.867  23.543  1.00  0.00    -0.017 A 
BRANCH  15  16
HETATM   16  C33 UNL     1      23.770  36.758  24.960  1.00  0.00    -0.021 C 
HETATM   17  C34 UNL     1      23.886  35.324  25.426  1.00  0.00     0.019 C 
HETATM   18  C35 UNL     1      22.695  37.417  25.830  1.00  0.00     0.019 C 
HETATM   19  C36 UNL     1      25.069  37.450  25.303  1.00  0.00     0.019 C 
ENDBRANCH  15  16
ENDBRANCH   9  10
ENDBRANCH   8   9
ENDBRANCH   5   8
ENDBRANCH   3   5
ENDBRANCH   2   3
ENDBRANCH   1   2
BRANCH   1  20
HETATM   20  C4  UNL     1      28.656  32.564  19.985  1.00  0.00     0.277 C 
BRANCH  20  21
HETATM   21  C5  UNL     1      27.718  31.909  18.998  1.00  0.00     0.068 C 
BRANCH  21  22
HETATM   22  C6  UNL     1      26.771  32.965  18.522  1.00  0.00    -0.057 A 
HETATM   23  C7  UNL     1      27.076  34.307  18.623  1.00  0.00     0.007 A 
HETATM   24  C8  UNL     1      26.207  35.284  18.188  1.00  0.00     0.001 A 
HETATM   25  C9  UNL     1      25.009  34.949  17.638  1.00  0.00     0.000 A 
HETATM   26  C10 UNL     1      24.674  33.611  17.523  1.00  0.00     0.001 A 
HETATM   27  C11 UNL     1      25.553  32.639  17.964  1.00  0.00     0.007 A 
ENDBRANCH  21  22
ENDBRANCH  20  21
ENDBRANCH   1  20
BRANCH   1  28
HETATM   28  C12 UNL     1      29.848  31.610  21.812  1.00  0.00     0.311 C 
BRANCH  28  29
HETATM   29  C13 UNL     1      29.952  30.137  21.852  1.00  0.00    -0.030 A 
HETATM   30  C14 UNL     1      28.885  29.431  22.374  1.00  0.00     0.009 A 
HETATM   31  C15 UNL     1      28.987  28.056  22.395  1.00  0.00     0.009 A 
HETATM   32  C16 UNL     1      30.090  27.373  21.925  1.00  0.00    -0.040 A 
HETATM   33  C23 UNL     1      31.161  28.070  21.403  1.00  0.00     0.009 A 
HETATM   34  C24 UNL     1      31.062  29.444  21.380  1.00  0.00     0.009 A 
BRANCH  32  35
HETATM   35  C17 UNL     1      30.062  25.895  22.010  1.00  0.00     0.166 C 
BRANCH  35  36
HETATM   36  N2  UNL     1      30.846  25.397  23.119  1.00  0.00    -0.362 N 
HETATM   37  C18 UNL     1      30.532  25.856  24.340  1.00  0.00     0.092 A 
HETATM   38  C19 UNL     1      31.193  25.465  25.482  1.00  0.00     0.043 A 
HETATM   39  C20 UNL     1      32.233  24.561  25.403  1.00  0.00     0.049 A 
HETATM   40  N3  UNL     1      32.952  24.120  26.541  1.00  0.00    -0.102 NA
HETATM   41  C21 UNL     1      32.524  24.114  24.125  1.00  0.00     0.043 A 
HETATM   42  C22 UNL     1      31.846  24.521  23.001  1.00  0.00     0.092 A 
ENDBRANCH  35  36
ENDBRANCH  32  35
ENDBRANCH  28  29
ENDBRANCH   1  28
TORSDOF 15
ENDMDL
MODEL 2
REMARK VINA RESULT: -10.370086018      1.192      1.679
REMARK  15 active torsions:
REMARK  status: ('A' for Active; 'I' for Inactive)
REMARK    1  A    between atoms: C2_2  and  C3_3 
REMARK    2  A    between atoms: C2_2  and  C25_28 
REMARK    3  A    between atoms: C3_3  and  N1_4 
REMARK    4  A    between atoms: N1_4  and  C4_5 
REMARK    5  A    between atoms: N1_4  and  C12_13 
REMARK    6  A    between atoms: C4_5  and  C5_6 
REMARK    7  A    between atoms: C5_6  and  C6_7 
REMARK    8  A    between atoms: C12_13  and  C13_14 
REMARK    9  A    between atoms: C16_17  and  C17_18 
REMARK   10  A    between atoms: C17_18  and  N2_19 
REMARK   11  A    between atoms: C25_28  and  O1_29 
REMARK   12  A    between atoms: C25_28  and  C26_31 
REMARK   13  A    between atoms: C26_31  and  O2_32 
REMARK   14  A    between atoms: O2_32  and  C27_33 
REMARK   15  A    between atoms: C32_38  and  C33_39 
ROOT
HETATM    1  N1  UNL     1      27.907  32.369  21.261  1.00  0.00     0.093 N 
ENDROOT
BRANCH   1   2
HETATM    2  C3  UNL     1      27.679  33.306  22.328  1.00  0.00     0.279 C 
BRANCH   2   3
HETATM    3  C2  UNL     1      27.191  32.635  23.592  1.00  0.00     0.041 C 
HETATM    4  C1  UNL     1      28.296  32.543  24.627  1.00  0.00     0.014 C 
BRANCH   3   5
HETATM    5  C25 UNL     1      26.084  33.497  24.166  1.00  0.00     0.147 C 
BRANCH   5   6
HETATM    6  O1  UNL     1      25.093  32.687  24.760  1.00  0.00    -0.393 OA
ATOM      7  H1  UNL     1      24.513  33.216  25.295  1.00  0.00     0.210 HD
ENDBRANCH   5   6
BRANCH   5   8
HETATM    8  C26 UNL     1      25.360  34.280  23.077  1.00  0.00     0.207 C 
BRANCH   8   9
HETATM    9  O2  UNL     1      25.286  35.651  23.431  1.00  0.00    -0.348 OA
BRANCH   9  10
HETATM   10  C27 UNL     1      24.262  36.408  22.894  1.00  0.00     0.075 A 
HETATM   11  C28 UNL     1      23.944  36.316  21.532  1.00  0.00     0.037 A 
HETATM   12  C29 UNL     1      22.913  37.087  21.026  1.00  0.00     0.003 A 
HETATM   13  C30 UNL     1      22.211  37.934  21.858  1.00  0.00     0.001 A 
HETATM   14  C31 UNL     1      22.546  38.011  23.215  1.00  0.00     0.011 A 
HETATM   15  C32 UNL     1      23.569  37.249  23.731  1.00  0.00    -0.017 A 
BRANCH  15  16
HETATM   16  C33 UNL     1      23.934  37.315  25.148  1.00  0.00    -0.021 C 
HETATM   17  C34 UNL     1      23.702  36.008  25.874  1.00  0.00     0.019 C 
HETATM   18  C35 UNL     1      23.092  38.373  25.868  1.00  0.00     0.019 C 
HETATM   19  C36 UNL     1      25.377  37.705  25.372  1.00  0.00     0.019 C 
ENDBRANCH  15  16
ENDBRANCH   9  10
ENDBRANCH   8   9
ENDBRANCH   5   8
ENDBRANCH   3   5
ENDBRANCH   2   3
ENDBRANCH   1   2
BRANCH   1  20
HETATM   20  C4  UNL     1      27.023  32.656  20.179  1.00  0.00     0.277 C 
BRANCH  20  21
HETATM   21  C5  UNL     1      27.662  33.440  19.057  1.00  0.00     0.068 C 
BRANCH  21  22
HETATM   22  C6  UNL     1      26.612  34.351  18.502  1.00  0.00    -0.057 A 
HETATM   23  C7  UNL     1      26.943  35.468  17.763  1.00  0.00     0.007 A 
HETATM   24  C8  UNL     1      25.981  36.311  17.251  1.00  0.00     0.001 A 
HETATM   25  C9  UNL     1      24.661  36.063  17.462  1.00  0.00     0.000 A 
HETATM   26  C10 UNL     1      24.296  34.950  18.199  1.00  0.00     0.001 A 
HETATM   27  C11 UNL     1      25.270  34.111  18.709  1.00  0.00     0.007 A 
ENDBRANCH  21  22
ENDBRANCH  20  21
ENDBRANCH   1  20
BRANCH   1  28
HETATM   28  C12 UNL     1      29.293  32.445  20.866  1.00  0.00     0.311 C 
BRANCH  28  29
HETATM   29  C13 UNL     1      29.961  31.132  20.981  1.00  0.00    -0.030 A 
HETATM   30  C14 UNL     1      31.195  30.984  20.380  1.00  0.00     0.009 A 
HETATM   31  C15 UNL     1      31.816  29.759  20.503  1.00  0.00     0.009 A 
HETATM   32  C16 UNL     1      31.262  28.698  21.189  1.00  0.00    -0.040 A 
HETATM   33  C23 UNL     1      30.027  28.836  21.792  1.00  0.00     0.009 A 
HETATM   34  C24 UNL     1      29.405  30.060  21.671  1.00  0.00     0.009 A 
BRANCH  32  35
HETATM   35  C17 UNL     1      32.040  27.440  21.241  1.00  0.00     0.166 C 
BRANCH  35  36
HETATM   36  N2  UNL     1      31.965  26.804  22.538  1.00  0.00    -0.362 N 
HETATM   37  C18 UNL     1      31.569  25.523  22.564  1.00  0.00     0.092 A 
HETATM   38  C19 UNL     1      31.455  24.795  23.727  1.00  0.00     0.043 A 
HETATM   39  C20 UNL     1      31.754  25.382  24.941  1.00  0.00     0.049 A 
HETATM   40  N3  UNL     1      31.657  24.688  26.171  1.00  0.00    -0.102 NA
HETATM   41  C21 UNL     1      32.158  26.705  24.867  1.00  0.00     0.043 A 
HETATM   42  C22 UNL     1      32.263  27.407  23.690  1.00  0.00     0.092 A 
ENDBRANCH  35  36
ENDBRANCH  32  35
ENDBRANCH  28  29
ENDBRANCH   1  28
TORSDOF 15
ENDMDL
MODEL 3
REMARK VINA RESULT: -10.124267576      1.495      2.269
REMARK  15 active torsions:
REMARK  status: ('A' for Active; 'I' for Inactive)
REMARK    1  A    between atoms: C2_2  and  C3_3 
REMARK    2  A    between atoms: C2_2  and  C25_28 
REMARK    3  A    between atoms: C3_3  and  N1_4 
REMARK    4  A    between atoms: N1_4  and  C4_5 
REMARK    5  A    between atoms: N1_4  and  C12_13 
REMARK    6  A    between atoms: C4_5  and  C5_6 
REMARK    7  A    between atoms: C5_6  and  C6_7 
REMARK    8  A    between atoms: C12_13  and  C13_14 
REMARK    9  A    between atoms: C16_17  and  C17_18 
REMARK   10  A    between atoms: C17_18  and  N2_19 
REMARK   11  A    between atoms: C25_28  and  O1_29 
REMARK   12  A    between atoms: C25_28  and  C26_31 
REMARK   13  A    between atoms: C26_31  and  O2_32 
REMARK   14  A    between atoms: O2_32  and  C27_33 
REMARK   15  A    between atoms: C32_38  and  C33_39 
ROOT
HETATM    1  N1  UNL     1      27.381  32.652  20.903  1.00  0.00     0.093 N 
ENDROOT
BRANCH   1   2
HETATM    2  C3  UNL     1      27.222  33.512  22.044  1.00  0.00     0.279 C 
BRANCH   2   3
HETATM    3  C2  UNL     1      26.720  32.771  23.262  1.00  0.00     0.041 C 
HETATM    4  C1  UNL     1      27.831  32.558  24.273  1.00  0.00     0.014 C 
BRANCH   3   5
HETATM    5  C25 UNL     1      25.656  33.632  23.913  1.00  0.00     0.147 C 
BRANCH   5   6
HETATM    6  O1  UNL     1      24.963  32.894  24.895  1.00  0.00    -0.393 OA
ATOM      7  H1  UNL     1      24.056  33.174  24.938  1.00  0.00     0.210 HD
ENDBRANCH   5   6
BRANCH   5   8
HETATM    8  C26 UNL     1      24.591  34.062  22.911  1.00  0.00     0.207 C 
BRANCH   8   9
HETATM    9  O2  UNL     1      24.369  35.459  23.004  1.00  0.00    -0.348 OA
BRANCH   9  10
HETATM   10  C27 UNL     1      24.075  36.151  21.845  1.00  0.00     0.075 A 
HETATM   11  C28 UNL     1      24.361  35.597  20.590  1.00  0.00     0.037 A 
HETATM   12  C29 UNL     1      24.054  36.316  19.449  1.00  0.00     0.003 A 
HETATM   13  C30 UNL     1      23.473  37.562  19.552  1.00  0.00     0.001 A 
HETATM   14  C31 UNL     1      23.195  38.097  20.816  1.00  0.00     0.011 A 
HETATM   15  C32 UNL     1      23.496  37.392  21.960  1.00  0.00    -0.017 A 
BRANCH  15  16
HETATM   16  C33 UNL     1      23.213  37.935  23.290  1.00  0.00    -0.021 C 
HETATM   17  C34 UNL     1      21.995  37.308  23.931  1.00  0.00     0.019 C 
HETATM   18  C35 UNL     1      22.942  39.440  23.207  1.00  0.00     0.019 C 
HETATM   19  C36 UNL     1      24.365  37.769  24.255  1.00  0.00     0.019 C 
ENDBRANCH  15  16
ENDBRANCH   9  10
ENDBRANCH   8   9
ENDBRANCH   5   8
ENDBRANCH   3   5
ENDBRANCH   2   3
ENDBRANCH   1   2
BRANCH   1  20
HETATM   20  C4  UNL     1      26.446  33.024  19.892  1.00  0.00     0.277 C 
BRANCH  20  21
HETATM   21  C5  UNL     1      26.950  32.817  18.484  1.00  0.00     0.068 C 
BRANCH  21  22
HETATM   22  C6  UNL     1      26.600  34.045  17.704  1.00  0.00    -0.057 A 
HETATM   23  C7  UNL     1      25.569  34.048  16.787  1.00  0.00     0.007 A 
HETATM   24  C8  UNL     1      25.242  35.175  16.066  1.00  0.00     0.001 A 
HETATM   25  C9  UNL     1      25.935  36.332  16.239  1.00  0.00     0.000 A 
HETATM   26  C10 UNL     1      26.975  36.362  17.152  1.00  0.00     0.001 A 
HETATM   27  C11 UNL     1      27.294  35.224  17.871  1.00  0.00     0.007 A 
ENDBRANCH  21  22
ENDBRANCH  20  21
ENDBRANCH   1  20
BRANCH   1  28
HETATM   28  C12 UNL     1      28.745  32.742  20.442  1.00  0.00     0.311 C 
BRANCH  28  29
HETATM   29  C13 UNL     1      29.482  31.485  20.684  1.00  0.00    -0.030 A 
HETATM   30  C14 UNL     1      30.765  31.385  20.184  1.00  0.00     0.009 A 
HETATM   31  C15 UNL     1      31.449  30.212  20.425  1.00  0.00     0.009 A 
HETATM   32  C16 UNL     1      30.911  29.156  21.132  1.00  0.00    -0.040 A 
HETATM   33  C23 UNL     1      29.627  29.246  21.634  1.00  0.00     0.009 A 
HETATM   34  C24 UNL     1      28.942  30.418  21.395  1.00  0.00     0.009 A 
BRANCH  32  35
HETATM   35  C17 UNL     1      31.758  27.957  21.315  1.00  0.00     0.166 C 
BRANCH  35  36
HETATM   36  N2  UNL     1      31.268  27.097  22.370  1.00  0.00    -0.362 N 
HETATM   37  C18 UNL     1      31.564  27.451  23.630  1.00  0.00     0.092 A 
HETATM   38  C19 UNL     1      31.160  26.727  24.729  1.00  0.00     0.043 A 
HETATM   39  C20 UNL     1      30.414  25.578  24.561  1.00  0.00     0.049 A 
HETATM   40  N3  UNL     1      29.968  24.790  25.651  1.00  0.00    -0.102 NA
HETATM   41  C21 UNL     1      30.131  25.249  23.246  1.00  0.00     0.043 A 
HETATM   42  C22 UNL     1      30.548  25.992  22.168  1.00  0.00     0.092 A 
ENDBRANCH  35  36
ENDBRANCH  32  35
ENDBRANCH  28  29
ENDBRANCH   1  28
TORSDOF 15
ENDMDL
MODEL 4
REMARK VINA RESULT: -9.904443147      3.385     10.725
REMARK  15 active torsions:
REMARK  status: ('A' for Active; 'I' for Inactive)
REMARK    1  A    between atoms: C2_2  and  C3_3 
REMARK    2  A    between atoms: C2_2  and  C25_28 
REMARK    3  A    between atoms: C3_3  and  N1_4 
REMARK    4  A    between atoms: N1_4  and  C4_5 
REMARK    5  A    between atoms: N1_4  and  C12_13 
REMARK    6  A    between atoms: C4_5  and  C5_6 
REMARK    7  A    between atoms: C5_6  and  C6_7 
REMARK    8  A    between atoms: C12_13  and  C13_14 
REMARK    9  A    between atoms: C16_17  and  C17_18 
REMARK   10  A    between atoms: C17_18  and  N2_19 
REMARK   11  A    between atoms: C25_28  and  O1_29 
REMARK   12  A    between atoms: C25_28  and  C26_31 
REMARK   13  A    between atoms: C26_31  and  O2_32 
REMARK   14  A    between atoms: O2_32  and  C27_33 
REMARK   15  A    between atoms: C32_38  and  C33_39 
ROOT
HETATM    1  N1  UNL     1      29.508  31.645  21.369  1.00  0.00     0.093 N 
ENDROOT
BRANCH   1   2
HETATM    2  C3  UNL     1      30.834  31.087  21.372  1.00  0.00     0.279 C 
BRANCH   2   3
HETATM    3  C2  UNL     1      30.936  29.834  20.532  1.00  0.00     0.041 C 
HETATM    4  C1  UNL     1      31.938  30.007  19.406  1.00  0.00     0.014 C 
BRANCH   3   5
HETATM    5  C25 UNL     1      31.434  28.722  21.433  1.00  0.00     0.147 C 
BRANCH   5   6
HETATM    6  O1  UNL     1      31.589  27.529  20.696  1.00  0.00    -0.393 OA
ATOM      7  H1  UNL     1      32.476  27.199  20.788  1.00  0.00     0.210 HD
ENDBRANCH   5   6
BRANCH   5   8
HETATM    8  C26 UNL     1      30.424  28.388  22.525  1.00  0.00     0.207 C 
BRANCH   8   9
HETATM    9  O2  UNL     1      30.875  27.281  23.286  1.00  0.00    -0.348 OA
BRANCH   9  10
HETATM   10  C27 UNL     1      30.028  26.199  23.430  1.00  0.00     0.075 A 
HETATM   11  C28 UNL     1      28.713  26.253  22.948  1.00  0.00     0.037 A 
HETATM   12  C29 UNL     1      27.890  25.153  23.108  1.00  0.00     0.003 A 
HETATM   13  C30 UNL     1      28.365  24.020  23.735  1.00  0.00     0.001 A 
HETATM   14  C31 UNL     1      29.682  23.988  24.208  1.00  0.00     0.011 A 
HETATM   15  C32 UNL     1      30.511  25.076  24.056  1.00  0.00    -0.017 A 
BRANCH  15  16
HETATM   16  C33 UNL     1      31.892  25.061  24.545  1.00  0.00    -0.021 C 
HETATM   17  C34 UNL     1      32.618  26.362  24.284  1.00  0.00     0.019 C 
HETATM   18  C35 UNL     1      32.695  23.961  23.845  1.00  0.00     0.019 C 
HETATM   19  C36 UNL     1      31.994  24.777  26.025  1.00  0.00     0.019 C 
ENDBRANCH  15  16
ENDBRANCH   9  10
ENDBRANCH   8   9
ENDBRANCH   5   8
ENDBRANCH   3   5
ENDBRANCH   2   3
ENDBRANCH   1   2
BRANCH   1  20
HETATM   20  C4  UNL     1      29.110  31.932  22.708  1.00  0.00     0.277 C 
BRANCH  20  21
HETATM   21  C5  UNL     1      27.844  31.228  23.136  1.00  0.00     0.068 C 
BRANCH  21  22
HETATM   22  C6  UNL     1      26.814  32.285  23.382  1.00  0.00    -0.057 A 
HETATM   23  C7  UNL     1      26.816  33.042  24.535  1.00  0.00     0.007 A 
HETATM   24  C8  UNL     1      25.869  34.015  24.767  1.00  0.00     0.001 A 
HETATM   25  C9  UNL     1      24.892  34.261  23.854  1.00  0.00     0.000 A 
HETATM   26  C10 UNL     1      24.862  33.520  22.687  1.00  0.00     0.001 A 
HETATM   27  C11 UNL     1      25.818  32.545  22.464  1.00  0.00     0.007 A 
ENDBRANCH  21  22
ENDBRANCH  20  21
ENDBRANCH   1  20
BRANCH   1  28
HETATM   28  C12 UNL     1      29.503  32.822  20.535  1.00  0.00     0.311 C 
BRANCH  28  29
HETATM   29  C13 UNL     1      28.243  32.941  19.774  1.00  0.00    -0.030 A 
HETATM   30  C14 UNL     1      27.866  31.872  18.984  1.00  0.00     0.009 A 
HETATM   31  C15 UNL     1      26.682  31.988  18.287  1.00  0.00     0.009 A 
HETATM   32  C16 UNL     1      25.876  33.106  18.347  1.00  0.00    -0.040 A 
HETATM   33  C23 UNL     1      26.246  34.180  19.133  1.00  0.00     0.009 A 
HETATM   34  C24 UNL     1      27.428  34.067  19.831  1.00  0.00     0.009 A 
BRANCH  32  35
HETATM   35  C17 UNL     1      24.632  33.093  17.546  1.00  0.00     0.166 C 
BRANCH  35  36
HETATM   36  N2  UNL     1      24.407  34.350  16.866  1.00  0.00    -0.362 N 
HETATM   37  C18 UNL     1      23.341  35.067  17.251  1.00  0.00     0.092 A 
HETATM   38  C19 UNL     1      23.009  36.280  16.691  1.00  0.00     0.043 A 
HETATM   39  C20 UNL     1      23.790  36.812  15.684  1.00  0.00     0.049 A 
HETATM   40  N3  UNL     1      23.502  38.055  15.069  1.00  0.00    -0.102 NA
HETATM   41  C21 UNL     1      24.880  36.039  15.318  1.00  0.00     0.043 A 
HETATM   42  C22 UNL     1      25.186  34.831  15.895  1.00  0.00     0.092 A 
ENDBRANCH  35  36
ENDBRANCH  32  35
ENDBRANCH  28  29
ENDBRANCH   1  28
TORSDOF 15
ENDMDL
MODEL 5
REMARK VINA RESULT: -9.898567544      3.034     10.103
REMARK  15 active torsions:
REMARK  status: ('A' for Active; 'I' for Inactive)
REMARK    1  A    between atoms: C2_2  and  C3_3 
REMARK    2  A    between atoms: C2_2  and  C25_28 
REMARK    3  A    between atoms: C3_3  and  N1_4 
REMARK    4  A    between atoms: N1_4  and  C4_5 
REMARK    5  A    between atoms: N1_4  and  C12_13 
REMARK    6  A    between atoms: C4_5  and  C5_6 
REMARK    7  A    between atoms: C5_6  and  C6_7 
REMARK    8  A    between atoms: C12_13  and  C13_14 
REMARK    9  A    between atoms: C16_17  and  C17_18 
REMARK   10  A    between atoms: C17_18  and  N2_19 
REMARK   11  A    between atoms: C25_28  and  O1_29 
REMARK   12  A    between atoms: C25_28  and  C26_31 
REMARK   13  A    between atoms: C26_31  and  O2_32 
REMARK   14  A    between atoms: O2_32  and  C27_33 
REMARK   15  A    between atoms: C32_38  and  C33_39 
ROOT
HETATM    1  N1  UNL     1      28.875  32.365  21.113  1.00  0.00     0.093 N 
ENDROOT
BRANCH   1   2
HETATM    2  C3  UNL     1      30.095  31.678  21.442  1.00  0.00     0.279 C 
BRANCH   2   3
HETATM    3  C2  UNL     1      29.993  30.184  21.234  1.00  0.00     0.041 C 
HETATM    4  C1  UNL     1      31.024  29.697  20.234  1.00  0.00     0.014 C 
BRANCH   3   5
HETATM    5  C25 UNL     1      30.282  29.519  22.565  1.00  0.00     0.147 C 
BRANCH   5   6
HETATM    6  O1  UNL     1      31.645  29.166  22.648  1.00  0.00    -0.393 OA
ATOM      7  H1  UNL     1      31.807  28.665  23.439  1.00  0.00     0.210 HD
ENDBRANCH   5   6
BRANCH   5   8
HETATM    8  C26 UNL     1      29.520  28.207  22.714  1.00  0.00     0.207 C 
BRANCH   8   9
HETATM    9  O2  UNL     1      30.304  27.266  23.427  1.00  0.00    -0.348 OA
BRANCH   9  10
HETATM   10  C27 UNL     1      30.317  25.957  22.984  1.00  0.00     0.075 A 
HETATM   11  C28 UNL     1      29.915  25.642  21.679  1.00  0.00     0.037 A 
HETATM   12  C29 UNL     1      29.940  24.322  21.266  1.00  0.00     0.003 A 
HETATM   13  C30 UNL     1      30.357  23.334  22.132  1.00  0.00     0.001 A 
HETATM   14  C31 UNL     1      30.754  23.672  23.431  1.00  0.00     0.011 A 
HETATM   15  C32 UNL     1      30.734  24.981  23.855  1.00  0.00    -0.017 A 
BRANCH  15  16
HETATM   16  C33 UNL     1      31.147  25.354  25.211  1.00  0.00    -0.021 C 
HETATM   17  C34 UNL     1      32.252  24.473  25.749  1.00  0.00     0.019 C 
HETATM   18  C35 UNL     1      29.969  25.224  26.182  1.00  0.00     0.019 C 
HETATM   19  C36 UNL     1      31.619  26.786  25.314  1.00  0.00     0.019 C 
ENDBRANCH  15  16
ENDBRANCH   9  10
ENDBRANCH   8   9
ENDBRANCH   5   8
ENDBRANCH   3   5
ENDBRANCH   2   3
ENDBRANCH   1   2
BRANCH   1  20
HETATM   20  C4  UNL     1      28.838  32.623  19.711  1.00  0.00     0.277 C 
BRANCH  20  21
HETATM   21  C5  UNL     1      27.721  31.910  18.985  1.00  0.00     0.068 C 
BRANCH  21  22
HETATM   22  C6  UNL     1      26.795  32.961  18.460  1.00  0.00    -0.057 A 
HETATM   23  C7  UNL     1      25.554  32.641  17.950  1.00  0.00     0.007 A 
HETATM   24  C8  UNL     1      24.697  33.604  17.464  1.00  0.00     0.001 A 
HETATM   25  C9  UNL     1      25.055  34.916  17.474  1.00  0.00     0.000 A 
HETATM   26  C10 UNL     1      26.293  35.271  17.980  1.00  0.00     0.001 A 
HETATM   27  C11 UNL     1      27.146  34.295  18.464  1.00  0.00     0.007 A 
ENDBRANCH  21  22
ENDBRANCH  20  21
ENDBRANCH   1  20
BRANCH   1  28
HETATM   28  C12 UNL     1      27.760  31.559  21.548  1.00  0.00     0.311 C 
BRANCH  28  29
HETATM   29  C13 UNL     1      26.888  32.302  22.482  1.00  0.00    -0.030 A 
HETATM   30  C14 UNL     1      25.717  32.837  21.981  1.00  0.00     0.009 A 
HETATM   31  C15 UNL     1      24.905  33.517  22.864  1.00  0.00     0.009 A 
HETATM   32  C16 UNL     1      25.212  33.682  24.199  1.00  0.00    -0.040 A 
HETATM   33  C23 UNL     1      26.381  33.152  24.708  1.00  0.00     0.009 A 
HETATM   34  C24 UNL     1      27.194  32.471  23.828  1.00  0.00     0.009 A 
BRANCH  32  35
HETATM   35  C17 UNL     1      24.247  34.436  25.031  1.00  0.00     0.166 C 
BRANCH  35  36
HETATM   36  N2  UNL     1      24.452  35.865  24.944  1.00  0.00    -0.362 N 
HETATM   37  C18 UNL     1      25.422  36.387  25.709  1.00  0.00     0.092 A 
HETATM   38  C19 UNL     1      25.726  37.730  25.724  1.00  0.00     0.043 A 
HETATM   39  C20 UNL     1      25.017  38.607  24.927  1.00  0.00     0.049 A 
HETATM   40  N3  UNL     1      25.282  39.998  24.898  1.00  0.00    -0.102 NA
HETATM   41  C21 UNL     1      24.025  38.025  24.154  1.00  0.00     0.043 A 
HETATM   42  C22 UNL     1      23.744  36.681  24.160  1.00  0.00     0.092 A 
ENDBRANCH  35  36
ENDBRANCH  32  35
ENDBRANCH  28  29
ENDBRANCH   1  28
TORSDOF 15
ENDMDL
