MODEL 1
REMARK VINA RESULT: -6.420184801      0.000      0.000
REMARK  12 active torsions:
REMARK  status: ('A' for Active; 'I' for Inactive)
REMARK    1  A    between atoms: C2_2  and  C3_3 
REMARK    2  A    between atoms: C6_12  and  C7_13 
REMARK    3  A    between atoms: C7_13  and  C8_14 
REMARK    4  A    between atoms: C12_21  and  C13_22 
REMARK    5  A    between atoms: C13_22  and  C14_23 
REMARK    6  A    between atoms: C18_30  and  C19_31 
REMARK    7  A    between atoms: C19_31  and  C20_32 
REMARK    8  A    between atoms: C24_39  and  C25_40 
REMARK    9  A    between atoms: C25_40  and  C26_41 
REMARK   10  A    between atoms: C26_41  and  C27_42 
REMARK   11  A    between atoms: C27_42  and  C28_43 
REMARK   12  A    between atoms: C28_43  and  N6_44 
ROOT
HETATM    1  C3  UNL     1      16.382 -15.222  20.117  1.00  0.00     0.175 C 
HETATM    2  N1  UNL     1      15.109 -15.672  20.594  1.00  0.00    -0.354 N 
ATOM      3  H1  UNL     1      14.437 -14.949  20.850  1.00  0.00     0.162 HD
HETATM    4  C4  UNL     1      14.684 -17.007  20.748  1.00  0.00     0.175 C 
HETATM    5  S1  UNL     1      13.149 -17.445  20.283  1.00  0.00    -0.041 SA
HETATM    6  N2  UNL     1      15.491 -18.058  21.291  1.00  0.00    -0.302 N 
ATOM      7  H2  UNL     1      15.487 -18.959  20.812  1.00  0.00     0.171 HD
HETATM    8  C5  UNL     1      16.297 -17.926  22.456  1.00  0.00     0.246 C 
HETATM    9  O1  UNL     1      17.432 -18.473  22.390  1.00  0.00    -0.271 OA
HETATM   10  C6  UNL     1      15.945 -17.227  23.699  1.00  0.00     0.177 C 
HETATM   11  N3  UNL     1      16.796 -16.093  23.994  1.00  0.00    -0.346 N 
ATOM     12  H3  UNL     1      16.720 -15.348  23.301  1.00  0.00     0.163 HD
HETATM   13  C11 UNL     1      17.677 -15.802  24.992  1.00  0.00     0.241 C 
HETATM   14  O2  UNL     1      17.398 -14.828  25.790  1.00  0.00    -0.271 OA
HETATM   15  C12 UNL     1      19.002 -16.444  25.362  1.00  0.00     0.177 C 
HETATM   16  N4  UNL     1      19.968 -15.350  25.321  1.00  0.00    -0.346 N 
ATOM     17  H4  UNL     1      20.118 -14.873  26.210  1.00  0.00     0.163 HD
HETATM   18  C17 UNL     1      20.711 -14.860  24.265  1.00  0.00     0.241 C 
HETATM   19  O3  UNL     1      21.856 -14.359  24.578  1.00  0.00    -0.271 OA
HETATM   20  C18 UNL     1      20.411 -14.810  22.819  1.00  0.00     0.177 C 
HETATM   21  N5  UNL     1      20.173 -13.423  22.399  1.00  0.00    -0.346 N 
ATOM     22  H5  UNL     1      20.806 -12.725  22.790  1.00  0.00     0.163 HD
HETATM   23  C23 UNL     1      19.192 -12.938  21.536  1.00  0.00     0.241 C 
HETATM   24  O4  UNL     1      18.420 -12.015  21.905  1.00  0.00    -0.271 OA
HETATM   25  C24 UNL     1      18.954 -13.441  20.120  1.00  0.00     0.176 C 
HETATM   26  N7  UNL     1      17.612 -13.032  19.778  1.00  0.00    -0.346 N 
ATOM     27  H7  UNL     1      17.503 -12.131  19.313  1.00  0.00     0.163 HD
HETATM   28  C29 UNL     1      16.437 -13.773  20.032  1.00  0.00     0.241 C 
HETATM   29  O5  UNL     1      15.354 -13.113  20.197  1.00  0.00    -0.271 OA
ENDROOT
BRANCH  25  30
HETATM   30  C25 UNL     1      19.977 -12.753  19.267  1.00  0.00     0.035 C 
BRANCH  30  31
HETATM   31  C26 UNL     1      21.074 -13.534  18.687  1.00  0.00     0.004 C 
BRANCH  31  32
HETATM   32  C27 UNL     1      20.860 -13.951  17.276  1.00  0.00     0.027 C 
BRANCH  32  33
HETATM   33  C28 UNL     1      20.336 -12.759  16.443  1.00  0.00     0.229 C 
BRANCH  33  34
HETATM   34  N6  UNL     1      21.446 -11.870  16.247  1.00  0.00    -0.079 N 
ATOM     35  H63 UNL     1      21.964 -11.677  17.104  1.00  0.00     0.274 HD
ATOM     36  H62 UNL     1      22.214 -12.295  15.726  1.00  0.00     0.274 HD
ATOM     37  H61 UNL     1      21.076 -11.029  15.803  1.00  0.00     0.274 HD
ENDBRANCH  33  34
ENDBRANCH  32  33
ENDBRANCH  31  32
ENDBRANCH  30  31
ENDBRANCH  25  30
BRANCH  20  38
HETATM   38  C19 UNL     1      21.510 -15.306  21.957  1.00  0.00     0.038 C 
BRANCH  38  39
HETATM   39  C20 UNL     1      21.505 -16.698  21.483  1.00  0.00    -0.020 C 
HETATM   40  C21 UNL     1      22.474 -17.617  22.195  1.00  0.00     0.009 C 
HETATM   41  C22 UNL     1      21.523 -16.891  19.989  1.00  0.00     0.009 C 
ENDBRANCH  38  39
ENDBRANCH  20  38
BRANCH   1  42
HETATM   42  C2  UNL     1      16.733 -15.863  18.793  1.00  0.00     0.030 C 
HETATM   43  C1  UNL     1      17.934 -16.767  18.917  1.00  0.00     0.007 C 
ENDBRANCH   1  42
BRANCH  15  44
HETATM   44  C13 UNL     1      18.887 -17.036  26.755  1.00  0.00     0.038 C 
BRANCH  44  45
HETATM   45  C14 UNL     1      19.036 -18.515  26.834  1.00  0.00    -0.020 C 
HETATM   46  C15 UNL     1      17.989 -19.265  27.569  1.00  0.00     0.009 C 
HETATM   47  C16 UNL     1      19.212 -19.134  25.448  1.00  0.00     0.009 C 
ENDBRANCH  44  45
ENDBRANCH  15  44
BRANCH  10  48
HETATM   48  C7  UNL     1      15.674 -18.070  24.896  1.00  0.00     0.038 C 
BRANCH  48  49
HETATM   49  C8  UNL     1      14.907 -19.324  24.749  1.00  0.00    -0.020 C 
HETATM   50  C9  UNL     1      13.825 -19.522  25.728  1.00  0.00     0.009 C 
HETATM   51  C10 UNL     1      15.822 -20.558  24.816  1.00  0.00     0.009 C 
ENDBRANCH  48  49
ENDBRANCH  10  48
TORSDOF 12
ENDMDL
MODEL 2
REMARK VINA RESULT: -6.393609102      2.684      6.389
REMARK  12 active torsions:
REMARK  status: ('A' for Active; 'I' for Inactive)
REMARK    1  A    between atoms: C2_2  and  C3_3 
REMARK    2  A    between atoms: C6_12  and  C7_13 
REMARK    3  A    between atoms: C7_13  and  C8_14 
REMARK    4  A    between atoms: C12_21  and  C13_22 
REMARK    5  A    between atoms: C13_22  and  C14_23 
REMARK    6  A    between atoms: C18_30  and  C19_31 
REMARK    7  A    between atoms: C19_31  and  C20_32 
REMARK    8  A    between atoms: C24_39  and  C25_40 
REMARK    9  A    between atoms: C25_40  and  C26_41 
REMARK   10  A    between atoms: C26_41  and  C27_42 
REMARK   11  A    between atoms: C27_42  and  C28_43 
REMARK   12  A    between atoms: C28_43  and  N6_44 
ROOT
HETATM    1  C3  UNL     1      18.530 -18.171  22.664  1.00  0.00     0.175 C 
HETATM    2  N1  UNL     1      17.174 -18.548  22.402  1.00  0.00    -0.354 N 
ATOM      3  H1  UNL     1      17.032 -19.283  21.709  1.00  0.00     0.162 HD
HETATM    4  C4  UNL     1      16.014 -18.014  22.996  1.00  0.00     0.175 C 
HETATM    5  S1  UNL     1      14.782 -19.027  23.465  1.00  0.00    -0.041 SA
HETATM    6  N2  UNL     1      15.796 -16.619  23.241  1.00  0.00    -0.302 N 
ATOM      7  H2  UNL     1      15.410 -16.348  24.146  1.00  0.00     0.171 HD
HETATM    8  C5  UNL     1      16.082 -15.589  22.303  1.00  0.00     0.246 C 
HETATM    9  O1  UNL     1      16.605 -14.548  22.788  1.00  0.00    -0.271 OA
HETATM   10  C6  UNL     1      15.835 -15.620  20.855  1.00  0.00     0.177 C 
HETATM   11  N3  UNL     1      17.040 -15.539  20.054  1.00  0.00    -0.346 N 
ATOM     12  H3  UNL     1      17.657 -16.341  20.182  1.00  0.00     0.163 HD
HETATM   13  C11 UNL     1      17.530 -14.627  19.168  1.00  0.00     0.241 C 
HETATM   14  O2  UNL     1      17.647 -14.977  17.932  1.00  0.00    -0.271 OA
HETATM   15  C12 UNL     1      17.992 -13.196  19.373  1.00  0.00     0.177 C 
HETATM   16  N4  UNL     1      19.367 -13.176  18.881  1.00  0.00    -0.346 N 
ATOM     17  H4  UNL     1      19.470 -12.914  17.901  1.00  0.00     0.163 HD
HETATM   18  C17 UNL     1      20.549 -13.457  19.536  1.00  0.00     0.241 C 
HETATM   19  O3  UNL     1      21.583 -12.814  19.114  1.00  0.00    -0.271 OA
HETATM   20  C18 UNL     1      20.834 -14.382  20.652  1.00  0.00     0.177 C 
HETATM   21  N5  UNL     1      21.628 -15.522  20.174  1.00  0.00    -0.346 N 
ATOM     22  H5  UNL     1      22.381 -15.298  19.523  1.00  0.00     0.163 HD
HETATM   23  C23 UNL     1      21.485 -16.871  20.496  1.00  0.00     0.241 C 
HETATM   24  O4  UNL     1      21.353 -17.731  19.587  1.00  0.00    -0.271 OA
HETATM   25  C24 UNL     1      21.475 -17.430  21.910  1.00  0.00     0.176 C 
HETATM   26  N7  UNL     1      20.851 -18.729  21.814  1.00  0.00    -0.346 N 
ATOM     27  H7  UNL     1      21.464 -19.531  21.665  1.00  0.00     0.163 HD
HETATM   28  C29 UNL     1      19.466 -18.985  21.910  1.00  0.00     0.241 C 
HETATM   29  O5  UNL     1      19.016 -20.007  21.284  1.00  0.00    -0.271 OA
ENDROOT
BRANCH  25  30
HETATM   30  C25 UNL     1      22.914 -17.535  22.317  1.00  0.00     0.035 C 
BRANCH  30  31
HETATM   31  C26 UNL     1      23.270 -17.446  23.737  1.00  0.00     0.004 C 
BRANCH  31  32
HETATM   32  C27 UNL     1      24.148 -16.298  24.085  1.00  0.00     0.027 C 
BRANCH  32  33
HETATM   33  C28 UNL     1      25.561 -16.513  23.496  1.00  0.00     0.229 C 
BRANCH  33  34
HETATM   34  N6  UNL     1      26.085 -15.211  23.192  1.00  0.00    -0.079 N 
ATOM     35  H63 UNL     1      26.803 -15.225  22.468  1.00  0.00     0.274 HD
ATOM     36  H62 UNL     1      25.419 -14.614  22.701  1.00  0.00     0.274 HD
ATOM     37  H61 UNL     1      26.411 -14.811  24.072  1.00  0.00     0.274 HD
ENDBRANCH  33  34
ENDBRANCH  32  33
ENDBRANCH  31  32
ENDBRANCH  30  31
ENDBRANCH  25  30
BRANCH  20  38
HETATM   38  C19 UNL     1      21.622 -13.778  21.752  1.00  0.00     0.038 C 
BRANCH  38  39
HETATM   39  C20 UNL     1      21.130 -13.843  23.135  1.00  0.00    -0.020 C 
HETATM   40  C21 UNL     1      19.730 -13.307  23.339  1.00  0.00     0.009 C 
HETATM   41  C22 UNL     1      22.085 -13.376  24.203  1.00  0.00     0.009 C 
ENDBRANCH  38  39
ENDBRANCH  20  38
BRANCH   1  42
HETATM   42  C2  UNL     1      18.837 -18.211  24.145  1.00  0.00     0.030 C 
HETATM   43  C1  UNL     1      19.200 -16.846  24.673  1.00  0.00     0.007 C 
ENDBRANCH   1  42
BRANCH  15  44
HETATM   44  C13 UNL     1      17.096 -12.272  18.568  1.00  0.00     0.038 C 
BRANCH  44  45
HETATM   45  C14 UNL     1      16.208 -11.386  19.368  1.00  0.00    -0.020 C 
HETATM   46  C15 UNL     1      14.757 -11.425  19.065  1.00  0.00     0.009 C 
HETATM   47  C16 UNL     1      16.410 -11.601  20.868  1.00  0.00     0.009 C 
ENDBRANCH  44  45
ENDBRANCH  15  44
BRANCH  10  48
HETATM   48  C7  UNL     1      14.740 -14.756  20.336  1.00  0.00     0.038 C 
BRANCH  48  49
HETATM   49  C8  UNL     1      13.424 -14.759  21.008  1.00  0.00    -0.020 C 
HETATM   50  C9  UNL     1      12.276 -15.091  20.149  1.00  0.00     0.009 C 
HETATM   51  C10 UNL     1      13.126 -13.407  21.675  1.00  0.00     0.009 C 
ENDBRANCH  48  49
ENDBRANCH  10  48
TORSDOF 12
ENDMDL
MODEL 3
REMARK VINA RESULT: -6.346987274      2.154      3.337
REMARK  12 active torsions:
REMARK  status: ('A' for Active; 'I' for Inactive)
REMARK    1  A    between atoms: C2_2  and  C3_3 
REMARK    2  A    between atoms: C6_12  and  C7_13 
REMARK    3  A    between atoms: C7_13  and  C8_14 
REMARK    4  A    between atoms: C12_21  and  C13_22 
REMARK    5  A    between atoms: C13_22  and  C14_23 
REMARK    6  A    between atoms: C18_30  and  C19_31 
REMARK    7  A    between atoms: C19_31  and  C20_32 
REMARK    8  A    between atoms: C24_39  and  C25_40 
REMARK    9  A    between atoms: C25_40  and  C26_41 
REMARK   10  A    between atoms: C26_41  and  C27_42 
REMARK   11  A    between atoms: C27_42  and  C28_43 
REMARK   12  A    between atoms: C28_43  and  N6_44 
ROOT
HETATM    1  C3  UNL     1      14.150 -16.257  21.249  1.00  0.00     0.175 C 
HETATM    2  N1  UNL     1      13.425 -17.103  22.148  1.00  0.00    -0.354 N 
ATOM      3  H1  UNL     1      12.714 -16.653  22.724  1.00  0.00     0.162 HD
HETATM    4  C4  UNL     1      13.586 -18.492  22.322  1.00  0.00     0.175 C 
HETATM    5  S1  UNL     1      12.248 -19.469  22.470  1.00  0.00    -0.041 SA
HETATM    6  N2  UNL     1      14.851 -19.161  22.385  1.00  0.00    -0.302 N 
ATOM      7  H2  UNL     1      14.959 -20.028  21.859  1.00  0.00     0.171 HD
HETATM    8  C5  UNL     1      15.965 -18.694  23.136  1.00  0.00     0.246 C 
HETATM    9  O1  UNL     1      17.085 -18.807  22.565  1.00  0.00    -0.271 OA
HETATM   10  C6  UNL     1      15.939 -18.103  24.481  1.00  0.00     0.177 C 
HETATM   11  N3  UNL     1      16.391 -16.727  24.523  1.00  0.00    -0.346 N 
ATOM     12  H3  UNL     1      15.787 -16.093  24.000  1.00  0.00     0.163 HD
HETATM   13  C11 UNL     1      17.446 -16.093  25.109  1.00  0.00     0.241 C 
HETATM   14  O2  UNL     1      17.204 -15.242  26.047  1.00  0.00    -0.271 OA
HETATM   15  C12 UNL     1      18.936 -16.205  24.849  1.00  0.00     0.177 C 
HETATM   16  N4  UNL     1      19.362 -14.843  24.536  1.00  0.00    -0.346 N 
ATOM     17  H4  UNL     1      19.690 -14.300  25.334  1.00  0.00     0.163 HD
HETATM   18  C17 UNL     1      19.389 -14.177  23.327  1.00  0.00     0.241 C 
HETATM   19  O3  UNL     1      20.313 -13.288  23.205  1.00  0.00    -0.271 OA
HETATM   20  C18 UNL     1      18.524 -14.310  22.136  1.00  0.00     0.177 C 
HETATM   21  N5  UNL     1      17.675 -13.120  21.992  1.00  0.00    -0.346 N 
ATOM     22  H5  UNL     1      18.132 -12.224  22.164  1.00  0.00     0.163 HD
HETATM   23  C23 UNL     1      16.326 -13.058  21.649  1.00  0.00     0.241 C 
HETATM   24  O4  UNL     1      15.509 -12.450  22.388  1.00  0.00    -0.271 OA
HETATM   25  C24 UNL     1      15.716 -13.683  20.403  1.00  0.00     0.176 C 
HETATM   26  N7  UNL     1      14.301 -13.794  20.672  1.00  0.00    -0.346 N 
ATOM     27  H7  UNL     1      13.710 -13.014  20.384  1.00  0.00     0.163 HD
HETATM   28  C29 UNL     1      13.666 -14.889  21.298  1.00  0.00     0.241 C 
HETATM   29  O5  UNL     1      12.592 -14.646  21.950  1.00  0.00    -0.271 OA
ENDROOT
BRANCH  25  30
HETATM   30  C25 UNL     1      15.994 -12.723  19.287  1.00  0.00     0.035 C 
BRANCH  30  31
HETATM   31  C26 UNL     1      15.017 -11.675  18.977  1.00  0.00     0.004 C 
BRANCH  31  32
HETATM   32  C27 UNL     1      15.250 -10.383  19.676  1.00  0.00     0.027 C 
BRANCH  32  33
HETATM   33  C28 UNL     1      13.921  -9.842  20.250  1.00  0.00     0.229 C 
BRANCH  33  34
HETATM   34  N6  UNL     1      13.987 -10.008  21.674  1.00  0.00    -0.079 N 
ATOM     35  H63 UNL     1      14.822  -9.595  22.090  1.00  0.00     0.274 HD
ATOM     36  H62 UNL     1      13.301  -9.444  22.177  1.00  0.00     0.274 HD
ATOM     37  H61 UNL     1      13.899 -11.007  21.859  1.00  0.00     0.274 HD
ENDBRANCH  33  34
ENDBRANCH  32  33
ENDBRANCH  31  32
ENDBRANCH  30  31
ENDBRANCH  25  30
BRANCH  20  38
HETATM   38  C19 UNL     1      19.268 -14.428  20.860  1.00  0.00     0.038 C 
BRANCH  38  39
HETATM   39  C20 UNL     1      18.814 -15.368  19.825  1.00  0.00    -0.020 C 
HETATM   40  C21 UNL     1      19.336 -16.781  19.973  1.00  0.00     0.009 C 
HETATM   41  C22 UNL     1      18.885 -14.875  18.403  1.00  0.00     0.009 C 
ENDBRANCH  38  39
ENDBRANCH  20  38
BRANCH   1  42
HETATM   42  C2  UNL     1      14.123 -16.799  19.837  1.00  0.00     0.030 C 
HETATM   43  C1  UNL     1      15.503 -17.187  19.367  1.00  0.00     0.007 C 
ENDBRANCH   1  42
BRANCH  15  44
HETATM   44  C13 UNL     1      19.614 -16.728  26.103  1.00  0.00     0.038 C 
BRANCH  44  45
HETATM   45  C14 UNL     1      20.267 -18.059  25.968  1.00  0.00    -0.020 C 
HETATM   46  C15 UNL     1      19.924 -19.090  26.977  1.00  0.00     0.009 C 
HETATM   47  C16 UNL     1      20.063 -18.642  24.570  1.00  0.00     0.009 C 
ENDBRANCH  44  45
ENDBRANCH  15  44
BRANCH  10  48
HETATM   48  C7  UNL     1      16.490 -18.924  25.593  1.00  0.00     0.038 C 
BRANCH  48  49
HETATM   49  C8  UNL     1      15.604 -19.855  26.323  1.00  0.00    -0.020 C 
HETATM   50  C9  UNL     1      14.162 -19.585  26.199  1.00  0.00     0.009 C 
HETATM   51  C10 UNL     1      15.939 -19.896  27.822  1.00  0.00     0.009 C 
ENDBRANCH  48  49
ENDBRANCH  10  48
TORSDOF 12
ENDMDL
MODEL 4
REMARK VINA RESULT: -6.228757039      2.590      6.972
REMARK  12 active torsions:
REMARK  status: ('A' for Active; 'I' for Inactive)
REMARK    1  A    between atoms: C2_2  and  C3_3 
REMARK    2  A    between atoms: C6_12  and  C7_13 
REMARK    3  A    between atoms: C7_13  and  C8_14 
REMARK    4  A    between atoms: C12_21  and  C13_22 
REMARK    5  A    between atoms: C13_22  and  C14_23 
REMARK    6  A    between atoms: C18_30  and  C19_31 
REMARK    7  A    between atoms: C19_31  and  C20_32 
REMARK    8  A    between atoms: C24_39  and  C25_40 
REMARK    9  A    between atoms: C25_40  and  C26_41 
REMARK   10  A    between atoms: C26_41  and  C27_42 
REMARK   11  A    between atoms: C27_42  and  C28_43 
REMARK   12  A    between atoms: C28_43  and  N6_44 
ROOT
HETATM    1  C3  UNL     1      16.542 -18.124  23.606  1.00  0.00     0.175 C 
HETATM    2  N1  UNL     1      16.892 -17.458  24.824  1.00  0.00    -0.354 N 
ATOM      3  H1  UNL     1      16.133 -16.997  25.324  1.00  0.00     0.162 HD
HETATM    4  C4  UNL     1      18.171 -17.372  25.408  1.00  0.00     0.175 C 
HETATM    5  S1  UNL     1      18.348 -17.571  27.049  1.00  0.00    -0.041 SA
HETATM    6  N2  UNL     1      19.380 -17.119  24.681  1.00  0.00    -0.302 N 
ATOM      7  H2  UNL     1      20.199 -17.683  24.904  1.00  0.00     0.171 HD
HETATM    8  C5  UNL     1      19.509 -16.128  23.668  1.00  0.00     0.246 C 
HETATM    9  O1  UNL     1      20.180 -16.476  22.657  1.00  0.00    -0.271 OA
HETATM   10  C6  UNL     1      18.949 -14.770  23.683  1.00  0.00     0.177 C 
HETATM   11  N3  UNL     1      17.980 -14.525  22.634  1.00  0.00    -0.346 N 
ATOM     12  H3  UNL     1      17.144 -15.102  22.723  1.00  0.00     0.163 HD
HETATM   13  C11 UNL     1      17.941 -13.694  21.555  1.00  0.00     0.241 C 
HETATM   14  O2  UNL     1      17.058 -12.754  21.539  1.00  0.00    -0.271 OA
HETATM   15  C12 UNL     1      18.787 -13.665  20.296  1.00  0.00     0.177 C 
HETATM   16  N4  UNL     1      17.826 -13.775  19.201  1.00  0.00    -0.346 N 
ATOM     17  H4  UNL     1      17.498 -12.886  18.825  1.00  0.00     0.163 HD
HETATM   18  C17 UNL     1      17.293 -14.895  18.596  1.00  0.00     0.241 C 
HETATM   19  O3  UNL     1      16.986 -14.760  17.352  1.00  0.00    -0.271 OA
HETATM   20  C18 UNL     1      17.009 -16.239  19.140  1.00  0.00     0.177 C 
HETATM   21  N5  UNL     1      15.559 -16.448  19.242  1.00  0.00    -0.346 N 
ATOM     22  H5  UNL     1      15.005 -16.116  18.453  1.00  0.00     0.163 HD
HETATM   23  C23 UNL     1      14.842 -17.042  20.279  1.00  0.00     0.241 C 
HETATM   24  O4  UNL     1      13.890 -16.429  20.827  1.00  0.00    -0.271 OA
HETATM   25  C24 UNL     1      15.113 -18.430  20.839  1.00  0.00     0.176 C 
HETATM   26  N7  UNL     1      14.498 -18.454  22.145  1.00  0.00    -0.346 N 
ATOM     27  H7  UNL     1      13.535 -18.786  22.201  1.00  0.00     0.163 HD
HETATM   28  C29 UNL     1      15.114 -18.057  23.352  1.00  0.00     0.241 C 
HETATM   29  O5  UNL     1      14.353 -17.610  24.278  1.00  0.00    -0.271 OA
ENDROOT
BRANCH  25  30
HETATM   30  C25 UNL     1      14.448 -19.387  19.896  1.00  0.00     0.035 C 
BRANCH  30  31
HETATM   31  C26 UNL     1      12.987 -19.511  19.906  1.00  0.00     0.004 C 
BRANCH  31  32
HETATM   32  C27 UNL     1      12.323 -19.120  18.634  1.00  0.00     0.027 C 
BRANCH  32  33
HETATM   33  C28 UNL     1      11.409 -17.895  18.866  1.00  0.00     0.229 C 
BRANCH  33  34
HETATM   34  N6  UNL     1      12.029 -16.784  18.200  1.00  0.00    -0.079 N 
ATOM     35  H63 UNL     1      11.427 -16.346  17.503  1.00  0.00     0.274 HD
ATOM     36  H62 UNL     1      12.144 -15.969  18.802  1.00  0.00     0.274 HD
ATOM     37  H61 UNL     1      12.909 -17.126  17.813  1.00  0.00     0.274 HD
ENDBRANCH  33  34
ENDBRANCH  32  33
ENDBRANCH  31  32
ENDBRANCH  30  31
ENDBRANCH  25  30
BRANCH  20  38
HETATM   38  C19 UNL     1      17.516 -17.350  18.300  1.00  0.00     0.038 C 
BRANCH  38  39
HETATM   39  C20 UNL     1      18.095 -18.546  18.929  1.00  0.00    -0.020 C 
HETATM   40  C21 UNL     1      19.466 -18.346  19.537  1.00  0.00     0.009 C 
HETATM   41  C22 UNL     1      17.998 -19.826  18.139  1.00  0.00     0.009 C 
ENDBRANCH  38  39
ENDBRANCH  20  38
BRANCH   1  42
HETATM   42  C2  UNL     1      17.036 -19.554  23.597  1.00  0.00     0.030 C 
HETATM   43  C1  UNL     1      18.083 -19.771  22.534  1.00  0.00     0.007 C 
ENDBRANCH   1  42
BRANCH  15  44
HETATM   44  C13 UNL     1      19.545 -12.351  20.245  1.00  0.00     0.038 C 
BRANCH  44  45
HETATM   45  C14 UNL     1      21.017 -12.470  20.062  1.00  0.00    -0.020 C 
HETATM   46  C15 UNL     1      21.708 -13.557  20.799  1.00  0.00     0.009 C 
HETATM   47  C16 UNL     1      21.391 -12.555  18.583  1.00  0.00     0.009 C 
ENDBRANCH  44  45
ENDBRANCH  15  44
BRANCH  10  48
HETATM   48  C7  UNL     1      19.907 -13.644  23.857  1.00  0.00     0.038 C 
BRANCH  48  49
HETATM   49  C8  UNL     1      20.686 -13.531  25.107  1.00  0.00    -0.020 C 
HETATM   50  C9  UNL     1      19.950 -13.851  26.342  1.00  0.00     0.009 C 
HETATM   51  C10 UNL     1      21.285 -12.127  25.276  1.00  0.00     0.009 C 
ENDBRANCH  48  49
ENDBRANCH  10  48
TORSDOF 12
ENDMDL
MODEL 5
REMARK VINA RESULT: -6.211997231      0.807      1.014
REMARK  12 active torsions:
REMARK  status: ('A' for Active; 'I' for Inactive)
REMARK    1  A    between atoms: C2_2  and  C3_3 
REMARK    2  A    between atoms: C6_12  and  C7_13 
REMARK    3  A    between atoms: C7_13  and  C8_14 
REMARK    4  A    between atoms: C12_21  and  C13_22 
REMARK    5  A    between atoms: C13_22  and  C14_23 
REMARK    6  A    between atoms: C18_30  and  C19_31 
REMARK    7  A    between atoms: C19_31  and  C20_32 
REMARK    8  A    between atoms: C24_39  and  C25_40 
REMARK    9  A    between atoms: C25_40  and  C26_41 
REMARK   10  A    between atoms: C26_41  and  C27_42 
REMARK   11  A    between atoms: C27_42  and  C28_43 
REMARK   12  A    between atoms: C28_43  and  N6_44 
ROOT
HETATM    1  C3  UNL     1      16.259 -15.290  19.938  1.00  0.00     0.175 C 
HETATM    2  N1  UNL     1      15.012 -15.717  20.498  1.00  0.00    -0.354 N 
ATOM      3  H1  UNL     1      14.348 -14.983  20.743  1.00  0.00     0.162 HD
HETATM    4  C4  UNL     1      14.603 -17.042  20.747  1.00  0.00     0.175 C 
HETATM    5  S1  UNL     1      13.051 -17.512  20.381  1.00  0.00    -0.041 SA
HETATM    6  N2  UNL     1      15.441 -18.057  21.311  1.00  0.00    -0.302 N 
ATOM      7  H2  UNL     1      15.420 -18.984  20.886  1.00  0.00     0.171 HD
HETATM    8  C5  UNL     1      16.299 -17.856  22.428  1.00  0.00     0.246 C 
HETATM    9  O1  UNL     1      17.433 -18.402  22.341  1.00  0.00    -0.271 OA
HETATM   10  C6  UNL     1      16.000 -17.089  23.645  1.00  0.00     0.177 C 
HETATM   11  N3  UNL     1      16.857 -15.936  23.834  1.00  0.00    -0.346 N 
ATOM     12  H3  UNL     1      16.744 -15.232  23.105  1.00  0.00     0.163 HD
HETATM   13  C11 UNL     1      17.781 -15.586  24.773  1.00  0.00     0.241 C 
HETATM   14  O2  UNL     1      17.533 -14.568  25.526  1.00  0.00    -0.271 OA
HETATM   15  C12 UNL     1      19.125 -16.200  25.117  1.00  0.00     0.177 C 
HETATM   16  N4  UNL     1      20.082 -15.107  24.969  1.00  0.00    -0.346 N 
ATOM     17  H4  UNL     1      20.270 -14.580  25.821  1.00  0.00     0.163 HD
HETATM   18  C17 UNL     1      20.773 -14.676  23.854  1.00  0.00     0.241 C 
HETATM   19  O3  UNL     1      21.927 -14.153  24.084  1.00  0.00    -0.271 OA
HETATM   20  C18 UNL     1      20.406 -14.710  22.423  1.00  0.00     0.177 C 
HETATM   21  N5  UNL     1      20.140 -13.350  21.936  1.00  0.00    -0.346 N 
ATOM     22  H5  UNL     1      20.786 -12.628  22.256  1.00  0.00     0.163 HD
HETATM   23  C23 UNL     1      19.117 -12.919  21.093  1.00  0.00     0.241 C 
HETATM   24  O4  UNL     1      18.357 -11.979  21.443  1.00  0.00    -0.271 OA
HETATM   25  C24 UNL     1      18.818 -13.502  19.720  1.00  0.00     0.176 C 
HETATM   26  N7  UNL     1      17.459 -13.119  19.418  1.00  0.00    -0.346 N 
ATOM     27  H7  UNL     1      17.323 -12.246  18.908  1.00  0.00     0.163 HD
HETATM   28  C29 UNL     1      16.301 -13.848  19.768  1.00  0.00     0.241 C 
HETATM   29  O5  UNL     1      15.222 -13.183  19.945  1.00  0.00    -0.271 OA
ENDROOT
BRANCH  25  30
HETATM   30  C25 UNL     1      19.796 -12.861  18.782  1.00  0.00     0.035 C 
BRANCH  30  31
HETATM   31  C26 UNL     1      20.226 -13.587  17.583  1.00  0.00     0.004 C 
BRANCH  31  32
HETATM   32  C27 UNL     1      20.091 -12.824  16.315  1.00  0.00     0.027 C 
BRANCH  32  33
HETATM   33  C28 UNL     1      18.642 -12.309  16.156  1.00  0.00     0.229 C 
BRANCH  33  34
HETATM   34  N6  UNL     1      17.821 -13.457  15.890  1.00  0.00    -0.079 N 
ATOM     35  H63 UNL     1      17.518 -13.939  16.736  1.00  0.00     0.274 HD
ATOM     36  H62 UNL     1      16.894 -13.216  15.540  1.00  0.00     0.274 HD
ATOM     37  H61 UNL     1      18.348 -14.055  15.254  1.00  0.00     0.274 HD
ENDBRANCH  33  34
ENDBRANCH  32  33
ENDBRANCH  31  32
ENDBRANCH  30  31
ENDBRANCH  25  30
BRANCH  20  38
HETATM   38  C19 UNL     1      21.467 -15.250  21.540  1.00  0.00     0.038 C 
BRANCH  38  39
HETATM   39  C20 UNL     1      21.291 -16.557  20.890  1.00  0.00    -0.020 C 
HETATM   40  C21 UNL     1      22.024 -17.703  21.553  1.00  0.00     0.009 C 
HETATM   41  C22 UNL     1      21.431 -16.577  19.390  1.00  0.00     0.009 C 
ENDBRANCH  38  39
ENDBRANCH  20  38
BRANCH   1  42
HETATM   42  C2  UNL     1      16.553 -16.005  18.638  1.00  0.00     0.030 C 
HETATM   43  C1  UNL     1      17.750 -16.914  18.764  1.00  0.00     0.007 C 
ENDBRANCH   1  42
BRANCH  15  44
HETATM   44  C13 UNL     1      19.078 -16.712  26.545  1.00  0.00     0.038 C 
BRANCH  44  45
HETATM   45  C14 UNL     1      19.017 -18.192  26.691  1.00  0.00    -0.020 C 
HETATM   46  C15 UNL     1      20.301 -18.932  26.648  1.00  0.00     0.009 C 
HETATM   47  C16 UNL     1      18.250 -18.598  27.949  1.00  0.00     0.009 C 
ENDBRANCH  44  45
ENDBRANCH  15  44
BRANCH  10  48
HETATM   48  C7  UNL     1      15.790 -17.862  24.899  1.00  0.00     0.038 C 
BRANCH  48  49
HETATM   49  C8  UNL     1      15.232 -19.228  24.831  1.00  0.00    -0.020 C 
HETATM   50  C9  UNL     1      14.053 -19.473  25.679  1.00  0.00     0.009 C 
HETATM   51  C10 UNL     1      16.285 -20.289  25.188  1.00  0.00     0.009 C 
ENDBRANCH  48  49
ENDBRANCH  10  48
TORSDOF 12
ENDMDL
