MODEL 1
REMARK VINA RESULT: -8.098797507      0.000      0.000
REMARK  11 active torsions:
REMARK  status: ('A' for Active; 'I' for Inactive)
REMARK    1  A    between atoms: C2_2  and  C3_3 
REMARK    2  A    between atoms: C3_3  and  C4_4 
REMARK    3  A    between atoms: C4_4  and  C5_5 
REMARK    4  A    between atoms: C5_5  and  C6_6 
REMARK    5  A    between atoms: C8_11  and  C9_12 
REMARK    6  A    between atoms: C9_12  and  C10_13 
REMARK    7  A    between atoms: C14_20  and  C15_21 
REMARK    8  A    between atoms: C26_37  and  C27_38 
REMARK    9  A    between atoms: C27_38  and  C28_39 
REMARK   10  A    between atoms: C28_39  and  C29_40 
REMARK   11  A    between atoms: C29_40  and  N5_41 
ROOT
HETATM    1  C6  UNL     1      17.926 -13.451  19.064  1.00  0.00     0.176 C 
HETATM    2  N1  UNL     1      16.497 -13.516  18.823  1.00  0.00    -0.346 N 
ATOM      3  H1  UNL     1      16.226 -14.091  18.025  1.00  0.00     0.163 HD
HETATM    4  C7  UNL     1      15.438 -12.929  19.497  1.00  0.00     0.241 C 
HETATM    5  O1  UNL     1      14.725 -12.069  18.862  1.00  0.00    -0.271 OA
HETATM    6  C8  UNL     1      14.968 -13.140  20.895  1.00  0.00     0.177 C 
HETATM    7  N2  UNL     1      13.626 -13.749  20.821  1.00  0.00    -0.346 N 
ATOM      8  H2  UNL     1      12.851 -13.166  20.507  1.00  0.00     0.163 HD
HETATM    9  C13 UNL     1      13.352 -15.094  21.158  1.00  0.00     0.241 C 
HETATM   10  O2  UNL     1      12.250 -15.364  21.704  1.00  0.00    -0.271 OA
HETATM   11  C14 UNL     1      14.266 -16.243  20.920  1.00  0.00     0.180 C 
HETATM   12  N3  UNL     1      14.168 -17.087  22.097  1.00  0.00    -0.347 N 
ATOM     13  H3  UNL     1      13.323 -17.647  22.202  1.00  0.00     0.163 HD
HETATM   14  C18 UNL     1      15.140 -17.194  23.099  1.00  0.00     0.218 C 
HETATM   15  O3  UNL     1      14.769 -17.679  24.215  1.00  0.00    -0.274 OA
HETATM   16  C19 UNL     1      16.544 -16.794  22.975  1.00  0.00     0.109 C 
HETATM   17  C20 UNL     1      17.348 -17.727  22.090  1.00  0.00     0.013 C 
HETATM   18  C21 UNL     1      17.042 -19.181  22.357  1.00  0.00     0.012 C 
HETATM   19  C22 UNL     1      18.817 -17.403  22.242  1.00  0.00     0.087 C 
HETATM   20  C23 UNL     1      19.645 -18.663  22.400  1.00  0.00     0.033 C 
HETATM   21  N4  UNL     1      19.262 -16.705  21.038  1.00  0.00    -0.350 N 
HETATM   22  C24 UNL     1      19.020 -17.423  19.774  1.00  0.00     0.153 C 
HETATM   23  C25 UNL     1      19.888 -15.431  21.064  1.00  0.00     0.242 C 
HETATM   24  O4  UNL     1      20.807 -15.253  20.220  1.00  0.00    -0.271 OA
HETATM   25  C26 UNL     1      19.565 -14.323  21.970  1.00  0.00     0.176 C 
HETATM   26  N8  UNL     1      18.592 -13.385  21.573  1.00  0.00    -0.346 N 
ATOM     27  H8  UNL     1      17.985 -13.073  22.332  1.00  0.00     0.163 HD
HETATM   28  C31 UNL     1      18.299 -12.799  20.337  1.00  0.00     0.241 C 
HETATM   29  O5  UNL     1      18.346 -11.511  20.236  1.00  0.00    -0.271 OA
ENDROOT
BRANCH  25  30
HETATM   30  C27 UNL     1      20.887 -13.666  22.416  1.00  0.00     0.036 C 
BRANCH  30  31
HETATM   31  C28 UNL     1      21.136 -14.221  23.814  1.00  0.00     0.022 C 
BRANCH  31  32
HETATM   32  C29 UNL     1      20.291 -13.515  24.853  1.00  0.00     0.122 C 
BRANCH  32  33
HETATM   33  N5  UNL     1      19.550 -14.480  25.638  1.00  0.00    -0.367 N 
HETATM   34  C30 UNL     1      18.283 -14.566  25.489  1.00  0.00     0.196 C 
HETATM   35  N6  UNL     1      17.514 -15.504  26.243  1.00  0.00    -0.067 NA
HETATM   36  N7  UNL     1      17.545 -13.744  24.575  1.00  0.00    -0.067 NA
ATOM     37  H5  UNL     1      20.033 -15.085  26.302  1.00  0.00     0.161 HD
ENDBRANCH  32  33
ENDBRANCH  31  32
ENDBRANCH  30  31
ENDBRANCH  25  30
BRANCH   1  38
HETATM   38  C5  UNL     1      18.522 -12.655  17.890  1.00  0.00     0.035 C 
BRANCH  38  39
HETATM   39  C4  UNL     1      19.331 -13.499  16.976  1.00  0.00     0.006 C 
BRANCH  39  40
HETATM   40  C3  UNL     1      20.773 -13.580  17.433  1.00  0.00     0.026 C 
BRANCH  40  41
HETATM   41  C2  UNL     1      21.289 -12.295  17.916  1.00  0.00    -0.037 C 
HETATM   42  C1  UNL     1      21.707 -12.159  19.169  1.00  0.00     0.007 C 
ENDBRANCH  40  41
ENDBRANCH  39  40
ENDBRANCH  38  39
ENDBRANCH   1  38
BRANCH   6  43
HETATM   43  C9  UNL     1      14.799 -11.775  21.499  1.00  0.00     0.038 C 
BRANCH  43  44
HETATM   44  C10 UNL     1      13.414 -11.247  21.574  1.00  0.00    -0.020 C 
HETATM   45  C11 UNL     1      13.283  -9.797  21.152  1.00  0.00     0.009 C 
HETATM   46  C12 UNL     1      12.656 -11.571  22.825  1.00  0.00     0.009 C 
ENDBRANCH  43  44
ENDBRANCH   6  43
BRANCH  11  47
HETATM   47  C15 UNL     1      13.651 -17.023  19.759  1.00  0.00     0.009 C 
HETATM   48  C16 UNL     1      14.671 -17.414  18.735  1.00  0.00     0.012 C 
HETATM   49  C17 UNL     1      12.924 -18.250  20.222  1.00  0.00     0.012 C 
ENDBRANCH  11  47
TORSDOF 11
ENDMDL
MODEL 2
REMARK VINA RESULT: -8.019759244      1.360      1.930
REMARK  11 active torsions:
REMARK  status: ('A' for Active; 'I' for Inactive)
REMARK    1  A    between atoms: C2_2  and  C3_3 
REMARK    2  A    between atoms: C3_3  and  C4_4 
REMARK    3  A    between atoms: C4_4  and  C5_5 
REMARK    4  A    between atoms: C5_5  and  C6_6 
REMARK    5  A    between atoms: C8_11  and  C9_12 
REMARK    6  A    between atoms: C9_12  and  C10_13 
REMARK    7  A    between atoms: C14_20  and  C15_21 
REMARK    8  A    between atoms: C26_37  and  C27_38 
REMARK    9  A    between atoms: C27_38  and  C28_39 
REMARK   10  A    between atoms: C28_39  and  C29_40 
REMARK   11  A    between atoms: C29_40  and  N5_41 
ROOT
HETATM    1  C6  UNL     1      17.937 -13.399  19.247  1.00  0.00     0.176 C 
HETATM    2  N1  UNL     1      16.520 -13.492  18.950  1.00  0.00    -0.346 N 
ATOM      3  H1  UNL     1      16.291 -14.076  18.146  1.00  0.00     0.163 HD
HETATM    4  C7  UNL     1      15.425 -12.918  19.576  1.00  0.00     0.241 C 
HETATM    5  O1  UNL     1      14.724 -12.076  18.907  1.00  0.00    -0.271 OA
HETATM    6  C8  UNL     1      14.903 -13.129  20.956  1.00  0.00     0.177 C 
HETATM    7  N2  UNL     1      13.576 -13.762  20.832  1.00  0.00    -0.346 N 
ATOM      8  H2  UNL     1      12.804 -13.194  20.484  1.00  0.00     0.163 HD
HETATM    9  C13 UNL     1      13.312 -15.109  21.169  1.00  0.00     0.241 C 
HETATM   10  O2  UNL     1      12.193 -15.395  21.672  1.00  0.00    -0.271 OA
HETATM   11  C14 UNL     1      14.254 -16.243  20.976  1.00  0.00     0.180 C 
HETATM   12  N3  UNL     1      14.124 -17.081  22.154  1.00  0.00    -0.347 N 
ATOM     13  H3  UNL     1      13.285 -17.655  22.229  1.00  0.00     0.163 HD
HETATM   14  C18 UNL     1      15.056 -17.164  23.195  1.00  0.00     0.218 C 
HETATM   15  O3  UNL     1      14.649 -17.649  24.298  1.00  0.00    -0.274 OA
HETATM   16  C19 UNL     1      16.457 -16.741  23.124  1.00  0.00     0.109 C 
HETATM   17  C20 UNL     1      17.312 -17.665  22.279  1.00  0.00     0.013 C 
HETATM   18  C21 UNL     1      17.021 -19.122  22.544  1.00  0.00     0.012 C 
HETATM   19  C22 UNL     1      18.768 -17.314  22.487  1.00  0.00     0.087 C 
HETATM   20  C23 UNL     1      19.611 -18.558  22.687  1.00  0.00     0.033 C 
HETATM   21  N4  UNL     1      19.249 -16.617  21.297  1.00  0.00    -0.350 N 
HETATM   22  C24 UNL     1      19.071 -17.347  20.029  1.00  0.00     0.153 C 
HETATM   23  C25 UNL     1      19.851 -15.331  21.339  1.00  0.00     0.242 C 
HETATM   24  O4  UNL     1      20.800 -15.144  20.530  1.00  0.00    -0.271 OA
HETATM   25  C26 UNL     1      19.473 -14.224  22.222  1.00  0.00     0.176 C 
HETATM   26  N8  UNL     1      18.500 -13.305  21.781  1.00  0.00    -0.346 N 
ATOM     27  H8  UNL     1      17.859 -13.000  22.512  1.00  0.00     0.163 HD
HETATM   28  C31 UNL     1      18.248 -12.733  20.529  1.00  0.00     0.241 C 
HETATM   29  O5  UNL     1      18.276 -11.445  20.421  1.00  0.00    -0.271 OA
ENDROOT
BRANCH  25  30
HETATM   30  C27 UNL     1      20.765 -13.540  22.717  1.00  0.00     0.036 C 
BRANCH  30  31
HETATM   31  C28 UNL     1      20.758 -13.759  24.225  1.00  0.00     0.022 C 
BRANCH  31  32
HETATM   32  C29 UNL     1      21.751 -14.825  24.639  1.00  0.00     0.122 C 
BRANCH  32  33
HETATM   33  N5  UNL     1      23.092 -14.439  24.252  1.00  0.00    -0.367 N 
HETATM   34  C30 UNL     1      23.722 -15.149  23.394  1.00  0.00     0.196 C 
HETATM   35  N6  UNL     1      25.046 -14.804  22.984  1.00  0.00    -0.067 NA
HETATM   36  N7  UNL     1      23.166 -16.323  22.790  1.00  0.00    -0.067 NA
ATOM     37  H5  UNL     1      23.528 -13.611  24.657  1.00  0.00     0.161 HD
ENDBRANCH  32  33
ENDBRANCH  31  32
ENDBRANCH  30  31
ENDBRANCH  25  30
BRANCH   1  38
HETATM   38  C5  UNL     1      18.566 -12.601  18.093  1.00  0.00     0.035 C 
BRANCH  38  39
HETATM   39  C4  UNL     1      19.356 -13.452  17.168  1.00  0.00     0.006 C 
BRANCH  39  40
HETATM   40  C3  UNL     1      20.805 -13.539  17.603  1.00  0.00     0.026 C 
BRANCH  40  41
HETATM   41  C2  UNL     1      21.328 -12.261  18.096  1.00  0.00    -0.037 C 
HETATM   42  C1  UNL     1      21.709 -12.126  19.361  1.00  0.00     0.007 C 
ENDBRANCH  40  41
ENDBRANCH  39  40
ENDBRANCH  38  39
ENDBRANCH   1  38
BRANCH   6  43
HETATM   43  C9  UNL     1      14.687 -11.762  21.543  1.00  0.00     0.038 C 
BRANCH  43  44
HETATM   44  C10 UNL     1      13.283 -11.287  21.621  1.00  0.00    -0.020 C 
HETATM   45  C11 UNL     1      13.102  -9.832  21.235  1.00  0.00     0.009 C 
HETATM   46  C12 UNL     1      12.530 -11.669  22.859  1.00  0.00     0.009 C 
ENDBRANCH  43  44
ENDBRANCH   6  43
BRANCH  11  47
HETATM   47  C15 UNL     1      13.701 -17.041  19.796  1.00  0.00     0.009 C 
HETATM   48  C16 UNL     1      14.773 -17.456  18.838  1.00  0.00     0.012 C 
HETATM   49  C17 UNL     1      12.941 -18.256  20.240  1.00  0.00     0.012 C 
ENDBRANCH  11  47
TORSDOF 11
ENDMDL
MODEL 3
REMARK VINA RESULT: -7.687874069      2.356      6.925
REMARK  11 active torsions:
REMARK  status: ('A' for Active; 'I' for Inactive)
REMARK    1  A    between atoms: C2_2  and  C3_3 
REMARK    2  A    between atoms: C3_3  and  C4_4 
REMARK    3  A    between atoms: C4_4  and  C5_5 
REMARK    4  A    between atoms: C5_5  and  C6_6 
REMARK    5  A    between atoms: C8_11  and  C9_12 
REMARK    6  A    between atoms: C9_12  and  C10_13 
REMARK    7  A    between atoms: C14_20  and  C15_21 
REMARK    8  A    between atoms: C26_37  and  C27_38 
REMARK    9  A    between atoms: C27_38  and  C28_39 
REMARK   10  A    between atoms: C28_39  and  C29_40 
REMARK   11  A    between atoms: C29_40  and  N5_41 
ROOT
HETATM    1  C6  UNL     1      18.468 -15.324  23.727  1.00  0.00     0.176 C 
HETATM    2  N1  UNL     1      19.849 -15.272  23.286  1.00  0.00    -0.346 N 
ATOM      3  H1  UNL     1      20.524 -15.642  23.956  1.00  0.00     0.163 HD
HETATM    4  C7  UNL     1      20.406 -14.803  22.107  1.00  0.00     0.241 C 
HETATM    5  O1  UNL     1      21.197 -13.794  22.177  1.00  0.00    -0.271 OA
HETATM    6  C8  UNL     1      20.233 -15.300  20.713  1.00  0.00     0.177 C 
HETATM    7  N2  UNL     1      21.540 -15.818  20.265  1.00  0.00    -0.346 N 
ATOM      8  H2  UNL     1      22.283 -15.145  20.075  1.00  0.00     0.163 HD
HETATM    9  C13 UNL     1      21.823 -17.191  20.084  1.00  0.00     0.241 C 
HETATM   10  O2  UNL     1      22.596 -17.527  19.148  1.00  0.00    -0.271 OA
HETATM   11  C14 UNL     1      21.281 -18.296  20.918  1.00  0.00     0.180 C 
HETATM   12  N3  UNL     1      20.966 -19.376  20.000  1.00  0.00    -0.347 N 
ATOM     13  H3  UNL     1      21.747 -19.908  19.618  1.00  0.00     0.163 HD
HETATM   14  C18 UNL     1      19.677 -19.746  19.598  1.00  0.00     0.218 C 
HETATM   15  O3  UNL     1      19.580 -20.451  18.544  1.00  0.00    -0.274 OA
HETATM   16  C19 UNL     1      18.432 -19.391  20.285  1.00  0.00     0.109 C 
HETATM   17  C20 UNL     1      18.243 -20.137  21.591  1.00  0.00     0.013 C 
HETATM   18  C21 UNL     1      18.601 -21.599  21.476  1.00  0.00     0.012 C 
HETATM   19  C22 UNL     1      16.830 -19.920  22.081  1.00  0.00     0.087 C 
HETATM   20  C23 UNL     1      16.204 -21.218  22.551  1.00  0.00     0.033 C 
HETATM   21  N4  UNL     1      16.870 -18.992  23.209  1.00  0.00    -0.350 N 
HETATM   22  C24 UNL     1      17.745 -19.399  24.322  1.00  0.00     0.153 C 
HETATM   23  C25 UNL     1      16.124 -17.784  23.248  1.00  0.00     0.242 C 
HETATM   24  O4  UNL     1      15.660 -17.464  24.376  1.00  0.00    -0.271 OA
HETATM   25  C26 UNL     1      15.853 -16.893  22.116  1.00  0.00     0.176 C 
HETATM   26  N8  UNL     1      16.758 -15.848  21.843  1.00  0.00    -0.346 N 
ATOM     27  H8  UNL     1      16.916 -15.687  20.848  1.00  0.00     0.163 HD
HETATM   28  C31 UNL     1      17.482 -14.989  22.677  1.00  0.00     0.241 C 
HETATM   29  O5  UNL     1      17.303 -13.714  22.558  1.00  0.00    -0.271 OA
ENDROOT
BRANCH  25  30
HETATM   30  C27 UNL     1      14.392 -16.410  22.223  1.00  0.00     0.036 C 
BRANCH  30  31
HETATM   31  C28 UNL     1      14.300 -15.254  21.234  1.00  0.00     0.022 C 
BRANCH  31  32
HETATM   32  C29 UNL     1      12.908 -14.658  21.201  1.00  0.00     0.122 C 
BRANCH  32  33
HETATM   33  N5  UNL     1      12.737 -13.722  22.292  1.00  0.00    -0.367 N 
HETATM   34  C30 UNL     1      12.807 -12.467  22.056  1.00  0.00     0.196 C 
HETATM   35  N6  UNL     1      12.644 -11.510  23.104  1.00  0.00    -0.067 NA
HETATM   36  N7  UNL     1      13.053 -11.929  20.750  1.00  0.00    -0.067 NA
ATOM     37  H5  UNL     1      12.561 -14.060  23.239  1.00  0.00     0.161 HD
ENDBRANCH  32  33
ENDBRANCH  31  32
ENDBRANCH  30  31
ENDBRANCH  25  30
BRANCH   1  38
HETATM   38  C5  UNL     1      18.347 -14.314  24.880  1.00  0.00     0.035 C 
BRANCH  38  39
HETATM   39  C4  UNL     1      19.365 -14.527  25.940  1.00  0.00     0.006 C 
BRANCH  39  40
HETATM   40  C3  UNL     1      20.224 -13.294  26.133  1.00  0.00     0.026 C 
BRANCH  40  41
HETATM   41  C2  UNL     1      21.659 -13.592  26.107  1.00  0.00    -0.037 C 
HETATM   42  C1  UNL     1      22.424 -13.157  25.111  1.00  0.00     0.007 C 
ENDBRANCH  40  41
ENDBRANCH  39  40
ENDBRANCH  38  39
ENDBRANCH   1  38
BRANCH   6  43
HETATM   43  C9  UNL     1      19.922 -14.097  19.867  1.00  0.00     0.038 C 
BRANCH  43  44
HETATM   44  C10 UNL     1      20.947 -13.705  18.868  1.00  0.00    -0.020 C 
HETATM   45  C11 UNL     1      21.521 -12.318  19.087  1.00  0.00     0.009 C 
HETATM   46  C12 UNL     1      20.608 -13.986  17.436  1.00  0.00     0.009 C 
ENDBRANCH  43  44
ENDBRANCH   6  43
BRANCH  11  47
HETATM   47  C15 UNL     1      22.449 -18.770  21.782  1.00  0.00     0.009 C 
HETATM   48  C16 UNL     1      22.705 -17.860  22.941  1.00  0.00     0.012 C 
HETATM   49  C17 UNL     1      22.249 -20.168  22.288  1.00  0.00     0.012 C 
ENDBRANCH  11  47
TORSDOF 11
ENDMDL
MODEL 4
REMARK VINA RESULT: -7.644517628      2.201      6.851
REMARK  11 active torsions:
REMARK  status: ('A' for Active; 'I' for Inactive)
REMARK    1  A    between atoms: C2_2  and  C3_3 
REMARK    2  A    between atoms: C3_3  and  C4_4 
REMARK    3  A    between atoms: C4_4  and  C5_5 
REMARK    4  A    between atoms: C5_5  and  C6_6 
REMARK    5  A    between atoms: C8_11  and  C9_12 
REMARK    6  A    between atoms: C9_12  and  C10_13 
REMARK    7  A    between atoms: C14_20  and  C15_21 
REMARK    8  A    between atoms: C26_37  and  C27_38 
REMARK    9  A    between atoms: C27_38  and  C28_39 
REMARK   10  A    between atoms: C28_39  and  C29_40 
REMARK   11  A    between atoms: C29_40  and  N5_41 
ROOT
HETATM    1  C6  UNL     1      18.140 -14.497  22.984  1.00  0.00     0.176 C 
HETATM    2  N1  UNL     1      19.182 -15.507  22.977  1.00  0.00    -0.346 N 
ATOM      3  H1  UNL     1      19.076 -16.232  23.688  1.00  0.00     0.163 HD
HETATM    4  C7  UNL     1      20.295 -15.653  22.166  1.00  0.00     0.241 C 
HETATM    5  O1  UNL     1      21.453 -15.567  22.715  1.00  0.00    -0.271 OA
HETATM    6  C8  UNL     1      20.374 -15.907  20.700  1.00  0.00     0.177 C 
HETATM    7  N2  UNL     1      20.975 -17.242  20.516  1.00  0.00    -0.346 N 
ATOM      8  H2  UNL     1      21.967 -17.354  20.723  1.00  0.00     0.163 HD
HETATM    9  C13 UNL     1      20.257 -18.374  20.069  1.00  0.00     0.241 C 
HETATM   10  O2  UNL     1      20.846 -19.208  19.332  1.00  0.00    -0.271 OA
HETATM   11  C14 UNL     1      18.839 -18.676  20.399  1.00  0.00     0.180 C 
HETATM   12  N3  UNL     1      18.242 -19.194  19.181  1.00  0.00    -0.347 N 
ATOM     13  H3  UNL     1      18.490 -20.145  18.907  1.00  0.00     0.163 HD
HETATM   14  C18 UNL     1      17.356 -18.495  18.353  1.00  0.00     0.218 C 
HETATM   15  O3  UNL     1      17.207 -18.932  17.168  1.00  0.00    -0.274 OA
HETATM   16  C19 UNL     1      16.589 -17.306  18.732  1.00  0.00     0.109 C 
HETATM   17  C20 UNL     1      15.456 -17.614  19.691  1.00  0.00     0.013 C 
HETATM   18  C21 UNL     1      14.695 -18.859  19.303  1.00  0.00     0.012 C 
HETATM   19  C22 UNL     1      14.565 -16.399  19.805  1.00  0.00     0.087 C 
HETATM   20  C23 UNL     1      13.100 -16.781  19.725  1.00  0.00     0.033 C 
HETATM   21  N4  UNL     1      14.807 -15.769  21.101  1.00  0.00    -0.350 N 
HETATM   22  C24 UNL     1      14.629 -16.651  22.268  1.00  0.00     0.153 C 
HETATM   23  C25 UNL     1      15.185 -14.408  21.245  1.00  0.00     0.242 C 
HETATM   24  O4  UNL     1      14.697 -13.806  22.240  1.00  0.00    -0.271 OA
HETATM   25  C26 UNL     1      16.074 -13.654  20.356  1.00  0.00     0.176 C 
HETATM   26  N8  UNL     1      17.456 -13.642  20.630  1.00  0.00    -0.346 N 
ATOM     27  H8  UNL     1      18.043 -13.688  19.796  1.00  0.00     0.163 HD
HETATM   28  C31 UNL     1      18.177 -13.578  21.827  1.00  0.00     0.241 C 
HETATM   29  O5  UNL     1      19.004 -12.600  22.000  1.00  0.00    -0.271 OA
ENDROOT
BRANCH  25  30
HETATM   30  C27 UNL     1      15.485 -12.240  20.172  1.00  0.00     0.036 C 
BRANCH  30  31
HETATM   31  C28 UNL     1      16.445 -11.549  19.210  1.00  0.00     0.022 C 
BRANCH  31  32
HETATM   32  C29 UNL     1      16.016 -11.730  17.769  1.00  0.00     0.122 C 
BRANCH  32  33
HETATM   33  N5  UNL     1      17.114 -12.244  16.978  1.00  0.00    -0.367 N 
HETATM   34  C30 UNL     1      17.607 -11.520  16.047  1.00  0.00     0.196 C 
HETATM   35  N6  UNL     1      18.690 -11.989  15.244  1.00  0.00    -0.067 NA
HETATM   36  N7  UNL     1      17.121 -10.207  15.736  1.00  0.00    -0.067 NA
ATOM     37  H5  UNL     1      17.492 -13.174  17.163  1.00  0.00     0.161 HD
ENDBRANCH  32  33
ENDBRANCH  31  32
ENDBRANCH  30  31
ENDBRANCH  25  30
BRANCH   1  38
HETATM   38  C5  UNL     1      18.334 -13.692  24.280  1.00  0.00     0.035 C 
BRANCH  38  39
HETATM   39  C4  UNL     1      18.936 -14.496  25.373  1.00  0.00     0.006 C 
BRANCH  39  40
HETATM   40  C3  UNL     1      20.040 -13.731  26.075  1.00  0.00     0.026 C 
BRANCH  40  41
HETATM   41  C2  UNL     1      20.725 -12.783  25.191  1.00  0.00    -0.037 C 
HETATM   42  C1  UNL     1      22.036 -12.867  24.993  1.00  0.00     0.007 C 
ENDBRANCH  40  41
ENDBRANCH  39  40
ENDBRANCH  38  39
ENDBRANCH   1  38
BRANCH   6  43
HETATM   43  C9  UNL     1      21.348 -14.905  20.146  1.00  0.00     0.038 C 
BRANCH  43  44
HETATM   44  C10 UNL     1      20.796 -13.880  19.225  1.00  0.00    -0.020 C 
HETATM   45  C11 UNL     1      20.671 -14.347  17.788  1.00  0.00     0.009 C 
HETATM   46  C12 UNL     1      21.374 -12.504  19.352  1.00  0.00     0.009 C 
ENDBRANCH  43  44
ENDBRANCH   6  43
BRANCH  11  47
HETATM   47  C15 UNL     1      18.886 -19.830  21.399  1.00  0.00     0.009 C 
HETATM   48  C16 UNL     1      19.122 -19.359  22.800  1.00  0.00     0.012 C 
HETATM   49  C17 UNL     1      17.639 -20.663  21.364  1.00  0.00     0.012 C 
ENDBRANCH  11  47
TORSDOF 11
ENDMDL
MODEL 5
REMARK VINA RESULT: -7.618791755      1.661      2.228
REMARK  11 active torsions:
REMARK  status: ('A' for Active; 'I' for Inactive)
REMARK    1  A    between atoms: C2_2  and  C3_3 
REMARK    2  A    between atoms: C3_3  and  C4_4 
REMARK    3  A    between atoms: C4_4  and  C5_5 
REMARK    4  A    between atoms: C5_5  and  C6_6 
REMARK    5  A    between atoms: C8_11  and  C9_12 
REMARK    6  A    between atoms: C9_12  and  C10_13 
REMARK    7  A    between atoms: C14_20  and  C15_21 
REMARK    8  A    between atoms: C26_37  and  C27_38 
REMARK    9  A    between atoms: C27_38  and  C28_39 
REMARK   10  A    between atoms: C28_39  and  C29_40 
REMARK   11  A    between atoms: C29_40  and  N5_41 
ROOT
HETATM    1  C6  UNL     1      19.180 -13.511  19.736  1.00  0.00     0.176 C 
HETATM    2  N1  UNL     1      17.909 -13.668  19.054  1.00  0.00    -0.346 N 
ATOM      3  H1  UNL     1      17.926 -14.315  18.265  1.00  0.00     0.163 HD
HETATM    4  C7  UNL     1      16.675 -13.086  19.296  1.00  0.00     0.241 C 
HETATM    5  O1  UNL     1      16.188 -12.315  18.391  1.00  0.00    -0.271 OA
HETATM    6  C8  UNL     1      15.781 -13.215  20.480  1.00  0.00     0.177 C 
HETATM    7  N2  UNL     1      14.551 -13.896  20.032  1.00  0.00    -0.346 N 
ATOM      8  H2  UNL     1      13.906 -13.378  19.435  1.00  0.00     0.163 HD
HETATM    9  C13 UNL     1      14.214 -15.223  20.381  1.00  0.00     0.241 C 
HETATM   10  O2  UNL     1      13.001 -15.507  20.564  1.00  0.00    -0.271 OA
HETATM   11  C14 UNL     1      15.183 -16.338  20.553  1.00  0.00     0.180 C 
HETATM   12  N3  UNL     1      14.728 -17.094  21.706  1.00  0.00    -0.347 N 
ATOM     13  H3  UNL     1      13.908 -17.688  21.582  1.00  0.00     0.163 HD
HETATM   14  C18 UNL     1      15.322 -17.074  22.973  1.00  0.00     0.218 C 
HETATM   15  O3  UNL     1      14.620 -17.492  23.947  1.00  0.00    -0.274 OA
HETATM   16  C19 UNL     1      16.680 -16.614  23.273  1.00  0.00     0.109 C 
HETATM   17  C20 UNL     1      17.751 -17.568  22.781  1.00  0.00     0.013 C 
HETATM   18  C21 UNL     1      17.410 -19.011  23.063  1.00  0.00     0.012 C 
HETATM   19  C22 UNL     1      19.082 -17.158  23.369  1.00  0.00     0.087 C 
HETATM   20  C23 UNL     1      19.844 -18.359  23.896  1.00  0.00     0.033 C 
HETATM   21  N4  UNL     1      19.878 -16.533  22.316  1.00  0.00    -0.350 N 
HETATM   22  C24 UNL     1      20.078 -17.356  21.110  1.00  0.00     0.153 C 
HETATM   23  C25 UNL     1      20.430 -15.229  22.429  1.00  0.00     0.242 C 
HETATM   24  O4  UNL     1      21.570 -15.070  21.913  1.00  0.00    -0.271 OA
HETATM   25  C26 UNL     1      19.804 -14.074  23.080  1.00  0.00     0.176 C 
HETATM   26  N8  UNL     1      18.991 -13.220  22.310  1.00  0.00    -0.346 N 
ATOM     27  H8  UNL     1      18.163 -12.883  22.801  1.00  0.00     0.163 HD
HETATM   28  C31 UNL     1      19.103 -12.746  20.998  1.00  0.00     0.241 C 
HETATM   29  O5  UNL     1      19.149 -11.469  20.804  1.00  0.00    -0.271 OA
ENDROOT
BRANCH  25  30
HETATM   30  C27 UNL     1      20.893 -13.318  23.868  1.00  0.00     0.036 C 
BRANCH  30  31
HETATM   31  C28 UNL     1      20.729 -13.801  25.305  1.00  0.00     0.022 C 
BRANCH  31  32
HETATM   32  C29 UNL     1      22.048 -14.252  25.897  1.00  0.00     0.122 C 
BRANCH  32  33
HETATM   33  N5  UNL     1      22.888 -14.830  24.868  1.00  0.00    -0.367 N 
HETATM   34  C30 UNL     1      23.106 -16.090  24.876  1.00  0.00     0.196 C 
HETATM   35  N6  UNL     1      23.928 -16.701  23.881  1.00  0.00    -0.067 NA
HETATM   36  N7  UNL     1      22.559 -16.973  25.864  1.00  0.00    -0.067 NA
ATOM     37  H5  UNL     1      23.300 -14.240  24.146  1.00  0.00     0.161 HD
ENDBRANCH  32  33
ENDBRANCH  31  32
ENDBRANCH  30  31
ENDBRANCH  25  30
BRANCH   1  38
HETATM   38  C5  UNL     1      20.106 -12.777  18.751  1.00  0.00     0.035 C 
BRANCH  38  39
HETATM   39  C4  UNL     1      20.677 -13.678  17.719  1.00  0.00     0.006 C 
BRANCH  39  40
HETATM   40  C3  UNL     1      20.678 -13.020  16.354  1.00  0.00     0.026 C 
BRANCH  40  41
HETATM   41  C2  UNL     1      19.429 -12.310  16.065  1.00  0.00    -0.037 C 
HETATM   42  C1  UNL     1      18.397 -12.946  15.520  1.00  0.00     0.007 C 
ENDBRANCH  40  41
ENDBRANCH  39  40
ENDBRANCH  38  39
ENDBRANCH   1  38
BRANCH   6  43
HETATM   43  C9  UNL     1      15.392 -11.817  20.874  1.00  0.00     0.038 C 
BRANCH  43  44
HETATM   44  C10 UNL     1      13.938 -11.525  20.938  1.00  0.00    -0.020 C 
HETATM   45  C11 UNL     1      13.564 -10.148  20.425  1.00  0.00     0.009 C 
HETATM   46  C12 UNL     1      13.252 -11.886  22.220  1.00  0.00     0.009 C 
ENDBRANCH  43  44
ENDBRANCH   6  43
BRANCH  11  47
HETATM   47  C15 UNL     1      14.999 -17.235  19.329  1.00  0.00     0.009 C 
HETATM   48  C16 UNL     1      16.155 -17.149  18.383  1.00  0.00     0.012 C 
HETATM   49  C17 UNL     1      14.778 -18.670  19.706  1.00  0.00     0.012 C 
ENDBRANCH  11  47
TORSDOF 11
ENDMDL
