MODEL 1
REMARK VINA RESULT: -6.914220261      0.000      0.000
REMARK  14 active torsions:
REMARK  status: ('A' for Active; 'I' for Inactive)
REMARK    1  A    between atoms: C2_2  and  C3_3 
REMARK    2  A    between atoms: C3_3  and  C5_5 
REMARK    3  A    between atoms: C6_6  and  O1_7 
REMARK    4  A    between atoms: C7_11  and  C8_12 
REMARK    5  A    between atoms: C8_12  and  C9_13 
REMARK    6  A    between atoms: C13_20  and  C14_21 
REMARK    7  A    between atoms: C14_21  and  C15_22 
REMARK    8  A    between atoms: C19_29  and  C20_30 
REMARK    9  A    between atoms: C20_30  and  C21_31 
REMARK   10  A    between atoms: C25_38  and  C26_39 
REMARK   11  A    between atoms: C26_39  and  C27_40 
REMARK   12  A    between atoms: C27_40  and  C28_41 
REMARK   13  A    between atoms: C28_41  and  N5_42 
REMARK   14  A    between atoms: C30_47  and  O5_48 
ROOT
HETATM    1  C5  UNL     1      19.151 -14.503  20.116  1.00  0.00     0.067 C 
HETATM    2  C6  UNL     1      20.205 -15.338  20.691  1.00  0.00     0.160 C 
HETATM    3  N1  UNL     1      20.396 -15.972  21.894  1.00  0.00    -0.356 N 
ATOM      4  H1  UNL     1      20.520 -16.982  21.819  1.00  0.00     0.162 HD
HETATM    5  C7  UNL     1      20.455 -15.467  23.256  1.00  0.00     0.176 C 
HETATM    6  C12 UNL     1      20.625 -16.618  24.203  1.00  0.00     0.241 C 
HETATM    7  O2  UNL     1      21.759 -17.164  24.138  1.00  0.00    -0.271 OA
HETATM    8  N2  UNL     1      19.678 -17.119  25.108  1.00  0.00    -0.346 N 
ATOM      9  H2  UNL     1      19.489 -18.118  25.021  1.00  0.00     0.163 HD
HETATM   10  C13 UNL     1      18.936 -16.458  26.132  1.00  0.00     0.177 C 
HETATM   11  C18 UNL     1      17.634 -15.880  25.721  1.00  0.00     0.241 C 
HETATM   12  O3  UNL     1      17.128 -15.171  26.682  1.00  0.00    -0.271 OA
HETATM   13  N3  UNL     1      16.906 -15.962  24.555  1.00  0.00    -0.346 N 
ATOM     14  H3  UNL     1      16.748 -15.053  24.120  1.00  0.00     0.163 HD
HETATM   15  C19 UNL     1      16.323 -17.041  23.820  1.00  0.00     0.177 C 
HETATM   16  C24 UNL     1      16.965 -17.339  22.518  1.00  0.00     0.241 C 
HETATM   17  O4  UNL     1      17.728 -18.350  22.459  1.00  0.00    -0.271 OA
HETATM   18  N4  UNL     1      16.804 -16.594  21.315  1.00  0.00    -0.347 N 
ATOM     19  H4  UNL     1      17.228 -16.988  20.475  1.00  0.00     0.163 HD
HETATM   20  C25 UNL     1      16.120 -15.372  21.163  1.00  0.00     0.159 C 
HETATM   21  C30 UNL     1      16.849 -14.121  21.084  1.00  0.00     0.141 C 
HETATM   22  N8  UNL     1      18.230 -13.827  20.947  1.00  0.00    -0.334 N 
HETATM   23  C31 UNL     1      18.692 -12.674  21.737  1.00  0.00     0.158 C 
ENDROOT
BRANCH  20  24
HETATM   24  C26 UNL     1      15.047 -15.392  20.079  1.00  0.00     0.035 C 
BRANCH  24  25
HETATM   25  C27 UNL     1      13.671 -15.635  20.576  1.00  0.00     0.022 C 
BRANCH  25  26
HETATM   26  C28 UNL     1      12.854 -14.378  20.396  1.00  0.00     0.122 C 
BRANCH  26  27
HETATM   27  N5  UNL     1      12.764 -13.607  21.618  1.00  0.00    -0.367 N 
HETATM   28  C29 UNL     1      12.996 -12.341  21.662  1.00  0.00     0.196 C 
HETATM   29  N6  UNL     1      12.880 -11.679  22.912  1.00  0.00    -0.067 NA
HETATM   30  N7  UNL     1      13.354 -11.659  20.479  1.00  0.00    -0.067 NA
ATOM     31  H5  UNL     1      12.505 -14.088  22.480  1.00  0.00     0.161 HD
ENDBRANCH  26  27
ENDBRANCH  25  26
ENDBRANCH  24  25
ENDBRANCH  20  24
BRANCH  21  32
HETATM   32  O5  UNL     1      16.025 -13.106  21.156  1.00  0.00    -0.348 OA
ATOM     33  H5  UNL     1      15.982 -12.653  20.323  1.00  0.00     0.219 HD
ENDBRANCH  21  32
BRANCH  15  34
HETATM   34  C20 UNL     1      16.060 -18.303  24.592  1.00  0.00     0.038 C 
BRANCH  34  35
HETATM   35  C21 UNL     1      14.667 -18.815  24.506  1.00  0.00    -0.020 C 
HETATM   36  C22 UNL     1      14.662 -19.980  23.533  1.00  0.00     0.009 C 
HETATM   37  C23 UNL     1      14.271 -19.346  25.870  1.00  0.00     0.009 C 
ENDBRANCH  34  35
ENDBRANCH  15  34
BRANCH   1  38
HETATM   38  C3  UNL     1      19.708 -13.645  18.990  1.00  0.00     0.036 C 
HETATM   39  C4  UNL     1      18.875 -13.633  17.754  1.00  0.00     0.016 C 
BRANCH  38  40
HETATM   40  C2  UNL     1      20.131 -12.275  19.378  1.00  0.00     0.006 C 
HETATM   41  C1  UNL     1      21.657 -12.138  19.403  1.00  0.00     0.006 C 
ENDBRANCH  38  40
ENDBRANCH   1  38
BRANCH   2  42
HETATM   42  O1  UNL     1      21.179 -15.507  19.833  1.00  0.00    -0.345 OA
ATOM     43  H1  UNL     1      21.992 -15.152  20.174  1.00  0.00     0.219 HD
ENDBRANCH   2  42
BRANCH  10  44
HETATM   44  C14 UNL     1      18.644 -17.332  27.335  1.00  0.00     0.038 C 
BRANCH  44  45
HETATM   45  C15 UNL     1      18.714 -18.793  27.111  1.00  0.00    -0.020 C 
HETATM   46  C16 UNL     1      19.948 -19.276  27.909  1.00  0.00     0.009 C 
HETATM   47  C17 UNL     1      17.575 -19.613  27.623  1.00  0.00     0.009 C 
ENDBRANCH  44  45
ENDBRANCH  10  44
BRANCH   5  48
HETATM   48  C8  UNL     1      21.724 -14.639  23.465  1.00  0.00     0.038 C 
BRANCH  48  49
HETATM   49  C9  UNL     1      21.595 -13.547  24.455  1.00  0.00    -0.020 C 
HETATM   50  C10 UNL     1      22.190 -13.880  25.806  1.00  0.00     0.009 C 
HETATM   51  C11 UNL     1      20.114 -13.294  24.689  1.00  0.00     0.009 C 
ENDBRANCH  48  49
ENDBRANCH   5  48
TORSDOF 14
ENDMDL
MODEL 2
REMARK VINA RESULT: -6.901241864      2.259      6.441
REMARK  14 active torsions:
REMARK  status: ('A' for Active; 'I' for Inactive)
REMARK    1  A    between atoms: C2_2  and  C3_3 
REMARK    2  A    between atoms: C3_3  and  C5_5 
REMARK    3  A    between atoms: C6_6  and  O1_7 
REMARK    4  A    between atoms: C7_11  and  C8_12 
REMARK    5  A    between atoms: C8_12  and  C9_13 
REMARK    6  A    between atoms: C13_20  and  C14_21 
REMARK    7  A    between atoms: C14_21  and  C15_22 
REMARK    8  A    between atoms: C19_29  and  C20_30 
REMARK    9  A    between atoms: C20_30  and  C21_31 
REMARK   10  A    between atoms: C25_38  and  C26_39 
REMARK   11  A    between atoms: C26_39  and  C27_40 
REMARK   12  A    between atoms: C27_40  and  C28_41 
REMARK   13  A    between atoms: C28_41  and  N5_42 
REMARK   14  A    between atoms: C30_47  and  O5_48 
ROOT
HETATM    1  C5  UNL     1      15.597 -18.200  22.105  1.00  0.00     0.067 C 
HETATM    2  C6  UNL     1      15.467 -17.088  23.045  1.00  0.00     0.160 C 
HETATM    3  N1  UNL     1      16.306 -16.106  23.511  1.00  0.00    -0.356 N 
ATOM      4  H1  UNL     1      15.977 -15.157  23.332  1.00  0.00     0.162 HD
HETATM    5  C7  UNL     1      17.577 -16.172  24.214  1.00  0.00     0.176 C 
HETATM    6  C12 UNL     1      18.094 -14.780  24.430  1.00  0.00     0.241 C 
HETATM    7  O2  UNL     1      17.428 -14.118  25.272  1.00  0.00    -0.271 OA
HETATM    8  N2  UNL     1      19.197 -14.177  23.807  1.00  0.00    -0.346 N 
ATOM      9  H2  UNL     1      18.997 -13.288  23.349  1.00  0.00     0.163 HD
HETATM   10  C13 UNL     1      20.553 -14.608  23.710  1.00  0.00     0.177 C 
HETATM   11  C18 UNL     1      20.882 -15.465  22.546  1.00  0.00     0.241 C 
HETATM   12  O3  UNL     1      22.091 -15.924  22.647  1.00  0.00    -0.271 OA
HETATM   13  N3  UNL     1      20.162 -15.839  21.433  1.00  0.00    -0.346 N 
ATOM     14  H3  UNL     1      20.038 -16.850  21.361  1.00  0.00     0.163 HD
HETATM   15  C19 UNL     1      19.551 -15.124  20.358  1.00  0.00     0.177 C 
HETATM   16  C24 UNL     1      18.069 -15.134  20.352  1.00  0.00     0.241 C 
HETATM   17  O4  UNL     1      17.476 -14.085  20.747  1.00  0.00    -0.271 OA
HETATM   18  N4  UNL     1      17.240 -16.216  19.941  1.00  0.00    -0.347 N 
ATOM     19  H4  UNL     1      16.238 -16.030  19.895  1.00  0.00     0.163 HD
HETATM   20  C25 UNL     1      17.659 -17.515  19.591  1.00  0.00     0.159 C 
HETATM   21  C30 UNL     1      17.529 -18.613  20.530  1.00  0.00     0.141 C 
HETATM   22  N8  UNL     1      16.866 -18.728  21.779  1.00  0.00    -0.334 N 
HETATM   23  C31 UNL     1      17.594 -19.515  22.787  1.00  0.00     0.158 C 
ENDROOT
BRANCH  20  24
HETATM   24  C26 UNL     1      17.174 -17.974  18.219  1.00  0.00     0.035 C 
BRANCH  24  25
HETATM   25  C27 UNL     1      16.018 -17.213  17.687  1.00  0.00     0.022 C 
BRANCH  25  26
HETATM   26  C28 UNL     1      14.741 -17.885  18.130  1.00  0.00     0.122 C 
BRANCH  26  27
HETATM   27  N5  UNL     1      13.989 -17.068  19.059  1.00  0.00    -0.367 N 
HETATM   28  C29 UNL     1      12.737 -17.254  19.296  1.00  0.00     0.196 C 
HETATM   29  N6  UNL     1      12.093 -16.396  20.225  1.00  0.00    -0.067 NA
HETATM   30  N7  UNL     1      12.050 -18.293  18.631  1.00  0.00    -0.067 NA
ATOM     31  H5  UNL     1      14.473 -16.314  19.546  1.00  0.00     0.161 HD
ENDBRANCH  26  27
ENDBRANCH  25  26
ENDBRANCH  24  25
ENDBRANCH  20  24
BRANCH  21  32
HETATM   32  O5  UNL     1      18.162 -19.670  20.087  1.00  0.00    -0.348 OA
ATOM     33  H5  UNL     1      18.860 -19.912  20.684  1.00  0.00     0.219 HD
ENDBRANCH  21  32
BRANCH  15  34
HETATM   34  C20 UNL     1      20.081 -13.742  20.094  1.00  0.00     0.038 C 
BRANCH  34  35
HETATM   35  C21 UNL     1      21.206 -13.673  19.126  1.00  0.00    -0.020 C 
HETATM   36  C22 UNL     1      20.696 -14.174  17.787  1.00  0.00     0.009 C 
HETATM   37  C23 UNL     1      21.602 -12.218  18.959  1.00  0.00     0.009 C 
ENDBRANCH  34  35
ENDBRANCH  15  34
BRANCH   1  38
HETATM   38  C3  UNL     1      14.545 -19.263  22.389  1.00  0.00     0.036 C 
HETATM   39  C4  UNL     1      14.219 -20.136  21.227  1.00  0.00     0.016 C 
BRANCH  38  40
HETATM   40  C2  UNL     1      14.754 -20.056  23.627  1.00  0.00     0.006 C 
HETATM   41  C1  UNL     1      13.427 -20.390  24.318  1.00  0.00     0.006 C 
ENDBRANCH  38  40
ENDBRANCH   1  38
BRANCH   2  42
HETATM   42  O1  UNL     1      14.255 -17.041  23.538  1.00  0.00    -0.345 OA
ATOM     43  H1  UNL     1      14.281 -16.914  24.479  1.00  0.00     0.219 HD
ENDBRANCH   2  42
BRANCH  10  44
HETATM   44  C14 UNL     1      21.554 -13.469  23.686  1.00  0.00     0.038 C 
BRANCH  44  45
HETATM   45  C15 UNL     1      22.149 -13.097  24.989  1.00  0.00    -0.020 C 
HETATM   46  C16 UNL     1      21.181 -12.059  25.605  1.00  0.00     0.009 C 
HETATM   47  C17 UNL     1      22.264 -14.177  26.014  1.00  0.00     0.009 C 
ENDBRANCH  44  45
ENDBRANCH  10  44
BRANCH   5  48
HETATM   48  C8  UNL     1      17.376 -16.706  25.633  1.00  0.00     0.038 C 
BRANCH  48  49
HETATM   49  C9  UNL     1      18.625 -17.049  26.348  1.00  0.00    -0.020 C 
HETATM   50  C10 UNL     1      19.619 -17.811  25.499  1.00  0.00     0.009 C 
HETATM   51  C11 UNL     1      18.268 -17.960  27.512  1.00  0.00     0.009 C 
ENDBRANCH  48  49
ENDBRANCH   5  48
TORSDOF 14
ENDMDL
MODEL 3
REMARK VINA RESULT: -6.865518610      2.338      6.858
REMARK  14 active torsions:
REMARK  status: ('A' for Active; 'I' for Inactive)
REMARK    1  A    between atoms: C2_2  and  C3_3 
REMARK    2  A    between atoms: C3_3  and  C5_5 
REMARK    3  A    between atoms: C6_6  and  O1_7 
REMARK    4  A    between atoms: C7_11  and  C8_12 
REMARK    5  A    between atoms: C8_12  and  C9_13 
REMARK    6  A    between atoms: C13_20  and  C14_21 
REMARK    7  A    between atoms: C14_21  and  C15_22 
REMARK    8  A    between atoms: C19_29  and  C20_30 
REMARK    9  A    between atoms: C20_30  and  C21_31 
REMARK   10  A    between atoms: C25_38  and  C26_39 
REMARK   11  A    between atoms: C26_39  and  C27_40 
REMARK   12  A    between atoms: C27_40  and  C28_41 
REMARK   13  A    between atoms: C28_41  and  N5_42 
REMARK   14  A    between atoms: C30_47  and  O5_48 
ROOT
HETATM    1  C5  UNL     1      20.045 -13.350  20.323  1.00  0.00     0.067 C 
HETATM    2  C6  UNL     1      18.625 -13.009  20.386  1.00  0.00     0.160 C 
HETATM    3  N1  UNL     1      17.505 -13.602  20.917  1.00  0.00    -0.356 N 
ATOM      4  H1  UNL     1      17.018 -13.031  21.608  1.00  0.00     0.162 HD
HETATM    5  C7  UNL     1      16.887 -14.895  20.674  1.00  0.00     0.176 C 
HETATM    6  C12 UNL     1      15.704 -15.056  21.582  1.00  0.00     0.241 C 
HETATM    7  O2  UNL     1      14.734 -14.306  21.287  1.00  0.00    -0.271 OA
HETATM    8  N2  UNL     1      15.587 -15.921  22.681  1.00  0.00    -0.346 N 
ATOM      9  H2  UNL     1      15.323 -15.468  23.556  1.00  0.00     0.163 HD
HETATM   10  C13 UNL     1      15.778 -17.331  22.771  1.00  0.00     0.177 C 
HETATM   11  C18 UNL     1      17.155 -17.783  23.082  1.00  0.00     0.241 C 
HETATM   12  O3  UNL     1      17.245 -19.072  22.981  1.00  0.00    -0.271 OA
HETATM   13  N3  UNL     1      18.298 -17.103  23.442  1.00  0.00    -0.346 N 
ATOM     14  H3  UNL     1      19.065 -17.235  22.782  1.00  0.00     0.163 HD
HETATM   15  C19 UNL     1      18.646 -16.254  24.538  1.00  0.00     0.177 C 
HETATM   16  C24 UNL     1      18.848 -14.827  24.193  1.00  0.00     0.241 C 
HETATM   17  O4  UNL     1      17.919 -14.016  24.488  1.00  0.00    -0.271 OA
HETATM   18  N4  UNL     1      19.996 -14.273  23.558  1.00  0.00    -0.347 N 
ATOM     19  H4  UNL     1      20.030 -13.256  23.484  1.00  0.00     0.163 HD
HETATM   20  C25 UNL     1      21.090 -14.982  23.022  1.00  0.00     0.159 C 
HETATM   21  C30 UNL     1      21.199 -15.204  21.593  1.00  0.00     0.141 C 
HETATM   22  N8  UNL     1      20.477 -14.685  20.488  1.00  0.00    -0.334 N 
HETATM   23  C31 UNL     1      20.212 -15.660  19.418  1.00  0.00     0.158 C 
ENDROOT
BRANCH  20  24
HETATM   24  C26 UNL     1      22.444 -14.532  23.561  1.00  0.00     0.035 C 
BRANCH  24  25
HETATM   25  C27 UNL     1      22.869 -15.211  24.809  1.00  0.00     0.022 C 
BRANCH  25  26
HETATM   26  C28 UNL     1      23.654 -16.450  24.452  1.00  0.00     0.122 C 
BRANCH  26  27
HETATM   27  N5  UNL     1      24.575 -16.216  23.361  1.00  0.00    -0.367 N 
HETATM   28  C29 UNL     1      25.829 -16.503  23.433  1.00  0.00     0.196 C 
HETATM   29  N6  UNL     1      26.647 -16.233  22.305  1.00  0.00    -0.067 NA
HETATM   30  N7  UNL     1      26.345 -17.070  24.618  1.00  0.00    -0.067 NA
ATOM     31  H5  UNL     1      24.216 -15.806  22.498  1.00  0.00     0.161 HD
ENDBRANCH  26  27
ENDBRANCH  25  26
ENDBRANCH  24  25
ENDBRANCH  20  24
BRANCH  21  32
HETATM   32  O5  UNL     1      22.163 -16.052  21.335  1.00  0.00    -0.348 OA
ATOM     33  H5  UNL     1      22.135 -16.318  20.424  1.00  0.00     0.219 HD
ENDBRANCH  21  32
BRANCH  15  34
HETATM   34  C20 UNL     1      17.809 -16.394  25.778  1.00  0.00     0.038 C 
BRANCH  34  35
HETATM   35  C21 UNL     1      18.325 -17.362  26.781  1.00  0.00    -0.020 C 
HETATM   36  C22 UNL     1      17.471 -18.613  26.697  1.00  0.00     0.009 C 
HETATM   37  C23 UNL     1      19.743 -17.738  26.392  1.00  0.00     0.009 C 
ENDBRANCH  34  35
ENDBRANCH  15  34
BRANCH   1  38
HETATM   38  C3  UNL     1      20.714 -12.626  19.163  1.00  0.00     0.036 C 
HETATM   39  C4  UNL     1      21.936 -11.859  19.537  1.00  0.00     0.016 C 
BRANCH  38  40
HETATM   40  C2  UNL     1      20.932 -13.441  17.941  1.00  0.00     0.006 C 
HETATM   41  C1  UNL     1      20.945 -12.574  16.677  1.00  0.00     0.006 C 
ENDBRANCH  38  40
ENDBRANCH   1  38
BRANCH   2  42
HETATM   42  O1  UNL     1      18.398 -11.864  19.793  1.00  0.00    -0.345 OA
ATOM     43  H1  UNL     1      17.643 -11.433  20.175  1.00  0.00     0.219 HD
ENDBRANCH   2  42
BRANCH  10  44
HETATM   44  C14 UNL     1      14.878 -18.004  23.788  1.00  0.00     0.038 C 
BRANCH  44  45
HETATM   45  C15 UNL     1      13.822 -18.885  23.241  1.00  0.00    -0.020 C 
HETATM   46  C16 UNL     1      13.901 -18.722  21.704  1.00  0.00     0.009 C 
HETATM   47  C17 UNL     1      13.969 -20.351  23.484  1.00  0.00     0.009 C 
ENDBRANCH  44  45
ENDBRANCH  10  44
BRANCH   5  48
HETATM   48  C8  UNL     1      16.274 -14.940  19.273  1.00  0.00     0.038 C 
BRANCH  48  49
HETATM   49  C9  UNL     1      17.179 -15.448  18.218  1.00  0.00    -0.020 C 
HETATM   50  C10 UNL     1      17.478 -14.433  17.136  1.00  0.00     0.009 C 
HETATM   51  C11 UNL     1      16.493 -16.618  17.531  1.00  0.00     0.009 C 
ENDBRANCH  48  49
ENDBRANCH   5  48
TORSDOF 14
ENDMDL
MODEL 4
REMARK VINA RESULT: -6.772811991      1.887      2.230
REMARK  14 active torsions:
REMARK  status: ('A' for Active; 'I' for Inactive)
REMARK    1  A    between atoms: C2_2  and  C3_3 
REMARK    2  A    between atoms: C3_3  and  C5_5 
REMARK    3  A    between atoms: C6_6  and  O1_7 
REMARK    4  A    between atoms: C7_11  and  C8_12 
REMARK    5  A    between atoms: C8_12  and  C9_13 
REMARK    6  A    between atoms: C13_20  and  C14_21 
REMARK    7  A    between atoms: C14_21  and  C15_22 
REMARK    8  A    between atoms: C19_29  and  C20_30 
REMARK    9  A    between atoms: C20_30  and  C21_31 
REMARK   10  A    between atoms: C25_38  and  C26_39 
REMARK   11  A    between atoms: C26_39  and  C27_40 
REMARK   12  A    between atoms: C27_40  and  C28_41 
REMARK   13  A    between atoms: C28_41  and  N5_42 
REMARK   14  A    between atoms: C30_47  and  O5_48 
ROOT
HETATM    1  C5  UNL     1      20.309 -15.091  20.584  1.00  0.00     0.067 C 
HETATM    2  C6  UNL     1      21.118 -16.055  21.329  1.00  0.00     0.160 C 
HETATM    3  N1  UNL     1      21.012 -16.677  22.549  1.00  0.00    -0.356 N 
ATOM      4  H1  UNL     1      20.995 -17.695  22.497  1.00  0.00     0.162 HD
HETATM    5  C7  UNL     1      20.919 -16.148  23.900  1.00  0.00     0.176 C 
HETATM    6  C12 UNL     1      20.757 -17.286  24.865  1.00  0.00     0.241 C 
HETATM    7  O2  UNL     1      21.794 -17.993  24.992  1.00  0.00    -0.271 OA
HETATM    8  N2  UNL     1      19.610 -17.620  25.600  1.00  0.00    -0.346 N 
ATOM      9  H2  UNL     1      19.293 -18.582  25.485  1.00  0.00     0.163 HD
HETATM   10  C13 UNL     1      18.816 -16.830  26.483  1.00  0.00     0.177 C 
HETATM   11  C18 UNL     1      17.700 -16.080  25.859  1.00  0.00     0.241 C 
HETATM   12  O3  UNL     1      17.152 -15.279  26.720  1.00  0.00    -0.271 OA
HETATM   13  N3  UNL     1      17.170 -16.086  24.587  1.00  0.00    -0.346 N 
ATOM     14  H3  UNL     1      17.223 -15.176  24.130  1.00  0.00     0.163 HD
HETATM   15  C19 UNL     1      16.564 -17.088  23.768  1.00  0.00     0.177 C 
HETATM   16  C24 UNL     1      17.360 -17.511  22.593  1.00  0.00     0.241 C 
HETATM   17  O4  UNL     1      17.964 -18.624  22.665  1.00  0.00    -0.271 OA
HETATM   18  N4  UNL     1      17.512 -16.785  21.378  1.00  0.00    -0.347 N 
ATOM     19  H4  UNL     1      18.006 -17.258  20.622  1.00  0.00     0.163 HD
HETATM   20  C25 UNL     1      17.052 -15.480  21.111  1.00  0.00     0.159 C 
HETATM   21  C30 UNL     1      17.961 -14.351  21.152  1.00  0.00     0.141 C 
HETATM   22  N8  UNL     1      19.374 -14.266  21.248  1.00  0.00    -0.334 N 
HETATM   23  C31 UNL     1      19.865 -13.171  22.100  1.00  0.00     0.158 C 
ENDROOT
BRANCH  20  24
HETATM   24  C26 UNL     1      16.182 -15.373  19.862  1.00  0.00     0.035 C 
BRANCH  24  25
HETATM   25  C27 UNL     1      16.793 -15.935  18.634  1.00  0.00     0.022 C 
BRANCH  25  26
HETATM   26  C28 UNL     1      17.236 -14.801  17.741  1.00  0.00     0.122 C 
BRANCH  26  27
HETATM   27  N5  UNL     1      16.574 -13.557  18.072  1.00  0.00    -0.367 N 
HETATM   28  C29 UNL     1      17.004 -12.411  17.671  1.00  0.00     0.196 C 
HETATM   29  N6  UNL     1      16.280 -11.250  18.051  1.00  0.00    -0.067 NA
HETATM   30  N7  UNL     1      18.168 -12.344  16.876  1.00  0.00    -0.067 NA
ATOM     31  H5  UNL     1      15.731 -13.591  18.646  1.00  0.00     0.161 HD
ENDBRANCH  26  27
ENDBRANCH  25  26
ENDBRANCH  24  25
ENDBRANCH  20  24
BRANCH  21  32
HETATM   32  O5  UNL     1      17.296 -13.226  21.083  1.00  0.00    -0.348 OA
ATOM     33  H5  UNL     1      16.365 -13.395  20.994  1.00  0.00     0.219 HD
ENDBRANCH  21  32
BRANCH  15  34
HETATM   34  C20 UNL     1      15.993 -18.277  24.488  1.00  0.00     0.038 C 
BRANCH  34  35
HETATM   35  C21 UNL     1      14.536 -18.495  24.288  1.00  0.00    -0.020 C 
HETATM   36  C22 UNL     1      14.359 -19.290  23.008  1.00  0.00     0.009 C 
HETATM   37  C23 UNL     1      14.019 -19.340  25.437  1.00  0.00     0.009 C 
ENDBRANCH  34  35
ENDBRANCH  15  34
BRANCH   1  38
HETATM   38  C3  UNL     1      21.165 -14.354  19.565  1.00  0.00     0.036 C 
HETATM   39  C4  UNL     1      20.736 -14.538  18.150  1.00  0.00     0.016 C 
BRANCH  38  40
HETATM   40  C2  UNL     1      21.439 -12.926  19.871  1.00  0.00     0.006 C 
HETATM   41  C1  UNL     1      21.568 -12.086  18.596  1.00  0.00     0.006 C 
ENDBRANCH  38  40
ENDBRANCH   1  38
BRANCH   2  42
HETATM   42  O1  UNL     1      22.185 -16.386  20.646  1.00  0.00    -0.345 OA
ATOM     43  H1  UNL     1      22.970 -16.061  21.072  1.00  0.00     0.219 HD
ENDBRANCH   2  42
BRANCH  10  44
HETATM   44  C14 UNL     1      18.203 -17.619  27.623  1.00  0.00     0.038 C 
BRANCH  44  45
HETATM   45  C15 UNL     1      18.300 -19.092  27.521  1.00  0.00    -0.020 C 
HETATM   46  C16 UNL     1      19.188 -19.532  28.709  1.00  0.00     0.009 C 
HETATM   47  C17 UNL     1      17.033 -19.868  27.675  1.00  0.00     0.009 C 
ENDBRANCH  44  45
ENDBRANCH  10  44
BRANCH   5  48
HETATM   48  C8  UNL     1      22.244 -15.509  24.316  1.00  0.00     0.038 C 
BRANCH  48  49
HETATM   49  C9  UNL     1      22.114 -14.353  25.231  1.00  0.00    -0.020 C 
HETATM   50  C10 UNL     1      20.681 -14.005  25.568  1.00  0.00     0.009 C 
HETATM   51  C11 UNL     1      22.700 -13.134  24.538  1.00  0.00     0.009 C 
ENDBRANCH  48  49
ENDBRANCH   5  48
TORSDOF 14
ENDMDL
MODEL 5
REMARK VINA RESULT: -6.723432992      2.155      5.432
REMARK  14 active torsions:
REMARK  status: ('A' for Active; 'I' for Inactive)
REMARK    1  A    between atoms: C2_2  and  C3_3 
REMARK    2  A    between atoms: C3_3  and  C5_5 
REMARK    3  A    between atoms: C6_6  and  O1_7 
REMARK    4  A    between atoms: C7_11  and  C8_12 
REMARK    5  A    between atoms: C8_12  and  C9_13 
REMARK    6  A    between atoms: C13_20  and  C14_21 
REMARK    7  A    between atoms: C14_21  and  C15_22 
REMARK    8  A    between atoms: C19_29  and  C20_30 
REMARK    9  A    between atoms: C20_30  and  C21_31 
REMARK   10  A    between atoms: C25_38  and  C26_39 
REMARK   11  A    between atoms: C26_39  and  C27_40 
REMARK   12  A    between atoms: C27_40  and  C28_41 
REMARK   13  A    between atoms: C28_41  and  N5_42 
REMARK   14  A    between atoms: C30_47  and  O5_48 
ROOT
HETATM    1  C5  UNL     1      17.104 -15.732  19.907  1.00  0.00     0.067 C 
HETATM    2  C6  UNL     1      16.044 -16.054  20.860  1.00  0.00     0.160 C 
HETATM    3  N1  UNL     1      16.003 -16.403  22.188  1.00  0.00    -0.356 N 
ATOM      4  H1  UNL     1      15.457 -15.768  22.770  1.00  0.00     0.162 HD
HETATM    5  C7  UNL     1      16.598 -17.512  22.916  1.00  0.00     0.176 C 
HETATM    6  C12 UNL     1      16.280 -17.372  24.376  1.00  0.00     0.241 C 
HETATM    7  O2  UNL     1      15.066 -17.572  24.651  1.00  0.00    -0.271 OA
HETATM    8  N2  UNL     1      17.170 -17.049  25.411  1.00  0.00    -0.346 N 
ATOM      9  H2  UNL     1      16.890 -16.252  25.983  1.00  0.00     0.163 HD
HETATM   10  C13 UNL     1      18.402 -17.656  25.794  1.00  0.00     0.177 C 
HETATM   11  C18 UNL     1      19.620 -17.127  25.135  1.00  0.00     0.241 C 
HETATM   12  O3  UNL     1      20.652 -17.853  25.435  1.00  0.00    -0.271 OA
HETATM   13  N3  UNL     1      19.834 -16.051  24.301  1.00  0.00    -0.346 N 
ATOM     14  H3  UNL     1      20.206 -16.322  23.390  1.00  0.00     0.163 HD
HETATM   15  C19 UNL     1      19.651 -14.640  24.432  1.00  0.00     0.177 C 
HETATM   16  C24 UNL     1      18.565 -14.064  23.604  1.00  0.00     0.241 C 
HETATM   17  O4  UNL     1      17.477 -13.771  24.188  1.00  0.00    -0.271 OA
HETATM   18  N4  UNL     1      18.625 -13.803  22.206  1.00  0.00    -0.347 N 
ATOM     19  H4  UNL     1      17.832 -13.306  21.801  1.00  0.00     0.163 HD
HETATM   20  C25 UNL     1      19.665 -14.159  21.325  1.00  0.00     0.159 C 
HETATM   21  C30 UNL     1      19.535 -15.311  20.453  1.00  0.00     0.141 C 
HETATM   22  N8  UNL     1      18.434 -16.149  20.135  1.00  0.00    -0.334 N 
HETATM   23  C31 UNL     1      18.770 -17.575  20.002  1.00  0.00     0.158 C 
ENDROOT
BRANCH  20  24
HETATM   24  C26 UNL     1      20.225 -12.990  20.521  1.00  0.00     0.035 C 
BRANCH  24  25
HETATM   25  C27 UNL     1      19.253 -11.901  20.256  1.00  0.00     0.022 C 
BRANCH  25  26
HETATM   26  C28 UNL     1      18.420 -12.268  19.052  1.00  0.00     0.122 C 
BRANCH  26  27
HETATM   27  N5  UNL     1      17.009 -12.039  19.277  1.00  0.00    -0.367 N 
HETATM   28  C29 UNL     1      16.233 -11.531  18.382  1.00  0.00     0.196 C 
HETATM   29  N6  UNL     1      14.863 -11.347  18.704  1.00  0.00    -0.067 NA
HETATM   30  N7  UNL     1      16.765 -11.175  17.123  1.00  0.00    -0.067 NA
ATOM     31  H5  UNL     1      16.611 -12.291  20.182  1.00  0.00     0.161 HD
ENDBRANCH  26  27
ENDBRANCH  25  26
ENDBRANCH  24  25
ENDBRANCH  20  24
BRANCH  21  32
HETATM   32  O5  UNL     1      20.680 -15.582  19.880  1.00  0.00    -0.348 OA
ATOM     33  H5  UNL     1      20.740 -16.509  19.680  1.00  0.00     0.219 HD
ENDBRANCH  21  32
BRANCH  15  34
HETATM   34  C20 UNL     1      19.600 -14.104  25.835  1.00  0.00     0.038 C 
BRANCH  34  35
HETATM   35  C21 UNL     1      20.813 -13.364  26.271  1.00  0.00    -0.020 C 
HETATM   36  C22 UNL     1      22.001 -14.296  26.125  1.00  0.00     0.009 C 
HETATM   37  C23 UNL     1      21.020 -12.194  25.327  1.00  0.00     0.009 C 
ENDBRANCH  34  35
ENDBRANCH  15  34
BRANCH   1  38
HETATM   38  C3  UNL     1      16.624 -15.961  18.481  1.00  0.00     0.036 C 
HETATM   39  C4  UNL     1      17.289 -15.104  17.460  1.00  0.00     0.016 C 
BRANCH  38  40
HETATM   40  C2  UNL     1      16.563 -17.381  18.047  1.00  0.00     0.006 C 
HETATM   41  C1  UNL     1      15.846 -17.532  16.701  1.00  0.00     0.006 C 
ENDBRANCH  38  40
ENDBRANCH   1  38
BRANCH   2  42
HETATM   42  O1  UNL     1      14.870 -15.980  20.287  1.00  0.00    -0.345 OA
ATOM     43  H1  UNL     1      14.541 -15.089  20.309  1.00  0.00     0.219 HD
ENDBRANCH   2  42
BRANCH  10  44
HETATM   44  C14 UNL     1      18.674 -17.596  27.284  1.00  0.00     0.038 C 
BRANCH  44  45
HETATM   45  C15 UNL     1      18.222 -18.761  28.076  1.00  0.00    -0.020 C 
HETATM   46  C16 UNL     1      18.351 -19.979  27.131  1.00  0.00     0.009 C 
HETATM   47  C17 UNL     1      19.029 -19.117  29.281  1.00  0.00     0.009 C 
ENDBRANCH  44  45
ENDBRANCH  10  44
BRANCH   5  48
HETATM   48  C8  UNL     1      15.924 -18.829  22.526  1.00  0.00     0.038 C 
BRANCH  48  49
HETATM   49  C9  UNL     1      16.847 -19.977  22.381  1.00  0.00    -0.020 C 
HETATM   50  C10 UNL     1      16.732 -20.682  21.047  1.00  0.00     0.009 C 
HETATM   51  C11 UNL     1      16.491 -21.005  23.443  1.00  0.00     0.009 C 
ENDBRANCH  48  49
ENDBRANCH   5  48
TORSDOF 14
ENDMDL
