MODEL 1
REMARK VINA RESULT: -12.031252089      0.000      0.000
REMARK  7 active torsions:
REMARK  status: ('A' for Active; 'I' for Inactive)
REMARK       I    between atoms: C1_2  and  N1_3 
REMARK       I    between atoms: C1_2  and  N2_11 
REMARK    1  A    between atoms: N1_3  and  C2_5 
REMARK    2  A    between atoms: N2_11  and  C8_13 
REMARK    3  A    between atoms: C12_17  and  C13_18 
REMARK    4  A    between atoms: C17_22  and  N3_23 
REMARK    5  A    between atoms: N3_23  and  C18_24 
REMARK    6  A    between atoms: C18_24  and  O2_25 
REMARK    7  A    between atoms: C18_24  and  C19_27 
ROOT
HETATM    1  C8  UNL     1      60.645   2.360  -5.812  1.00  0.00     0.037 A 
HETATM    2  C9  UNL     1      59.558   1.716  -5.215  1.00  0.00     0.029 A 
HETATM    3  C10 UNL     1      58.813   2.369  -4.274  1.00  0.00     0.003 A 
HETATM    4  C11 UNL     1      59.091   3.662  -3.879  1.00  0.00     0.012 A 
HETATM    5  C12 UNL     1      60.160   4.303  -4.472  1.00  0.00    -0.024 A 
HETATM    6  C25 UNL     1      60.914   3.641  -5.425  1.00  0.00     0.042 A 
ENDROOT
BRANCH   5   7
HETATM    7  C13 UNL     1      60.480   5.626  -3.946  1.00  0.00    -0.023 A 
HETATM    8  C14 UNL     1      61.310   6.446  -4.656  1.00  0.00     0.012 A 
HETATM    9  C15 UNL     1      61.721   7.628  -4.113  1.00  0.00     0.004 A 
HETATM   10  C16 UNL     1      61.341   8.044  -2.875  1.00  0.00     0.045 A 
HETATM   11  C17 UNL     1      60.498   7.257  -2.086  1.00  0.00     0.111 A 
HETATM   12  C24 UNL     1      60.097   6.034  -2.711  1.00  0.00     0.057 A 
BRANCH  11  13
HETATM   13  N3  UNL     1      60.230   7.434  -0.777  1.00  0.00    -0.380 NA
BRANCH  13  14
HETATM   14  C18 UNL     1      59.963   7.611   0.522  1.00  0.00     0.229 C 
BRANCH  14  15
HETATM   15  O2  UNL     1      58.822   8.085   0.950  1.00  0.00    -0.335 OA
ATOM     16  H2  UNL     1      58.712   8.988   1.226  1.00  0.00     0.220 HD
ENDBRANCH  14  15
BRANCH  14  17
HETATM   17  C19 UNL     1      60.870   7.306   1.673  1.00  0.00     0.085 A 
HETATM   18  C20 UNL     1      60.881   8.184   2.752  1.00  0.00     0.023 A 
HETATM   19  C21 UNL     1      61.674   7.856   3.848  1.00  0.00     0.018 A 
HETATM   20  C22 UNL     1      62.427   6.705   3.878  1.00  0.00     0.090 A 
HETATM   21  N4  UNL     1      62.392   5.878   2.815  1.00  0.00    -0.342 N 
HETATM   22  C23 UNL     1      61.610   6.197   1.728  1.00  0.00     0.203 A 
ATOM     23  H4  UNL     1      62.943   5.020   2.815  1.00  0.00     0.167 HD
HETATM   24  F1  UNL     1      61.713   5.302   0.725  1.00  0.00    -0.185 F 
ENDBRANCH  14  17
ENDBRANCH  13  14
ENDBRANCH  11  13
ENDBRANCH   5   7
BRANCH   1  25
HETATM   25  N2  UNL     1      61.484   1.625  -6.671  1.00  0.00    -0.309 N 
HETATM   26  C1  UNL     1      62.805   1.227  -6.223  1.00  0.00     0.325 C 
HETATM   27  O1  UNL     1      63.169   1.558  -5.084  1.00  0.00    -0.247 OA
HETATM   28  N1  UNL     1      63.698   0.478  -7.043  1.00  0.00    -0.309 N 
ATOM     29  H1  UNL     1      63.417   0.180  -7.978  1.00  0.00     0.170 HD
ATOM     30  H2  UNL     1      61.164   1.374  -7.606  1.00  0.00     0.170 HD
BRANCH  28  31
HETATM   31  C2  UNL     1      64.990   0.152  -6.534  1.00  0.00     0.036 A 
HETATM   32  C3  UNL     1      65.300  -0.950  -5.796  1.00  0.00     0.029 A 
HETATM   33  C4  UNL     1      66.581  -1.213  -5.351  1.00  0.00     0.002 A 
HETATM   34  C5  UNL     1      67.558  -0.320  -5.675  1.00  0.00     0.000 A 
HETATM   35  C6  UNL     1      67.279   0.790  -6.412  1.00  0.00     0.002 A 
HETATM   36  C7  UNL     1      66.009   1.047  -6.851  1.00  0.00     0.029 A 
ENDBRANCH  28  31
ENDBRANCH   1  25
TORSDOF 7
ENDMDL
MODEL 2
REMARK VINA RESULT: -12.009644103      1.570      2.135
REMARK  7 active torsions:
REMARK  status: ('A' for Active; 'I' for Inactive)
REMARK       I    between atoms: C1_2  and  N1_3 
REMARK       I    between atoms: C1_2  and  N2_11 
REMARK    1  A    between atoms: N1_3  and  C2_5 
REMARK    2  A    between atoms: N2_11  and  C8_13 
REMARK    3  A    between atoms: C12_17  and  C13_18 
REMARK    4  A    between atoms: C17_22  and  N3_23 
REMARK    5  A    between atoms: N3_23  and  C18_24 
REMARK    6  A    between atoms: C18_24  and  O2_25 
REMARK    7  A    between atoms: C18_24  and  C19_27 
ROOT
HETATM    1  C8  UNL     1      61.375   1.032  -6.441  1.00  0.00     0.037 A 
HETATM    2  C9  UNL     1      60.215   0.529  -5.849  1.00  0.00     0.029 A 
HETATM    3  C10 UNL     1      59.355   1.375  -5.207  1.00  0.00     0.003 A 
HETATM    4  C11 UNL     1      59.587   2.732  -5.117  1.00  0.00     0.012 A 
HETATM    5  C12 UNL     1      60.729   3.234  -5.707  1.00  0.00    -0.024 A 
HETATM    6  C25 UNL     1      61.599   2.376  -6.356  1.00  0.00     0.042 A 
ENDROOT
BRANCH   5   7
HETATM    7  C13 UNL     1      60.985   4.655  -5.492  1.00  0.00    -0.023 A 
HETATM    8  C14 UNL     1      61.727   5.347  -6.406  1.00  0.00     0.012 A 
HETATM    9  C15 UNL     1      62.083   6.639  -6.150  1.00  0.00     0.004 A 
HETATM   10  C16 UNL     1      61.732   7.290  -5.009  1.00  0.00     0.045 A 
HETATM   11  C17 UNL     1      60.978   6.646  -4.024  1.00  0.00     0.111 A 
HETATM   12  C24 UNL     1      60.630   5.297  -4.351  1.00  0.00     0.057 A 
BRANCH  11  13
HETATM   13  N3  UNL     1      60.757   7.086  -2.769  1.00  0.00    -0.380 NA
BRANCH  13  14
HETATM   14  C18 UNL     1      60.537   7.524  -1.524  1.00  0.00     0.229 C 
BRANCH  14  15
HETATM   15  O2  UNL     1      60.239   8.768  -1.255  1.00  0.00    -0.335 OA
ATOM     16  H2  UNL     1      60.900   9.440  -1.135  1.00  0.00     0.220 HD
ENDBRANCH  14  15
BRANCH  14  17
HETATM   17  C19 UNL     1      60.577   6.710  -0.268  1.00  0.00     0.085 A 
HETATM   18  C20 UNL     1      59.956   7.222   0.867  1.00  0.00     0.023 A 
HETATM   19  C21 UNL     1      59.937   6.429   2.010  1.00  0.00     0.018 A 
HETATM   20  C22 UNL     1      60.509   5.177   2.034  1.00  0.00     0.090 A 
HETATM   21  N4  UNL     1      61.101   4.714   0.916  1.00  0.00    -0.342 N 
HETATM   22  C23 UNL     1      61.124   5.494  -0.218  1.00  0.00     0.203 A 
ATOM     23  H4  UNL     1      61.532   3.790   0.910  1.00  0.00     0.167 HD
HETATM   24  F1  UNL     1      61.791   4.919  -1.240  1.00  0.00    -0.185 F 
ENDBRANCH  14  17
ENDBRANCH  13  14
ENDBRANCH  11  13
ENDBRANCH   5   7
BRANCH   1  25
HETATM   25  N2  UNL     1      62.317   0.130  -6.971  1.00  0.00    -0.309 N 
HETATM   26  C1  UNL     1      63.609  -0.025  -6.330  1.00  0.00     0.325 C 
HETATM   27  O1  UNL     1      63.857   0.659  -5.325  1.00  0.00    -0.247 OA
HETATM   28  N1  UNL     1      64.601  -0.926  -6.815  1.00  0.00    -0.309 N 
ATOM     29  H1  UNL     1      64.416  -1.511  -7.630  1.00  0.00     0.170 HD
ATOM     30  H2  UNL     1      62.091  -0.413  -7.804  1.00  0.00     0.170 HD
BRANCH  28  31
HETATM   31  C2  UNL     1      65.856  -0.996  -6.140  1.00  0.00     0.036 A 
HETATM   32  C3  UNL     1      66.905  -0.146  -6.319  1.00  0.00     0.029 A 
HETATM   33  C4  UNL     1      68.087  -0.261  -5.614  1.00  0.00     0.002 A 
HETATM   34  C5  UNL     1      68.185  -1.274  -4.708  1.00  0.00     0.000 A 
HETATM   35  C6  UNL     1      67.153  -2.139  -4.505  1.00  0.00     0.002 A 
HETATM   36  C7  UNL     1      65.984  -2.021  -5.206  1.00  0.00     0.029 A 
ENDBRANCH  28  31
ENDBRANCH   1  25
TORSDOF 7
ENDMDL
MODEL 3
REMARK VINA RESULT: -11.974761310      1.944      2.596
REMARK  7 active torsions:
REMARK  status: ('A' for Active; 'I' for Inactive)
REMARK       I    between atoms: C1_2  and  N1_3 
REMARK       I    between atoms: C1_2  and  N2_11 
REMARK    1  A    between atoms: N1_3  and  C2_5 
REMARK    2  A    between atoms: N2_11  and  C8_13 
REMARK    3  A    between atoms: C12_17  and  C13_18 
REMARK    4  A    between atoms: C17_22  and  N3_23 
REMARK    5  A    between atoms: N3_23  and  C18_24 
REMARK    6  A    between atoms: C18_24  and  O2_25 
REMARK    7  A    between atoms: C18_24  and  C19_27 
ROOT
HETATM    1  C8  UNL     1      63.414   2.750  -7.283  1.00  0.00     0.037 A 
HETATM    2  C9  UNL     1      62.361   1.876  -7.562  1.00  0.00     0.029 A 
HETATM    3  C10 UNL     1      61.116   2.125  -7.057  1.00  0.00     0.003 A 
HETATM    4  C11 UNL     1      60.847   3.225  -6.268  1.00  0.00     0.012 A 
HETATM    5  C12 UNL     1      61.885   4.094  -5.995  1.00  0.00    -0.024 A 
HETATM    6  C25 UNL     1      63.144   3.840  -6.507  1.00  0.00     0.042 A 
ENDROOT
BRANCH   5   7
HETATM    7  C13 UNL     1      61.578   5.180  -5.070  1.00  0.00    -0.023 A 
HETATM    8  C14 UNL     1      61.596   6.469  -5.522  1.00  0.00     0.012 A 
HETATM    9  C15 UNL     1      61.442   7.498  -4.639  1.00  0.00     0.004 A 
HETATM   10  C16 UNL     1      61.268   7.307  -3.304  1.00  0.00     0.045 A 
HETATM   11  C17 UNL     1      61.243   6.017  -2.766  1.00  0.00     0.111 A 
HETATM   12  C24 UNL     1      61.403   4.981  -3.740  1.00  0.00     0.057 A 
BRANCH  11  13
HETATM   13  N3  UNL     1      61.305   5.693  -1.459  1.00  0.00    -0.380 NA
BRANCH  13  14
HETATM   14  C18 UNL     1      61.369   5.371  -0.162  1.00  0.00     0.229 C 
BRANCH  14  15
HETATM   15  O2  UNL     1      61.614   4.155   0.252  1.00  0.00    -0.335 OA
ATOM     16  H2  UNL     1      62.466   3.885   0.577  1.00  0.00     0.220 HD
ENDBRANCH  14  15
BRANCH  14  17
HETATM   17  C19 UNL     1      61.192   6.296   1.001  1.00  0.00     0.085 A 
HETATM   18  C20 UNL     1      61.953   6.070   2.143  1.00  0.00     0.023 A 
HETATM   19  C21 UNL     1      61.833   6.975   3.194  1.00  0.00     0.018 A 
HETATM   20  C22 UNL     1      60.995   8.064   3.119  1.00  0.00     0.090 A 
HETATM   21  N4  UNL     1      60.273   8.251   1.998  1.00  0.00    -0.342 N 
HETATM   22  C23 UNL     1      60.386   7.359   0.956  1.00  0.00     0.203 A 
ATOM     23  H4  UNL     1      59.644   9.051   1.921  1.00  0.00     0.167 HD
HETATM   24  F1  UNL     1      59.569   7.650  -0.078  1.00  0.00    -0.185 F 
ENDBRANCH  14  17
ENDBRANCH  13  14
ENDBRANCH  11  13
ENDBRANCH   5   7
BRANCH   1  25
HETATM   25  N2  UNL     1      64.715   2.402  -7.691  1.00  0.00    -0.309 N 
HETATM   26  C1  UNL     1      65.394   1.282  -7.065  1.00  0.00     0.325 C 
HETATM   27  O1  UNL     1      64.805   0.659  -6.168  1.00  0.00    -0.247 OA
HETATM   28  N1  UNL     1      66.708   0.877  -7.439  1.00  0.00    -0.309 N 
ATOM     29  H1  UNL     1      67.208   1.362  -8.184  1.00  0.00     0.170 HD
ATOM     30  H2  UNL     1      65.180   2.935  -8.425  1.00  0.00     0.170 HD
BRANCH  28  31
HETATM   31  C2  UNL     1      67.311  -0.218  -6.752  1.00  0.00     0.036 A 
HETATM   32  C3  UNL     1      67.647  -0.243  -5.432  1.00  0.00     0.029 A 
HETATM   33  C4  UNL     1      68.211  -1.349  -4.827  1.00  0.00     0.002 A 
HETATM   34  C5  UNL     1      68.434  -2.448  -5.602  1.00  0.00     0.000 A 
HETATM   35  C6  UNL     1      68.108  -2.454  -6.924  1.00  0.00     0.002 A 
HETATM   36  C7  UNL     1      67.548  -1.356  -7.519  1.00  0.00     0.029 A 
ENDBRANCH  28  31
ENDBRANCH   1  25
TORSDOF 7
ENDMDL
MODEL 4
REMARK VINA RESULT: -11.658660005      1.809      2.418
REMARK  7 active torsions:
REMARK  status: ('A' for Active; 'I' for Inactive)
REMARK       I    between atoms: C1_2  and  N1_3 
REMARK       I    between atoms: C1_2  and  N2_11 
REMARK    1  A    between atoms: N1_3  and  C2_5 
REMARK    2  A    between atoms: N2_11  and  C8_13 
REMARK    3  A    between atoms: C12_17  and  C13_18 
REMARK    4  A    between atoms: C17_22  and  N3_23 
REMARK    5  A    between atoms: N3_23  and  C18_24 
REMARK    6  A    between atoms: C18_24  and  O2_25 
REMARK    7  A    between atoms: C18_24  and  C19_27 
ROOT
HETATM    1  C8  UNL     1      61.767   0.813  -6.934  1.00  0.00     0.037 A 
HETATM    2  C9  UNL     1      60.587   0.089  -6.745  1.00  0.00     0.029 A 
HETATM    3  C10 UNL     1      59.528   0.668  -6.105  1.00  0.00     0.003 A 
HETATM    4  C11 UNL     1      59.572   1.962  -5.627  1.00  0.00     0.012 A 
HETATM    5  C12 UNL     1      60.735   2.682  -5.818  1.00  0.00    -0.024 A 
HETATM    6  C25 UNL     1      61.806   2.095  -6.466  1.00  0.00     0.042 A 
ENDROOT
BRANCH   5   7
HETATM    7  C13 UNL     1      60.772   4.004  -5.202  1.00  0.00    -0.023 A 
HETATM    8  C14 UNL     1      60.909   5.108  -5.994  1.00  0.00     0.012 A 
HETATM    9  C15 UNL     1      61.078   6.336  -5.422  1.00  0.00     0.004 A 
HETATM   10  C16 UNL     1      61.119   6.524  -4.076  1.00  0.00     0.045 A 
HETATM   11  C17 UNL     1      60.991   5.442  -3.200  1.00  0.00     0.111 A 
HETATM   12  C24 UNL     1      60.811   4.184  -3.858  1.00  0.00     0.057 A 
BRANCH  11  13
HETATM   13  N3  UNL     1      61.236   5.451  -1.874  1.00  0.00    -0.380 NA
BRANCH  13  14
HETATM   14  C18 UNL     1      61.478   5.459  -0.559  1.00  0.00     0.229 C 
BRANCH  14  15
HETATM   15  O2  UNL     1      62.149   4.512   0.042  1.00  0.00    -0.335 OA
ATOM     16  H2  UNL     1      62.838   4.691   0.672  1.00  0.00     0.220 HD
ENDBRANCH  14  15
BRANCH  14  17
HETATM   17  C19 UNL     1      61.056   6.507   0.423  1.00  0.00     0.085 A 
HETATM   18  C20 UNL     1      61.528   6.414   1.728  1.00  0.00     0.023 A 
HETATM   19  C21 UNL     1      61.188   7.430   2.617  1.00  0.00     0.018 A 
HETATM   20  C22 UNL     1      60.411   8.499   2.232  1.00  0.00     0.090 A 
HETATM   21  N4  UNL     1      59.971   8.556   0.959  1.00  0.00    -0.342 N 
HETATM   22  C23 UNL     1      60.303   7.554   0.077  1.00  0.00     0.203 A 
ATOM     23  H4  UNL     1      59.393   9.338   0.652  1.00  0.00     0.167 HD
HETATM   24  F1  UNL     1      59.753   7.723  -1.143  1.00  0.00    -0.185 F 
ENDBRANCH  14  17
ENDBRANCH  13  14
ENDBRANCH  11  13
ENDBRANCH   5   7
BRANCH   1  25
HETATM   25  N2  UNL     1      62.892   0.156  -7.465  1.00  0.00    -0.309 N 
HETATM   26  C1  UNL     1      64.007  -0.184  -6.600  1.00  0.00     0.325 C 
HETATM   27  O1  UNL     1      63.941   0.128  -5.401  1.00  0.00    -0.247 OA
HETATM   28  N1  UNL     1      65.170  -0.854  -7.078  1.00  0.00    -0.309 N 
ATOM     29  H1  UNL     1      65.242  -1.136  -8.056  1.00  0.00     0.170 HD
ATOM     30  H2  UNL     1      62.924  -0.081  -8.457  1.00  0.00     0.170 HD
BRANCH  28  31
HETATM   31  C2  UNL     1      66.231  -1.126  -6.163  1.00  0.00     0.036 A 
HETATM   32  C3  UNL     1      66.261  -2.142  -5.257  1.00  0.00     0.029 A 
HETATM   33  C4  UNL     1      67.333  -2.358  -4.414  1.00  0.00     0.002 A 
HETATM   34  C5  UNL     1      68.393  -1.506  -4.510  1.00  0.00     0.000 A 
HETATM   35  C6  UNL     1      68.393  -0.482  -5.407  1.00  0.00     0.002 A 
HETATM   36  C7  UNL     1      67.328  -0.272  -6.241  1.00  0.00     0.029 A 
ENDBRANCH  28  31
ENDBRANCH   1  25
TORSDOF 7
ENDMDL
MODEL 5
REMARK VINA RESULT: -11.506935024      2.058      2.665
REMARK  7 active torsions:
REMARK  status: ('A' for Active; 'I' for Inactive)
REMARK       I    between atoms: C1_2  and  N1_3 
REMARK       I    between atoms: C1_2  and  N2_11 
REMARK    1  A    between atoms: N1_3  and  C2_5 
REMARK    2  A    between atoms: N2_11  and  C8_13 
REMARK    3  A    between atoms: C12_17  and  C13_18 
REMARK    4  A    between atoms: C17_22  and  N3_23 
REMARK    5  A    between atoms: N3_23  and  C18_24 
REMARK    6  A    between atoms: C18_24  and  O2_25 
REMARK    7  A    between atoms: C18_24  and  C19_27 
ROOT
HETATM    1  C8  UNL     1      62.258   1.069  -6.293  1.00  0.00     0.037 A 
HETATM    2  C9  UNL     1      61.535   1.003  -7.486  1.00  0.00     0.029 A 
HETATM    3  C10 UNL     1      60.840   2.094  -7.923  1.00  0.00     0.003 A 
HETATM    4  C11 UNL     1      60.820   3.284  -7.224  1.00  0.00     0.012 A 
HETATM    5  C12 UNL     1      61.539   3.355  -6.048  1.00  0.00    -0.024 A 
HETATM    6  C25 UNL     1      62.243   2.249  -5.607  1.00  0.00     0.042 A 
ENDROOT
BRANCH   5   7
HETATM    7  C13 UNL     1      61.401   4.596  -5.291  1.00  0.00    -0.023 A 
HETATM    8  C14 UNL     1      61.519   5.792  -5.939  1.00  0.00     0.012 A 
HETATM    9  C15 UNL     1      61.524   6.953  -5.223  1.00  0.00     0.004 A 
HETATM   10  C16 UNL     1      61.416   6.985  -3.868  1.00  0.00     0.045 A 
HETATM   11  C17 UNL     1      61.296   5.802  -3.133  1.00  0.00     0.111 A 
HETATM   12  C24 UNL     1      61.291   4.619  -3.940  1.00  0.00     0.057 A 
BRANCH  11  13
HETATM   13  N3  UNL     1      61.408   5.674  -1.796  1.00  0.00    -0.380 NA
BRANCH  13  14
HETATM   14  C18 UNL     1      61.519   5.545  -0.470  1.00  0.00     0.229 C 
BRANCH  14  15
HETATM   15  O2  UNL     1      62.032   4.484   0.097  1.00  0.00    -0.335 OA
ATOM     16  H2  UNL     1      61.965   3.616  -0.284  1.00  0.00     0.220 HD
ENDBRANCH  14  15
BRANCH  14  17
HETATM   17  C19 UNL     1      61.109   6.545   0.565  1.00  0.00     0.085 A 
HETATM   18  C20 UNL     1      61.685   6.459   1.829  1.00  0.00     0.023 A 
HETATM   19  C21 UNL     1      61.351   7.434   2.764  1.00  0.00     0.018 A 
HETATM   20  C22 UNL     1      60.481   8.458   2.463  1.00  0.00     0.090 A 
HETATM   21  N4  UNL     1      59.942   8.510   1.230  1.00  0.00    -0.342 N 
HETATM   22  C23 UNL     1      60.267   7.548   0.301  1.00  0.00     0.203 A 
ATOM     23  H4  UNL     1      59.294   9.259   0.985  1.00  0.00     0.167 HD
HETATM   24  F1  UNL     1      59.616   7.703  -0.870  1.00  0.00    -0.185 F 
ENDBRANCH  14  17
ENDBRANCH  13  14
ENDBRANCH  11  13
ENDBRANCH   5   7
BRANCH   1  25
HETATM   25  N2  UNL     1      62.849  -0.105  -5.787  1.00  0.00    -0.309 N 
HETATM   26  C1  UNL     1      64.275  -0.320  -5.941  1.00  0.00     0.325 C 
HETATM   27  O1  UNL     1      64.944   0.543  -6.531  1.00  0.00    -0.247 OA
HETATM   28  N1  UNL     1      64.931  -1.484  -5.446  1.00  0.00    -0.309 N 
ATOM     29  H1  UNL     1      64.407  -2.201  -4.944  1.00  0.00     0.170 HD
ATOM     30  H2  UNL     1      62.275  -0.802  -5.314  1.00  0.00     0.170 HD
BRANCH  28  31
HETATM   31  C2  UNL     1      66.334  -1.628  -5.665  1.00  0.00     0.036 A 
HETATM   32  C3  UNL     1      67.313  -1.373  -4.754  1.00  0.00     0.029 A 
HETATM   33  C4  UNL     1      68.654  -1.554  -5.029  1.00  0.00     0.002 A 
HETATM   34  C5  UNL     1      68.988  -2.007  -6.270  1.00  0.00     0.000 A 
HETATM   35  C6  UNL     1      68.032  -2.273  -7.203  1.00  0.00     0.002 A 
HETATM   36  C7  UNL     1      66.704  -2.092  -6.925  1.00  0.00     0.029 A 
ENDBRANCH  28  31
ENDBRANCH   1  25
TORSDOF 7
ENDMDL
