MODEL 1
REMARK VINA RESULT: -12.039043003      0.000      0.000
REMARK  6 active torsions:
REMARK  status: ('A' for Active; 'I' for Inactive)
REMARK    1  A    between atoms: C6_6  and  N1_7 
REMARK       I    between atoms: N1_7  and  C7_9 
REMARK    2  A    between atoms: C7_9  and  C8_11 
REMARK    3  A    between atoms: C12_15  and  N2_16 
REMARK       I    between atoms: N2_16  and  C13_18 
REMARK    4  A    between atoms: C13_18  and  C14_20 
REMARK    5  A    between atoms: C17_23  and  N3_24 
REMARK    6  A    between atoms: N3_24  and  C18_26 
ROOT
HETATM    1  N2  UNL     1      61.849   4.745  -2.336  1.00  0.00    -0.323 N 
ATOM      2  H2  UNL     1      61.909   3.810  -1.931  1.00  0.00     0.169 HD
HETATM    3  C13 UNL     1      62.262   4.903  -3.657  1.00  0.00     0.256 C 
HETATM    4  O2  UNL     1      62.194   6.048  -4.205  1.00  0.00    -0.267 OA
ENDROOT
BRANCH   1   5
HETATM    5  C12 UNL     1      61.356   5.777  -1.523  1.00  0.00     0.035 A 
HETATM    6  C11 UNL     1      60.650   6.827  -2.016  1.00  0.00     0.029 A 
HETATM    7  C10 UNL     1      60.163   7.806  -1.159  1.00  0.00     0.003 A 
HETATM    8  C9  UNL     1      60.407   7.694   0.183  1.00  0.00     0.017 A 
HETATM    9  C8  UNL     1      61.117   6.643   0.696  1.00  0.00     0.034 A 
HETATM   10  C26 UNL     1      61.597   5.684  -0.130  1.00  0.00     0.046 A 
BRANCH   9  11
HETATM   11  C7  UNL     1      61.361   6.538   2.165  1.00  0.00     0.256 C 
HETATM   12  N1  UNL     1      61.602   7.687   2.939  1.00  0.00    -0.323 N 
ATOM     13  H1  UNL     1      61.595   8.582   2.451  1.00  0.00     0.169 HD
HETATM   14  O1  UNL     1      61.328   5.368   2.610  1.00  0.00    -0.267 OA
BRANCH  12  15
HETATM   15  C6  UNL     1      61.852   7.721   4.323  1.00  0.00     0.035 A 
HETATM   16  C5  UNL     1      61.304   6.829   5.192  1.00  0.00     0.029 A 
HETATM   17  C4  UNL     1      61.594   6.948   6.555  1.00  0.00     0.003 A 
HETATM   18  C3  UNL     1      62.414   7.938   7.032  1.00  0.00     0.007 A 
HETATM   19  C2  UNL     1      62.954   8.826   6.118  1.00  0.00    -0.060 A 
HETATM   20  C1  UNL     1      63.845   9.900   6.649  1.00  0.00     0.048 C 
HETATM   21  C27 UNL     1      62.699   8.750   4.781  1.00  0.00     0.036 A 
ENDBRANCH  12  15
ENDBRANCH   9  11
ENDBRANCH   1   5
BRANCH   3  22
HETATM   22  C14 UNL     1      62.788   3.774  -4.464  1.00  0.00     0.032 A 
HETATM   23  C15 UNL     1      62.098   2.581  -4.478  1.00  0.00     0.019 A 
HETATM   24  C16 UNL     1      62.522   1.473  -5.209  1.00  0.00     0.030 A 
HETATM   25  C17 UNL     1      63.669   1.527  -5.960  1.00  0.00     0.032 A 
HETATM   26  C24 UNL     1      64.365   2.745  -5.939  1.00  0.00     0.030 A 
HETATM   27  C25 UNL     1      63.932   3.837  -5.210  1.00  0.00     0.019 A 
BRANCH  25  28
HETATM   28  N3  UNL     1      64.209   0.458  -6.719  1.00  0.00    -0.356 N 
ATOM     29  H3  UNL     1      63.744   0.257  -7.604  1.00  0.00     0.166 HD
BRANCH  28  30
HETATM   30  C18 UNL     1      65.305  -0.357  -6.402  1.00  0.00     0.032 A 
HETATM   31  C19 UNL     1      66.493  -0.254  -7.072  1.00  0.00     0.029 A 
HETATM   32  C20 UNL     1      67.564  -1.076  -6.700  1.00  0.00     0.002 A 
HETATM   33  C21 UNL     1      67.472  -1.995  -5.676  1.00  0.00     0.000 A 
HETATM   34  C22 UNL     1      66.271  -2.090  -5.008  1.00  0.00     0.002 A 
HETATM   35  C23 UNL     1      65.219  -1.289  -5.368  1.00  0.00     0.029 A 
ENDBRANCH  28  30
ENDBRANCH  25  28
ENDBRANCH   3  22
TORSDOF 6
ENDMDL
MODEL 2
REMARK VINA RESULT: -11.725110320      1.784     11.297
REMARK  6 active torsions:
REMARK  status: ('A' for Active; 'I' for Inactive)
REMARK    1  A    between atoms: C6_6  and  N1_7 
REMARK       I    between atoms: N1_7  and  C7_9 
REMARK    2  A    between atoms: C7_9  and  C8_11 
REMARK    3  A    between atoms: C12_15  and  N2_16 
REMARK       I    between atoms: N2_16  and  C13_18 
REMARK    4  A    between atoms: C13_18  and  C14_20 
REMARK    5  A    between atoms: C17_23  and  N3_24 
REMARK    6  A    between atoms: N3_24  and  C18_26 
ROOT
HETATM    1  N2  UNL     1      61.865   5.194  -3.505  1.00  0.00    -0.323 N 
ATOM      2  H2  UNL     1      62.596   5.901  -3.419  1.00  0.00     0.169 HD
HETATM    3  C13 UNL     1      60.986   5.040  -2.437  1.00  0.00     0.256 C 
HETATM    4  O2  UNL     1      60.053   4.178  -2.507  1.00  0.00    -0.267 OA
ENDROOT
BRANCH   1   5
HETATM    5  C12 UNL     1      61.819   4.447  -4.693  1.00  0.00     0.035 A 
HETATM    6  C11 UNL     1      60.959   4.730  -5.706  1.00  0.00     0.029 A 
HETATM    7  C10 UNL     1      60.977   3.974  -6.870  1.00  0.00     0.003 A 
HETATM    8  C9  UNL     1      61.872   2.943  -6.979  1.00  0.00     0.017 A 
HETATM    9  C8  UNL     1      62.744   2.645  -5.968  1.00  0.00     0.034 A 
HETATM   10  C26 UNL     1      62.735   3.375  -4.828  1.00  0.00     0.046 A 
BRANCH   9  11
HETATM   11  C7  UNL     1      63.718   1.522  -6.114  1.00  0.00     0.256 C 
HETATM   12  N1  UNL     1      65.073   1.775  -6.389  1.00  0.00    -0.323 N 
ATOM     13  H1  UNL     1      65.351   2.753  -6.476  1.00  0.00     0.169 HD
HETATM   14  O1  UNL     1      63.216   0.384  -5.971  1.00  0.00    -0.267 OA
BRANCH  12  15
HETATM   15  C6  UNL     1      66.083   0.811  -6.556  1.00  0.00     0.035 A 
HETATM   16  C5  UNL     1      66.514   0.401  -7.780  1.00  0.00     0.029 A 
HETATM   17  C4  UNL     1      67.512  -0.576  -7.852  1.00  0.00     0.003 A 
HETATM   18  C3  UNL     1      68.063  -1.127  -6.723  1.00  0.00     0.007 A 
HETATM   19  C2  UNL     1      67.600  -0.683  -5.497  1.00  0.00    -0.060 A 
HETATM   20  C1  UNL     1      68.208  -1.290  -4.275  1.00  0.00     0.048 C 
HETATM   21  C27 UNL     1      66.629   0.265  -5.377  1.00  0.00     0.036 A 
ENDBRANCH  12  15
ENDBRANCH   9  11
ENDBRANCH   1   5
BRANCH   3  22
HETATM   22  C14 UNL     1      61.093   5.851  -1.199  1.00  0.00     0.032 A 
HETATM   23  C15 UNL     1      60.905   5.240   0.022  1.00  0.00     0.019 A 
HETATM   24  C16 UNL     1      60.988   5.929   1.231  1.00  0.00     0.030 A 
HETATM   25  C17 UNL     1      61.267   7.271   1.254  1.00  0.00     0.032 A 
HETATM   26  C24 UNL     1      61.458   7.885   0.007  1.00  0.00     0.030 A 
HETATM   27  C25 UNL     1      61.373   7.189  -1.185  1.00  0.00     0.019 A 
BRANCH  25  28
HETATM   28  N3  UNL     1      61.350   8.077   2.418  1.00  0.00    -0.356 N 
ATOM     29  H3  UNL     1      61.198   9.076   2.283  1.00  0.00     0.166 HD
BRANCH  28  30
HETATM   30  C18 UNL     1      61.615   7.667   3.732  1.00  0.00     0.032 A 
HETATM   31  C19 UNL     1      62.318   6.525   4.000  1.00  0.00     0.029 A 
HETATM   32  C20 UNL     1      62.575   6.173   5.331  1.00  0.00     0.002 A 
HETATM   33  C21 UNL     1      62.146   6.937   6.395  1.00  0.00     0.000 A 
HETATM   34  C22 UNL     1      61.438   8.085   6.114  1.00  0.00     0.002 A 
HETATM   35  C23 UNL     1      61.183   8.434   4.814  1.00  0.00     0.029 A 
ENDBRANCH  28  30
ENDBRANCH  25  28
ENDBRANCH   3  22
TORSDOF 6
ENDMDL
MODEL 3
REMARK VINA RESULT: -11.698829357      1.968     11.257
REMARK  6 active torsions:
REMARK  status: ('A' for Active; 'I' for Inactive)
REMARK    1  A    between atoms: C6_6  and  N1_7 
REMARK       I    between atoms: N1_7  and  C7_9 
REMARK    2  A    between atoms: C7_9  and  C8_11 
REMARK    3  A    between atoms: C12_15  and  N2_16 
REMARK       I    between atoms: N2_16  and  C13_18 
REMARK    4  A    between atoms: C13_18  and  C14_20 
REMARK    5  A    between atoms: C17_23  and  N3_24 
REMARK    6  A    between atoms: N3_24  and  C18_26 
ROOT
HETATM    1  N2  UNL     1      61.141   3.759  -4.025  1.00  0.00    -0.323 N 
ATOM      2  H2  UNL     1      60.520   3.325  -3.342  1.00  0.00     0.169 HD
HETATM    3  C13 UNL     1      61.687   4.999  -3.705  1.00  0.00     0.256 C 
HETATM    4  O2  UNL     1      62.476   5.571  -4.523  1.00  0.00    -0.267 OA
ENDROOT
BRANCH   1   5
HETATM    5  C12 UNL     1      61.384   3.062  -5.220  1.00  0.00     0.035 A 
HETATM    6  C11 UNL     1      60.679   3.287  -6.358  1.00  0.00     0.029 A 
HETATM    7  C10 UNL     1      60.982   2.586  -7.518  1.00  0.00     0.003 A 
HETATM    8  C9  UNL     1      61.998   1.669  -7.494  1.00  0.00     0.017 A 
HETATM    9  C8  UNL     1      62.718   1.430  -6.355  1.00  0.00     0.034 A 
HETATM   10  C26 UNL     1      62.431   2.107  -5.218  1.00  0.00     0.046 A 
BRANCH   9  11
HETATM   11  C7  UNL     1      63.828   0.432  -6.356  1.00  0.00     0.256 C 
HETATM   12  N1  UNL     1      65.151   0.827  -6.619  1.00  0.00    -0.323 N 
ATOM     13  H1  UNL     1      65.310   1.819  -6.800  1.00  0.00     0.169 HD
HETATM   14  O1  UNL     1      63.467  -0.741  -6.108  1.00  0.00    -0.267 OA
BRANCH  12  15
HETATM   15  C6  UNL     1      66.280  -0.012  -6.656  1.00  0.00     0.035 A 
HETATM   16  C5  UNL     1      66.804  -0.490  -7.817  1.00  0.00     0.029 A 
HETATM   17  C4  UNL     1      67.917  -1.333  -7.760  1.00  0.00     0.003 A 
HETATM   18  C3  UNL     1      68.491  -1.687  -6.564  1.00  0.00     0.007 A 
HETATM   19  C2  UNL     1      67.931  -1.181  -5.405  1.00  0.00    -0.060 A 
HETATM   20  C1  UNL     1      68.563  -1.573  -4.110  1.00  0.00     0.048 C 
HETATM   21  C27 UNL     1      66.845  -0.357  -5.412  1.00  0.00     0.036 A 
ENDBRANCH  12  15
ENDBRANCH   9  11
ENDBRANCH   1   5
BRANCH   3  22
HETATM   22  C14 UNL     1      61.382   5.695  -2.430  1.00  0.00     0.032 A 
HETATM   23  C15 UNL     1      61.123   7.048  -2.449  1.00  0.00     0.019 A 
HETATM   24  C16 UNL     1      60.827   7.775  -1.298  1.00  0.00     0.030 A 
HETATM   25  C17 UNL     1      60.783   7.160  -0.074  1.00  0.00     0.032 A 
HETATM   26  C24 UNL     1      61.048   5.782  -0.063  1.00  0.00     0.030 A 
HETATM   27  C25 UNL     1      61.339   5.072  -1.213  1.00  0.00     0.019 A 
BRANCH  25  28
HETATM   28  N3  UNL     1      60.520   7.802   1.164  1.00  0.00    -0.356 N 
ATOM     29  H3  UNL     1      59.772   8.495   1.158  1.00  0.00     0.166 HD
BRANCH  28  30
HETATM   30  C18 UNL     1      61.163   7.601   2.393  1.00  0.00     0.032 A 
HETATM   31  C19 UNL     1      60.779   8.272   3.521  1.00  0.00     0.029 A 
HETATM   32  C20 UNL     1      61.439   8.016   4.730  1.00  0.00     0.002 A 
HETATM   33  C21 UNL     1      62.471   7.109   4.832  1.00  0.00     0.000 A 
HETATM   34  C22 UNL     1      62.850   6.439   3.689  1.00  0.00     0.002 A 
HETATM   35  C23 UNL     1      62.208   6.685   2.504  1.00  0.00     0.029 A 
ENDBRANCH  28  30
ENDBRANCH  25  28
ENDBRANCH   3  22
TORSDOF 6
ENDMDL
MODEL 4
REMARK VINA RESULT: -11.674875851      1.926     11.254
REMARK  6 active torsions:
REMARK  status: ('A' for Active; 'I' for Inactive)
REMARK    1  A    between atoms: C6_6  and  N1_7 
REMARK       I    between atoms: N1_7  and  C7_9 
REMARK    2  A    between atoms: C7_9  and  C8_11 
REMARK    3  A    between atoms: C12_15  and  N2_16 
REMARK       I    between atoms: N2_16  and  C13_18 
REMARK    4  A    between atoms: C13_18  and  C14_20 
REMARK    5  A    between atoms: C17_23  and  N3_24 
REMARK    6  A    between atoms: N3_24  and  C18_26 
ROOT
HETATM    1  N2  UNL     1      61.212   3.865  -3.952  1.00  0.00    -0.323 N 
ATOM      2  H2  UNL     1      60.760   3.362  -3.188  1.00  0.00     0.169 HD
HETATM    3  C13 UNL     1      61.588   5.186  -3.721  1.00  0.00     0.256 C 
HETATM    4  O2  UNL     1      62.164   5.847  -4.643  1.00  0.00    -0.267 OA
ENDROOT
BRANCH   1   5
HETATM    5  C12 UNL     1      61.409   3.176  -5.159  1.00  0.00     0.035 A 
HETATM    6  C11 UNL     1      60.670   3.417  -6.272  1.00  0.00     0.029 A 
HETATM    7  C10 UNL     1      60.928   2.724  -7.447  1.00  0.00     0.003 A 
HETATM    8  C9  UNL     1      61.935   1.796  -7.462  1.00  0.00     0.017 A 
HETATM    9  C8  UNL     1      62.688   1.540  -6.350  1.00  0.00     0.034 A 
HETATM   10  C26 UNL     1      62.445   2.210  -5.198  1.00  0.00     0.046 A 
BRANCH   9  11
HETATM   11  C7  UNL     1      63.788   0.531  -6.395  1.00  0.00     0.256 C 
HETATM   12  N1  UNL     1      65.122   0.928  -6.595  1.00  0.00    -0.323 N 
ATOM     13  H1  UNL     1      65.295   1.928  -6.700  1.00  0.00     0.169 HD
HETATM   14  O1  UNL     1      63.408  -0.652  -6.241  1.00  0.00    -0.267 OA
BRANCH  12  15
HETATM   15  C6  UNL     1      66.242   0.079  -6.664  1.00  0.00     0.035 A 
HETATM   16  C5  UNL     1      66.754  -0.369  -7.842  1.00  0.00     0.029 A 
HETATM   17  C4  UNL     1      67.860  -1.224  -7.816  1.00  0.00     0.003 A 
HETATM   18  C3  UNL     1      68.437  -1.618  -6.636  1.00  0.00     0.007 A 
HETATM   19  C2  UNL     1      67.889  -1.140  -5.458  1.00  0.00    -0.060 A 
HETATM   20  C1  UNL     1      68.526  -1.577  -4.180  1.00  0.00     0.048 C 
HETATM   21  C27 UNL     1      66.811  -0.307  -5.434  1.00  0.00     0.036 A 
ENDBRANCH  12  15
ENDBRANCH   9  11
ENDBRANCH   1   5
BRANCH   3  22
HETATM   22  C14 UNL     1      61.340   5.866  -2.426  1.00  0.00     0.032 A 
HETATM   23  C15 UNL     1      61.320   5.119  -1.268  1.00  0.00     0.019 A 
HETATM   24  C16 UNL     1      61.096   5.680  -0.013  1.00  0.00     0.030 A 
HETATM   25  C17 UNL     1      60.881   7.027   0.124  1.00  0.00     0.032 A 
HETATM   26  C24 UNL     1      60.903   7.780  -1.059  1.00  0.00     0.030 A 
HETATM   27  C25 UNL     1      61.128   7.211  -2.299  1.00  0.00     0.019 A 
BRANCH  25  28
HETATM   28  N3  UNL     1      60.615   7.701   1.344  1.00  0.00    -0.356 N 
ATOM     29  H3  UNL     1      59.889   8.416   1.311  1.00  0.00     0.166 HD
BRANCH  28  30
HETATM   30  C18 UNL     1      61.229   7.503   2.588  1.00  0.00     0.032 A 
HETATM   31  C19 UNL     1      62.213   6.569   2.763  1.00  0.00     0.029 A 
HETATM   32  C20 UNL     1      62.810   6.427   4.022  1.00  0.00     0.002 A 
HETATM   33  C21 UNL     1      62.445   7.197   5.105  1.00  0.00     0.000 A 
HETATM   34  C22 UNL     1      61.453   8.135   4.918  1.00  0.00     0.002 A 
HETATM   35  C23 UNL     1      60.864   8.277   3.689  1.00  0.00     0.029 A 
ENDBRANCH  28  30
ENDBRANCH  25  28
ENDBRANCH   3  22
TORSDOF 6
ENDMDL
MODEL 5
REMARK VINA RESULT: -11.499900434      1.873     11.285
REMARK  6 active torsions:
REMARK  status: ('A' for Active; 'I' for Inactive)
REMARK    1  A    between atoms: C6_6  and  N1_7 
REMARK       I    between atoms: N1_7  and  C7_9 
REMARK    2  A    between atoms: C7_9  and  C8_11 
REMARK    3  A    between atoms: C12_15  and  N2_16 
REMARK       I    between atoms: N2_16  and  C13_18 
REMARK    4  A    between atoms: C13_18  and  C14_20 
REMARK    5  A    between atoms: C17_23  and  N3_24 
REMARK    6  A    between atoms: N3_24  and  C18_26 
ROOT
HETATM    1  N2  UNL     1      61.808   4.776  -3.878  1.00  0.00    -0.323 N 
ATOM      2  H2  UNL     1      62.566   5.449  -3.763  1.00  0.00     0.169 HD
HETATM    3  C13 UNL     1      60.848   4.706  -2.872  1.00  0.00     0.256 C 
HETATM    4  O2  UNL     1      59.880   3.888  -2.981  1.00  0.00    -0.267 OA
ENDROOT
BRANCH   1   5
HETATM    5  C12 UNL     1      61.810   3.987  -5.039  1.00  0.00     0.035 A 
HETATM    6  C11 UNL     1      60.961   4.206  -6.077  1.00  0.00     0.029 A 
HETATM    7  C10 UNL     1      61.027   3.410  -7.213  1.00  0.00     0.003 A 
HETATM    8  C9  UNL     1      61.956   2.406  -7.268  1.00  0.00     0.017 A 
HETATM    9  C8  UNL     1      62.817   2.172  -6.232  1.00  0.00     0.034 A 
HETATM   10  C26 UNL     1      62.762   2.941  -5.118  1.00  0.00     0.046 A 
BRANCH   9  11
HETATM   11  C7  UNL     1      63.829   1.078  -6.319  1.00  0.00     0.256 C 
HETATM   12  N1  UNL     1      65.192   1.369  -6.499  1.00  0.00    -0.323 N 
ATOM     13  H1  UNL     1      65.449   2.355  -6.559  1.00  0.00     0.169 HD
HETATM   14  O1  UNL     1      63.350  -0.076  -6.219  1.00  0.00    -0.267 OA
BRANCH  12  15
HETATM   15  C6  UNL     1      66.237   0.434  -6.604  1.00  0.00     0.035 A 
HETATM   16  C5  UNL     1      66.699  -0.024  -7.800  1.00  0.00     0.029 A 
HETATM   17  C4  UNL     1      67.731  -0.967  -7.809  1.00  0.00     0.003 A 
HETATM   18  C3  UNL     1      68.286  -1.438  -6.647  1.00  0.00     0.007 A 
HETATM   19  C2  UNL     1      67.791  -0.949  -5.451  1.00  0.00    -0.060 A 
HETATM   20  C1  UNL     1      68.403  -1.470  -4.192  1.00  0.00     0.048 C 
HETATM   21  C27 UNL     1      66.786  -0.030  -5.392  1.00  0.00     0.036 A 
ENDBRANCH  12  15
ENDBRANCH   9  11
ENDBRANCH   1   5
BRANCH   3  22
HETATM   22  C14 UNL     1      60.907   5.558  -1.659  1.00  0.00     0.032 A 
HETATM   23  C15 UNL     1      60.953   6.928  -1.803  1.00  0.00     0.019 A 
HETATM   24  C16 UNL     1      61.010   7.798  -0.716  1.00  0.00     0.030 A 
HETATM   25  C17 UNL     1      61.022   7.316   0.568  1.00  0.00     0.032 A 
HETATM   26  C24 UNL     1      60.974   5.921   0.705  1.00  0.00     0.030 A 
HETATM   27  C25 UNL     1      60.918   5.068  -0.382  1.00  0.00     0.019 A 
BRANCH  25  28
HETATM   28  N3  UNL     1      61.105   8.104   1.744  1.00  0.00    -0.356 N 
ATOM     29  H3  UNL     1      60.838   9.083   1.647  1.00  0.00     0.166 HD
BRANCH  28  30
HETATM   30  C18 UNL     1      61.508   7.701   3.025  1.00  0.00     0.032 A 
HETATM   31  C19 UNL     1      62.315   6.613   3.213  1.00  0.00     0.029 A 
HETATM   32  C20 UNL     1      62.709   6.266   4.512  1.00  0.00     0.002 A 
HETATM   33  C21 UNL     1      62.313   6.982   5.621  1.00  0.00     0.000 A 
HETATM   34  C22 UNL     1      61.499   8.076   5.420  1.00  0.00     0.002 A 
HETATM   35  C23 UNL     1      61.111   8.419   4.151  1.00  0.00     0.029 A 
ENDBRANCH  28  30
ENDBRANCH  25  28
ENDBRANCH   3  22
TORSDOF 6
ENDMDL
