MODEL 1
REMARK VINA RESULT: -8.654191338      0.000      0.000
REMARK  6 active torsions:
REMARK  status: ('A' for Active; 'I' for Inactive)
REMARK    1  A    between atoms: O1_2  and  C2_3 
REMARK    2  A    between atoms: C7_8  and  N1_9 
REMARK       I    between atoms: N1_9  and  C8_10 
REMARK       I    between atoms: C8_10  and  N2_12 
REMARK    3  A    between atoms: N2_12  and  C9_14 
REMARK    4  A    between atoms: C12_17  and  C13_18 
REMARK    5  A    between atoms: C17_24  and  C18_25 
REMARK       I    between atoms: C18_25  and  N4_27 
REMARK    6  A    between atoms: N4_27  and  C19_29 
ROOT
HETATM    1  C9  UNL     1      62.045   3.850  -2.840  1.00  0.00     0.037 A 
HETATM    2  C10 UNL     1      61.003   2.966  -3.104  1.00  0.00     0.030 A 
HETATM    3  C11 UNL     1      60.841   2.331  -4.307  1.00  0.00     0.014 A 
HETATM    4  C12 UNL     1      61.728   2.549  -5.328  1.00  0.00    -0.023 A 
HETATM    5  C25 UNL     1      62.762   3.414  -5.095  1.00  0.00     0.014 A 
HETATM    6  C26 UNL     1      62.941   4.072  -3.869  1.00  0.00     0.030 A 
ENDROOT
BRANCH   4   7
HETATM    7  C13 UNL     1      61.616   1.914  -6.616  1.00  0.00     0.006 A 
HETATM    8  C14 UNL     1      60.656   2.397  -7.534  1.00  0.00     0.016 A 
HETATM    9  C15 UNL     1      60.552   1.848  -8.779  1.00  0.00     0.018 A 
HETATM   10  C16 UNL     1      61.393   0.811  -9.145  1.00  0.00     0.088 A 
HETATM   11  N3  UNL     1      62.291   0.366  -8.268  1.00  0.00    -0.361 N 
HETATM   12  C17 UNL     1      62.418   0.897  -7.012  1.00  0.00     0.112 A 
ATOM     13  H3  UNL     1      62.908  -0.399  -8.542  1.00  0.00     0.165 HD
BRANCH  12  14
HETATM   14  C18 UNL     1      63.418   0.303  -6.122  1.00  0.00     0.273 C 
HETATM   15  O3  UNL     1      63.209   0.018  -4.945  1.00  0.00    -0.266 OA
HETATM   16  N4  UNL     1      64.704   0.036  -6.642  1.00  0.00    -0.322 N 
ATOM     17  H4  UNL     1      64.866   0.265  -7.623  1.00  0.00     0.169 HD
BRANCH  16  18
HETATM   18  C19 UNL     1      65.783  -0.519  -5.928  1.00  0.00     0.035 A 
HETATM   19  C20 UNL     1      65.762  -1.701  -5.246  1.00  0.00     0.029 A 
HETATM   20  C21 UNL     1      66.908  -2.173  -4.580  1.00  0.00     0.002 A 
HETATM   21  C22 UNL     1      68.090  -1.477  -4.583  1.00  0.00     0.000 A 
HETATM   22  C23 UNL     1      68.100  -0.271  -5.282  1.00  0.00     0.002 A 
HETATM   23  C24 UNL     1      66.999   0.180  -5.921  1.00  0.00     0.029 A 
ENDBRANCH  16  18
ENDBRANCH  12  14
ENDBRANCH   4   7
BRANCH   1  24
HETATM   24  N2  UNL     1      62.121   4.388  -1.550  1.00  0.00    -0.297 N 
HETATM   25  C8  UNL     1      61.362   5.545  -1.086  1.00  0.00     0.398 C 
HETATM   26  N1  UNL     1      61.521   6.028   0.186  1.00  0.00    -0.349 NA
HETATM   27  O2  UNL     1      60.593   5.982  -2.012  1.00  0.00    -0.230 OA
ATOM     28  H2  UNL     1      62.752   3.938  -0.887  1.00  0.00     0.172 HD
BRANCH  26  29
HETATM   29  C7  UNL     1      61.678   6.501   1.434  1.00  0.00     0.146 A 
HETATM   30  C2  UNL     1      60.897   7.641   1.836  1.00  0.00     0.108 A 
HETATM   31  C3  UNL     1      60.981   8.234   3.031  1.00  0.00     0.040 A 
HETATM   32  C4  UNL     1      61.866   7.743   3.956  1.00  0.00     0.003 A 
HETATM   33  C5  UNL     1      62.637   6.677   3.664  1.00  0.00     0.003 A 
HETATM   34  C6  UNL     1      62.533   6.072   2.410  1.00  0.00     0.048 A 
BRANCH  30  35
HETATM   35  O1  UNL     1      60.016   8.107   0.866  1.00  0.00    -0.353 OA
HETATM   36  C1  UNL     1      58.630   7.873   0.982  1.00  0.00     0.210 C 
ENDBRANCH  30  35
ENDBRANCH  26  29
ENDBRANCH   1  24
TORSDOF 6
ENDMDL
MODEL 2
REMARK VINA RESULT: -8.600249125      0.978      1.427
REMARK  6 active torsions:
REMARK  status: ('A' for Active; 'I' for Inactive)
REMARK    1  A    between atoms: O1_2  and  C2_3 
REMARK    2  A    between atoms: C7_8  and  N1_9 
REMARK       I    between atoms: N1_9  and  C8_10 
REMARK       I    between atoms: C8_10  and  N2_12 
REMARK    3  A    between atoms: N2_12  and  C9_14 
REMARK    4  A    between atoms: C12_17  and  C13_18 
REMARK    5  A    between atoms: C17_24  and  C18_25 
REMARK       I    between atoms: C18_25  and  N4_27 
REMARK    6  A    between atoms: N4_27  and  C19_29 
ROOT
HETATM    1  C9  UNL     1      62.108   3.645  -3.017  1.00  0.00     0.037 A 
HETATM    2  C10 UNL     1      62.114   4.374  -4.203  1.00  0.00     0.030 A 
HETATM    3  C11 UNL     1      62.005   3.798  -5.441  1.00  0.00     0.014 A 
HETATM    4  C12 UNL     1      61.882   2.438  -5.562  1.00  0.00    -0.023 A 
HETATM    5  C25 UNL     1      61.874   1.698  -4.412  1.00  0.00     0.014 A 
HETATM    6  C26 UNL     1      61.984   2.273  -3.136  1.00  0.00     0.030 A 
ENDROOT
BRANCH   4   7
HETATM    7  C13 UNL     1      61.763   1.770  -6.833  1.00  0.00     0.006 A 
HETATM    8  C14 UNL     1      60.529   1.823  -7.519  1.00  0.00     0.016 A 
HETATM    9  C15 UNL     1      60.394   1.241  -8.745  1.00  0.00     0.018 A 
HETATM   10  C16 UNL     1      61.474   0.592  -9.321  1.00  0.00     0.088 A 
HETATM   11  N3  UNL     1      62.630   0.550  -8.660  1.00  0.00    -0.361 N 
HETATM   12  C17 UNL     1      62.795   1.125  -7.429  1.00  0.00     0.112 A 
ATOM     13  H3  UNL     1      63.422   0.070  -9.088  1.00  0.00     0.165 HD
BRANCH  12  14
HETATM   14  C18 UNL     1      64.101   0.984  -6.783  1.00  0.00     0.273 C 
HETATM   15  O3  UNL     1      64.781   1.930  -6.390  1.00  0.00    -0.266 OA
HETATM   16  N4  UNL     1      64.619  -0.318  -6.595  1.00  0.00    -0.322 N 
ATOM     17  H4  UNL     1      64.043  -1.097  -6.913  1.00  0.00     0.169 HD
BRANCH  16  18
HETATM   18  C19 UNL     1      65.858  -0.634  -6.006  1.00  0.00     0.035 A 
HETATM   19  C20 UNL     1      67.026   0.045  -6.197  1.00  0.00     0.029 A 
HETATM   20  C21 UNL     1      68.207  -0.347  -5.539  1.00  0.00     0.002 A 
HETATM   21  C22 UNL     1      68.243  -1.419  -4.685  1.00  0.00     0.000 A 
HETATM   22  C23 UNL     1      67.044  -2.105  -4.498  1.00  0.00     0.002 A 
HETATM   23  C24 UNL     1      65.912  -1.727  -5.129  1.00  0.00     0.029 A 
ENDBRANCH  16  18
ENDBRANCH  12  14
ENDBRANCH   4   7
BRANCH   1  24
HETATM   24  N2  UNL     1      62.173   4.365  -1.819  1.00  0.00    -0.297 N 
HETATM   25  C8  UNL     1      61.014   4.815  -1.055  1.00  0.00     0.398 C 
HETATM   26  N1  UNL     1      61.166   5.544   0.094  1.00  0.00    -0.349 NA
HETATM   27  O2  UNL     1      59.928   4.431  -1.615  1.00  0.00    -0.230 OA
ATOM     28  H2  UNL     1      63.098   4.593  -1.454  1.00  0.00     0.172 HD
BRANCH  26  29
HETATM   29  C7  UNL     1      61.317   6.261   1.221  1.00  0.00     0.146 A 
HETATM   30  C2  UNL     1      60.735   7.576   1.278  1.00  0.00     0.108 A 
HETATM   31  C3  UNL     1      60.841   8.407   2.319  1.00  0.00     0.040 A 
HETATM   32  C4  UNL     1      61.548   8.004   3.423  1.00  0.00     0.003 A 
HETATM   33  C5  UNL     1      62.126   6.787   3.455  1.00  0.00     0.003 A 
HETATM   34  C6  UNL     1      62.003   5.934   2.357  1.00  0.00     0.048 A 
BRANCH  30  35
HETATM   35  O1  UNL     1      60.031   7.945   0.137  1.00  0.00    -0.353 OA
HETATM   36  C1  UNL     1      60.713   8.346  -1.031  1.00  0.00     0.210 C 
ENDBRANCH  30  35
ENDBRANCH  26  29
ENDBRANCH   1  24
TORSDOF 6
ENDMDL
MODEL 3
REMARK VINA RESULT: -8.289966827      1.084      1.431
REMARK  6 active torsions:
REMARK  status: ('A' for Active; 'I' for Inactive)
REMARK    1  A    between atoms: O1_2  and  C2_3 
REMARK    2  A    between atoms: C7_8  and  N1_9 
REMARK       I    between atoms: N1_9  and  C8_10 
REMARK       I    between atoms: C8_10  and  N2_12 
REMARK    3  A    between atoms: N2_12  and  C9_14 
REMARK    4  A    between atoms: C12_17  and  C13_18 
REMARK    5  A    between atoms: C17_24  and  C18_25 
REMARK       I    between atoms: C18_25  and  N4_27 
REMARK    6  A    between atoms: N4_27  and  C19_29 
ROOT
HETATM    1  C9  UNL     1      61.573   3.997  -3.500  1.00  0.00     0.037 A 
HETATM    2  C10 UNL     1      60.568   3.069  -3.755  1.00  0.00     0.030 A 
HETATM    3  C11 UNL     1      60.488   2.347  -4.917  1.00  0.00     0.014 A 
HETATM    4  C12 UNL     1      61.424   2.519  -5.903  1.00  0.00    -0.023 A 
HETATM    5  C25 UNL     1      62.422   3.425  -5.677  1.00  0.00     0.014 A 
HETATM    6  C26 UNL     1      62.519   4.171  -4.493  1.00  0.00     0.030 A 
ENDROOT
BRANCH   4   7
HETATM    7  C13 UNL     1      61.397   1.792  -7.147  1.00  0.00     0.006 A 
HETATM    8  C14 UNL     1      60.471   2.178  -8.143  1.00  0.00     0.016 A 
HETATM    9  C15 UNL     1      60.448   1.541  -9.349  1.00  0.00     0.018 A 
HETATM   10  C16 UNL     1      61.338   0.509  -9.599  1.00  0.00     0.088 A 
HETATM   11  N3  UNL     1      62.203   0.158  -8.649  1.00  0.00    -0.361 N 
HETATM   12  C17 UNL     1      62.249   0.778  -7.430  1.00  0.00     0.112 A 
ATOM     13  H3  UNL     1      62.855  -0.603  -8.838  1.00  0.00     0.165 HD
BRANCH  12  14
HETATM   14  C18 UNL     1      63.219   0.281  -6.452  1.00  0.00     0.273 C 
HETATM   15  O3  UNL     1      62.966   0.096  -5.263  1.00  0.00    -0.266 OA
HETATM   16  N4  UNL     1      64.530  -0.008  -6.895  1.00  0.00    -0.322 N 
ATOM     17  H4  UNL     1      64.728   0.138  -7.885  1.00  0.00     0.169 HD
BRANCH  16  18
HETATM   18  C19 UNL     1      65.586  -0.479  -6.092  1.00  0.00     0.035 A 
HETATM   19  C20 UNL     1      65.586  -1.646  -5.384  1.00  0.00     0.029 A 
HETATM   20  C21 UNL     1      66.709  -2.032  -4.627  1.00  0.00     0.002 A 
HETATM   21  C22 UNL     1      67.843  -1.264  -4.564  1.00  0.00     0.000 A 
HETATM   22  C23 UNL     1      67.830  -0.075  -5.291  1.00  0.00     0.002 A 
HETATM   23  C24 UNL     1      66.753   0.293  -6.017  1.00  0.00     0.029 A 
ENDBRANCH  16  18
ENDBRANCH  12  14
ENDBRANCH   4   7
BRANCH   1  24
HETATM   24  N2  UNL     1      61.566   4.626  -2.250  1.00  0.00    -0.297 N 
HETATM   25  C8  UNL     1      60.951   5.920  -1.973  1.00  0.00     0.398 C 
HETATM   26  N1  UNL     1      61.018   6.480  -0.725  1.00  0.00    -0.349 NA
HETATM   27  O2  UNL     1      60.390   6.387  -3.025  1.00  0.00    -0.230 OA
ATOM     28  H2  UNL     1      62.024   4.144  -1.476  1.00  0.00     0.172 HD
BRANCH  26  29
HETATM   29  C7  UNL     1      61.084   7.029   0.500  1.00  0.00     0.146 A 
HETATM   30  C2  UNL     1      61.195   6.154   1.637  1.00  0.00     0.108 A 
HETATM   31  C3  UNL     1      61.232   6.564   2.908  1.00  0.00     0.040 A 
HETATM   32  C4  UNL     1      61.161   7.907   3.176  1.00  0.00     0.003 A 
HETATM   33  C5  UNL     1      61.055   8.799   2.170  1.00  0.00     0.003 A 
HETATM   34  C6  UNL     1      61.019   8.348   0.850  1.00  0.00     0.048 A 
BRANCH  30  35
HETATM   35  O1  UNL     1      61.262   4.802   1.319  1.00  0.00    -0.353 OA
HETATM   36  C1  UNL     1      60.103   3.997   1.356  1.00  0.00     0.210 C 
ENDBRANCH  30  35
ENDBRANCH  26  29
ENDBRANCH   1  24
TORSDOF 6
ENDMDL
MODEL 4
REMARK VINA RESULT: -8.228677860      1.113      1.459
REMARK  6 active torsions:
REMARK  status: ('A' for Active; 'I' for Inactive)
REMARK    1  A    between atoms: O1_2  and  C2_3 
REMARK    2  A    between atoms: C7_8  and  N1_9 
REMARK       I    between atoms: N1_9  and  C8_10 
REMARK       I    between atoms: C8_10  and  N2_12 
REMARK    3  A    between atoms: N2_12  and  C9_14 
REMARK    4  A    between atoms: C12_17  and  C13_18 
REMARK    5  A    between atoms: C17_24  and  C18_25 
REMARK       I    between atoms: C18_25  and  N4_27 
REMARK    6  A    between atoms: N4_27  and  C19_29 
ROOT
HETATM    1  C9  UNL     1      60.846   3.928  -3.562  1.00  0.00     0.037 A 
HETATM    2  C10 UNL     1      61.682   4.365  -4.585  1.00  0.00     0.030 A 
HETATM    3  C11 UNL     1      61.808   3.714  -5.784  1.00  0.00     0.014 A 
HETATM    4  C12 UNL     1      61.092   2.571  -6.028  1.00  0.00    -0.023 A 
HETATM    5  C25 UNL     1      60.263   2.120  -5.038  1.00  0.00     0.014 A 
HETATM    6  C26 UNL     1      60.123   2.775  -3.806  1.00  0.00     0.030 A 
ENDROOT
BRANCH   4   7
HETATM    7  C13 UNL     1      61.178   1.840  -7.266  1.00  0.00     0.006 A 
HETATM    8  C14 UNL     1      60.229   2.101  -8.280  1.00  0.00     0.016 A 
HETATM    9  C15 UNL     1      60.308   1.460  -9.482  1.00  0.00     0.018 A 
HETATM   10  C16 UNL     1      61.324   0.547  -9.709  1.00  0.00     0.088 A 
HETATM   11  N3  UNL     1      62.210   0.312  -8.742  1.00  0.00    -0.361 N 
HETATM   12  C17 UNL     1      62.156   0.939  -7.527  1.00  0.00     0.112 A 
ATOM     13  H3  UNL     1      62.956  -0.362  -8.914  1.00  0.00     0.165 HD
BRANCH  12  14
HETATM   14  C18 UNL     1      63.164   0.574  -6.529  1.00  0.00     0.273 C 
HETATM   15  O3  UNL     1      63.008   0.699  -5.316  1.00  0.00    -0.266 OA
HETATM   16  N4  UNL     1      64.392   0.041  -6.981  1.00  0.00    -0.322 N 
ATOM     17  H4  UNL     1      64.508  -0.070  -7.988  1.00  0.00     0.169 HD
BRANCH  16  18
HETATM   18  C19 UNL     1      65.470  -0.350  -6.164  1.00  0.00     0.035 A 
HETATM   19  C20 UNL     1      65.515  -1.473  -5.390  1.00  0.00     0.029 A 
HETATM   20  C21 UNL     1      66.656  -1.780  -4.626  1.00  0.00     0.002 A 
HETATM   21  C22 UNL     1      67.766  -0.976  -4.620  1.00  0.00     0.000 A 
HETATM   22  C23 UNL     1      67.709   0.169  -5.414  1.00  0.00     0.002 A 
HETATM   23  C24 UNL     1      66.614   0.461  -6.147  1.00  0.00     0.029 A 
ENDBRANCH  16  18
ENDBRANCH  12  14
ENDBRANCH   4   7
BRANCH   1  24
HETATM   24  N2  UNL     1      60.773   4.718  -2.409  1.00  0.00    -0.297 N 
HETATM   25  C8  UNL     1      61.728   4.669  -1.306  1.00  0.00     0.398 C 
HETATM   26  N1  UNL     1      61.564   5.456  -0.197  1.00  0.00    -0.349 NA
HETATM   27  O2  UNL     1      62.660   3.826  -1.552  1.00  0.00    -0.230 OA
ATOM     28  H2  UNL     1      59.997   5.375  -2.335  1.00  0.00     0.172 HD
BRANCH  26  29
HETATM   29  C7  UNL     1      61.402   6.228   0.892  1.00  0.00     0.146 A 
HETATM   30  C2  UNL     1      60.686   7.468   0.751  1.00  0.00     0.108 A 
HETATM   31  C3  UNL     1      60.486   8.344   1.739  1.00  0.00     0.040 A 
HETATM   32  C4  UNL     1      60.989   8.068   2.985  1.00  0.00     0.003 A 
HETATM   33  C5  UNL     1      61.674   6.928   3.207  1.00  0.00     0.003 A 
HETATM   34  C6  UNL     1      61.870   6.026   2.160  1.00  0.00     0.048 A 
BRANCH  30  35
HETATM   35  O1  UNL     1      60.197   7.708  -0.528  1.00  0.00    -0.353 OA
HETATM   36  C1  UNL     1      60.981   8.395  -1.481  1.00  0.00     0.210 C 
ENDBRANCH  30  35
ENDBRANCH  26  29
ENDBRANCH   1  24
TORSDOF 6
ENDMDL
MODEL 5
REMARK VINA RESULT: -6.744647629      1.381      1.776
REMARK  6 active torsions:
REMARK  status: ('A' for Active; 'I' for Inactive)
REMARK    1  A    between atoms: O1_2  and  C2_3 
REMARK    2  A    between atoms: C7_8  and  N1_9 
REMARK       I    between atoms: N1_9  and  C8_10 
REMARK       I    between atoms: C8_10  and  N2_12 
REMARK    3  A    between atoms: N2_12  and  C9_14 
REMARK    4  A    between atoms: C12_17  and  C13_18 
REMARK    5  A    between atoms: C17_24  and  C18_25 
REMARK       I    between atoms: C18_25  and  N4_27 
REMARK    6  A    between atoms: N4_27  and  C19_29 
ROOT
HETATM    1  C9  UNL     1      60.891   4.436  -4.267  1.00  0.00     0.037 A 
HETATM    2  C10 UNL     1      60.298   3.178  -4.301  1.00  0.00     0.030 A 
HETATM    3  C11 UNL     1      60.369   2.342  -5.384  1.00  0.00     0.014 A 
HETATM    4  C12 UNL     1      61.048   2.726  -6.511  1.00  0.00    -0.023 A 
HETATM    5  C25 UNL     1      61.640   3.958  -6.503  1.00  0.00     0.014 A 
HETATM    6  C26 UNL     1      61.578   4.826  -5.402  1.00  0.00     0.030 A 
ENDROOT
BRANCH   4   7
HETATM    7  C13 UNL     1      61.161   1.895  -7.682  1.00  0.00     0.006 A 
HETATM    8  C14 UNL     1      60.103   1.889  -8.619  1.00  0.00     0.016 A 
HETATM    9  C15 UNL     1      60.195   1.149  -9.761  1.00  0.00     0.018 A 
HETATM   10  C16 UNL     1      61.333   0.398 -10.004  1.00  0.00     0.088 A 
HETATM   11  N3  UNL     1      62.321   0.414  -9.110  1.00  0.00    -0.361 N 
HETATM   12  C17 UNL     1      62.256   1.147  -7.956  1.00  0.00     0.112 A 
ATOM     13  H3  UNL     1      63.157  -0.141  -9.293  1.00  0.00     0.165 HD
BRANCH  12  14
HETATM   14  C18 UNL     1      63.389   1.058  -7.032  1.00  0.00     0.273 C 
HETATM   15  O3  UNL     1      63.649   1.904  -6.178  1.00  0.00    -0.266 OA
HETATM   16  N4  UNL     1      64.239  -0.067  -7.119  1.00  0.00    -0.322 N 
ATOM     17  H4  UNL     1      64.009  -0.770  -7.822  1.00  0.00     0.169 HD
BRANCH  16  18
HETATM   18  C19 UNL     1      65.374  -0.306  -6.321  1.00  0.00     0.035 A 
HETATM   19  C20 UNL     1      66.432   0.543  -6.169  1.00  0.00     0.029 A 
HETATM   20  C21 UNL     1      67.510   0.212  -5.327  1.00  0.00     0.002 A 
HETATM   21  C22 UNL     1      67.551  -0.966  -4.626  1.00  0.00     0.000 A 
HETATM   22  C23 UNL     1      66.466  -1.825  -4.790  1.00  0.00     0.002 A 
HETATM   23  C24 UNL     1      65.432  -1.506  -5.597  1.00  0.00     0.029 A 
ENDBRANCH  16  18
ENDBRANCH  12  14
ENDBRANCH   4   7
BRANCH   1  24
HETATM   24  N2  UNL     1      60.785   5.165  -3.077  1.00  0.00    -0.297 N 
HETATM   25  C8  UNL     1      61.584   4.922  -1.880  1.00  0.00     0.398 C 
HETATM   26  N1  UNL     1      61.395   5.663  -0.744  1.00  0.00    -0.349 NA
HETATM   27  O2  UNL     1      62.419   3.971  -2.079  1.00  0.00    -0.230 OA
ATOM     28  H2  UNL     1      60.100   5.919  -3.044  1.00  0.00     0.172 HD
BRANCH  26  29
HETATM   29  C7  UNL     1      61.207   6.389   0.371  1.00  0.00     0.146 A 
HETATM   30  C2  UNL     1      60.552   7.665   0.255  1.00  0.00     0.108 A 
HETATM   31  C3  UNL     1      60.337   8.503   1.273  1.00  0.00     0.040 A 
HETATM   32  C4  UNL     1      60.760   8.147   2.528  1.00  0.00     0.003 A 
HETATM   33  C5  UNL     1      61.384   6.968   2.729  1.00  0.00     0.003 A 
HETATM   34  C6  UNL     1      61.598   6.108   1.650  1.00  0.00     0.048 A 
BRANCH  30  35
HETATM   35  O1  UNL     1      60.143   7.986  -1.035  1.00  0.00    -0.353 OA
HETATM   36  C1  UNL     1      61.057   8.520  -1.967  1.00  0.00     0.210 C 
ENDBRANCH  30  35
ENDBRANCH  26  29
ENDBRANCH   1  24
TORSDOF 6
ENDMDL
