MODEL 1
REMARK VINA RESULT: -7.243350701      0.000      0.000
REMARK  7 active torsions:
REMARK  status: ('A' for Active; 'I' for Inactive)
REMARK    1  A    between atoms: C1_4  and  O1_6 
REMARK    2  A    between atoms: O1_6  and  C2_7 
REMARK    3  A    between atoms: C6_11  and  N3_12 
REMARK    4  A    between atoms: N3_12  and  C7_15 
REMARK    5  A    between atoms: C7_15  and  C8_16 
REMARK    6  A    between atoms: C8_16  and  C9_17 
REMARK    7  A    between atoms: C9_17  and  N4_18 
ROOT
HETATM    1  C2  UNL     1     -16.009  42.223   9.767  1.00  0.00     0.162 C 
HETATM    2  C3  UNL     1     -16.985  42.596  10.881  1.00  0.00     0.035 C 
HETATM    3  C4  UNL     1     -16.626  41.767  12.085  1.00  0.00     0.005 C 
HETATM    4  C5  UNL     1     -15.228  41.246  11.718  1.00  0.00     0.036 C 
HETATM    5  C6  UNL     1     -15.474  40.886  10.265  1.00  0.00     0.215 C 
ENDROOT
BRANCH   5   6
HETATM    6  N3  UNL     1     -14.288  40.470   9.592  1.00  0.00    -0.068 N 
ATOM      7  H32 UNL     1     -14.507  39.778   8.876  1.00  0.00     0.277 HD
ATOM      8  H31 UNL     1     -13.930  41.221   9.002  1.00  0.00     0.277 HD
BRANCH   6   9
HETATM    9  C7  UNL     1     -13.258  39.981  10.468  1.00  0.00     0.234 C 
BRANCH   9  10
HETATM   10  C8  UNL     1     -12.070  39.587   9.669  1.00  0.00     0.047 C 
BRANCH  10  11
HETATM   11  C9  UNL     1     -11.742  38.130   9.672  1.00  0.00     0.123 C 
BRANCH  11  12
HETATM   12  N4  UNL     1     -10.362  37.798   9.598  1.00  0.00    -0.367 N 
HETATM   13  C10 UNL     1      -9.794  37.217  10.589  1.00  0.00     0.196 C 
HETATM   14  N5  UNL     1     -10.539  36.909  11.752  1.00  0.00    -0.067 NA
HETATM   15  N6  UNL     1      -8.424  36.868  10.558  1.00  0.00    -0.067 NA
ATOM     16  H4  UNL     1      -9.827  38.020   8.759  1.00  0.00     0.161 HD
ENDBRANCH  11  12
ENDBRANCH  10  11
ENDBRANCH   9  10
ENDBRANCH   6   9
ENDBRANCH   5   6
BRANCH   1  17
HETATM   17  O1  UNL     1     -14.992  43.210   9.783  1.00  0.00    -0.317 OA
BRANCH  17  18
HETATM   18  C1  UNL     1     -15.240  44.539  10.074  1.00  0.00     0.225 C 
HETATM   19  N1  UNL     1     -14.879  44.969  11.225  1.00  0.00    -0.368 N 
ATOM     20  H12 UNL     1     -15.062  45.949  11.440  1.00  0.00     0.159 HD
ATOM     21  H11 UNL     1     -14.427  44.327  11.877  1.00  0.00     0.159 HD
HETATM   22  N2  UNL     1     -15.867  45.430   9.171  1.00  0.00    -0.057 NA
ENDBRANCH  17  18
ENDBRANCH   1  17
TORSDOF 7
ENDMDL
MODEL 2
REMARK VINA RESULT: -7.151427375      2.792      3.393
REMARK  7 active torsions:
REMARK  status: ('A' for Active; 'I' for Inactive)
REMARK    1  A    between atoms: C1_4  and  O1_6 
REMARK    2  A    between atoms: O1_6  and  C2_7 
REMARK    3  A    between atoms: C6_11  and  N3_12 
REMARK    4  A    between atoms: N3_12  and  C7_15 
REMARK    5  A    between atoms: C7_15  and  C8_16 
REMARK    6  A    between atoms: C8_16  and  C9_17 
REMARK    7  A    between atoms: C9_17  and  N4_18 
ROOT
HETATM    1  C2  UNL     1     -15.829  39.747  10.782  1.00  0.00     0.162 C 
HETATM    2  C3  UNL     1     -16.238  41.095  11.371  1.00  0.00     0.035 C 
HETATM    3  C4  UNL     1     -15.002  41.715  11.966  1.00  0.00     0.005 C 
HETATM    4  C5  UNL     1     -13.881  40.865  11.350  1.00  0.00     0.036 C 
HETATM    5  C6  UNL     1     -14.506  39.491  11.494  1.00  0.00     0.215 C 
ENDROOT
BRANCH   5   6
HETATM    6  N3  UNL     1     -13.729  38.465  10.882  1.00  0.00    -0.068 N 
ATOM      7  H32 UNL     1     -13.493  37.741  11.561  1.00  0.00     0.277 HD
ATOM      8  H31 UNL     1     -14.301  37.918  10.239  1.00  0.00     0.277 HD
BRANCH   6   9
HETATM    9  C7  UNL     1     -12.544  38.942  10.221  1.00  0.00     0.234 C 
BRANCH   9  10
HETATM   10  C8  UNL     1     -12.097  37.944   9.217  1.00  0.00     0.047 C 
BRANCH  10  11
HETATM   11  C9  UNL     1     -10.819  37.237   9.531  1.00  0.00     0.123 C 
BRANCH  11  12
HETATM   12  N4  UNL     1     -10.636  36.844  10.884  1.00  0.00    -0.367 N 
HETATM   13  C10 UNL     1      -9.452  36.686  11.346  1.00  0.00     0.196 C 
HETATM   14  N5  UNL     1      -8.331  36.903  10.510  1.00  0.00    -0.067 NA
HETATM   15  N6  UNL     1      -9.224  36.296  12.686  1.00  0.00    -0.067 NA
ATOM     16  H4  UNL     1     -11.446  36.688  11.486  1.00  0.00     0.161 HD
ENDBRANCH  11  12
ENDBRANCH  10  11
ENDBRANCH   9  10
ENDBRANCH   6   9
ENDBRANCH   5   6
BRANCH   1  17
HETATM   17  O1  UNL     1     -15.621  39.965   9.397  1.00  0.00    -0.317 OA
BRANCH  17  18
HETATM   18  C1  UNL     1     -16.092  39.101   8.423  1.00  0.00     0.225 C 
HETATM   19  N1  UNL     1     -15.572  39.188   7.256  1.00  0.00    -0.368 N 
ATOM     20  H12 UNL     1     -15.919  38.552   6.539  1.00  0.00     0.159 HD
ATOM     21  H11 UNL     1     -14.841  39.879   7.087  1.00  0.00     0.159 HD
HETATM   22  N2  UNL     1     -17.106  38.143   8.657  1.00  0.00    -0.057 NA
ENDBRANCH  17  18
ENDBRANCH   1  17
TORSDOF 7
ENDMDL
MODEL 3
REMARK VINA RESULT: -7.150059494      1.355      2.037
REMARK  7 active torsions:
REMARK  status: ('A' for Active; 'I' for Inactive)
REMARK    1  A    between atoms: C1_4  and  O1_6 
REMARK    2  A    between atoms: O1_6  and  C2_7 
REMARK    3  A    between atoms: C6_11  and  N3_12 
REMARK    4  A    between atoms: N3_12  and  C7_15 
REMARK    5  A    between atoms: C7_15  and  C8_16 
REMARK    6  A    between atoms: C8_16  and  C9_17 
REMARK    7  A    between atoms: C9_17  and  N4_18 
ROOT
HETATM    1  C2  UNL     1     -15.130  40.918   9.949  1.00  0.00     0.162 C 
HETATM    2  C3  UNL     1     -15.936  40.078  10.937  1.00  0.00     0.035 C 
HETATM    3  C4  UNL     1     -15.015  39.017  11.477  1.00  0.00     0.005 C 
HETATM    4  C5  UNL     1     -13.633  39.542  11.061  1.00  0.00     0.036 C 
HETATM    5  C6  UNL     1     -13.956  39.993   9.649  1.00  0.00     0.215 C 
ENDROOT
BRANCH   5   6
HETATM    6  N3  UNL     1     -12.864  40.658   9.019  1.00  0.00    -0.068 N 
ATOM      7  H32 UNL     1     -13.185  41.500   8.541  1.00  0.00     0.277 HD
ATOM      8  H31 UNL     1     -12.252  41.079   9.718  1.00  0.00     0.277 HD
BRANCH   6   9
HETATM    9  C7  UNL     1     -12.109  39.826   8.123  1.00  0.00     0.234 C 
BRANCH   9  10
HETATM   10  C8  UNL     1     -10.931  39.266   8.834  1.00  0.00     0.047 C 
BRANCH  10  11
HETATM   11  C9  UNL     1     -11.002  37.810   9.157  1.00  0.00     0.123 C 
BRANCH  11  12
HETATM   12  N4  UNL     1     -10.772  37.457  10.514  1.00  0.00    -0.367 N 
HETATM   13  C10 UNL     1      -9.655  36.930  10.854  1.00  0.00     0.196 C 
HETATM   14  N5  UNL     1      -8.654  36.702   9.881  1.00  0.00    -0.067 NA
HETATM   15  N6  UNL     1      -9.384  36.564  12.193  1.00  0.00    -0.067 NA
ATOM     16  H4  UNL     1     -11.495  37.622  11.215  1.00  0.00     0.161 HD
ENDBRANCH  11  12
ENDBRANCH  10  11
ENDBRANCH   9  10
ENDBRANCH   6   9
ENDBRANCH   5   6
BRANCH   1  17
HETATM   17  O1  UNL     1     -14.697  42.064  10.661  1.00  0.00    -0.317 OA
BRANCH  17  18
HETATM   18  C1  UNL     1     -15.162  43.338  10.384  1.00  0.00     0.225 C 
HETATM   19  N1  UNL     1     -15.957  43.473   9.390  1.00  0.00    -0.368 N 
ATOM     20  H12 UNL     1     -16.299  44.412   9.186  1.00  0.00     0.159 HD
ATOM     21  H11 UNL     1     -16.217  42.650   8.845  1.00  0.00     0.159 HD
HETATM   22  N2  UNL     1     -14.801  44.478  11.139  1.00  0.00    -0.057 NA
ENDBRANCH  17  18
ENDBRANCH   1  17
TORSDOF 7
ENDMDL
MODEL 4
REMARK VINA RESULT: -7.129950948      1.145      1.333
REMARK  7 active torsions:
REMARK  status: ('A' for Active; 'I' for Inactive)
REMARK    1  A    between atoms: C1_4  and  O1_6 
REMARK    2  A    between atoms: O1_6  and  C2_7 
REMARK    3  A    between atoms: C6_11  and  N3_12 
REMARK    4  A    between atoms: N3_12  and  C7_15 
REMARK    5  A    between atoms: C7_15  and  C8_16 
REMARK    6  A    between atoms: C8_16  and  C9_17 
REMARK    7  A    between atoms: C9_17  and  N4_18 
ROOT
HETATM    1  C2  UNL     1     -16.781  42.532   9.750  1.00  0.00     0.162 C 
HETATM    2  C3  UNL     1     -17.697  42.994  10.880  1.00  0.00     0.035 C 
HETATM    3  C4  UNL     1     -17.208  42.340  12.145  1.00  0.00     0.005 C 
HETATM    4  C5  UNL     1     -15.812  41.845  11.739  1.00  0.00     0.036 C 
HETATM    5  C6  UNL     1     -16.137  41.294  10.364  1.00  0.00     0.215 C 
ENDROOT
BRANCH   5   6
HETATM    6  N3  UNL     1     -14.979  40.856   9.659  1.00  0.00    -0.068 N 
ATOM      7  H32 UNL     1     -15.233  40.506   8.735  1.00  0.00     0.277 HD
ATOM      8  H31 UNL     1     -14.402  41.652   9.388  1.00  0.00     0.277 HD
BRANCH   6   9
HETATM    9  C7  UNL     1     -14.194  39.883  10.368  1.00  0.00     0.234 C 
BRANCH   9  10
HETATM   10  C8  UNL     1     -13.912  38.726   9.481  1.00  0.00     0.047 C 
BRANCH  10  11
HETATM   11  C9  UNL     1     -12.469  38.393   9.288  1.00  0.00     0.123 C 
BRANCH  11  12
HETATM   12  N4  UNL     1     -11.706  38.202  10.471  1.00  0.00    -0.367 N 
HETATM   13  C10 UNL     1     -11.009  37.137  10.612  1.00  0.00     0.196 C 
HETATM   14  N5  UNL     1     -10.998  36.156   9.593  1.00  0.00    -0.067 NA
HETATM   15  N6  UNL     1     -10.234  36.906  11.773  1.00  0.00    -0.067 NA
ATOM     16  H4  UNL     1     -11.714  38.910  11.205  1.00  0.00     0.161 HD
ENDBRANCH  11  12
ENDBRANCH  10  11
ENDBRANCH   9  10
ENDBRANCH   6   9
ENDBRANCH   5   6
BRANCH   1  17
HETATM   17  O1  UNL     1     -15.823  43.560   9.569  1.00  0.00    -0.317 OA
BRANCH  17  18
HETATM   18  C1  UNL     1     -16.169  44.895   9.448  1.00  0.00     0.225 C 
HETATM   19  N1  UNL     1     -15.814  45.684  10.393  1.00  0.00    -0.368 N 
ATOM     20  H12 UNL     1     -16.068  46.667  10.304  1.00  0.00     0.159 HD
ATOM     21  H11 UNL     1     -15.297  45.308  11.188  1.00  0.00     0.159 HD
HETATM   22  N2  UNL     1     -16.885  45.416   8.346  1.00  0.00    -0.057 NA
ENDBRANCH  17  18
ENDBRANCH   1  17
TORSDOF 7
ENDMDL
MODEL 5
REMARK VINA RESULT: -7.061734158      3.196      6.745
REMARK  7 active torsions:
REMARK  status: ('A' for Active; 'I' for Inactive)
REMARK    1  A    between atoms: C1_4  and  O1_6 
REMARK    2  A    between atoms: O1_6  and  C2_7 
REMARK    3  A    between atoms: C6_11  and  N3_12 
REMARK    4  A    between atoms: N3_12  and  C7_15 
REMARK    5  A    between atoms: C7_15  and  C8_16 
REMARK    6  A    between atoms: C8_16  and  C9_17 
REMARK    7  A    between atoms: C9_17  and  N4_18 
ROOT
HETATM    1  C2  UNL     1     -14.840  40.213  10.018  1.00  0.00     0.162 C 
HETATM    2  C3  UNL     1     -13.953  40.499  11.227  1.00  0.00     0.035 C 
HETATM    3  C4  UNL     1     -14.717  41.429  12.131  1.00  0.00     0.005 C 
HETATM    4  C5  UNL     1     -16.146  41.320  11.579  1.00  0.00     0.036 C 
HETATM    5  C6  UNL     1     -15.840  41.361  10.093  1.00  0.00     0.215 C 
ENDROOT
BRANCH   5   6
HETATM    6  N3  UNL     1     -16.996  41.153   9.287  1.00  0.00    -0.068 N 
ATOM      7  H32 UNL     1     -16.855  40.363   8.657  1.00  0.00     0.277 HD
ATOM      8  H31 UNL     1     -17.764  40.788   9.850  1.00  0.00     0.277 HD
BRANCH   6   9
HETATM    9  C7  UNL     1     -17.416  42.315   8.552  1.00  0.00     0.234 C 
BRANCH   9  10
HETATM   10  C8  UNL     1     -18.488  43.019   9.302  1.00  0.00     0.047 C 
BRANCH  10  11
HETATM   11  C9  UNL     1     -18.110  44.342   9.883  1.00  0.00     0.123 C 
BRANCH  11  12
HETATM   12  N4  UNL     1     -16.983  44.349  10.747  1.00  0.00    -0.367 N 
HETATM   13  C10 UNL     1     -15.896  44.912  10.369  1.00  0.00     0.196 C 
HETATM   14  N5  UNL     1     -15.820  45.524   9.095  1.00  0.00    -0.067 NA
HETATM   15  N6  UNL     1     -14.749  44.943  11.197  1.00  0.00    -0.067 NA
ATOM     16  H4  UNL     1     -17.039  43.908  11.665  1.00  0.00     0.161 HD
ENDBRANCH  11  12
ENDBRANCH  10  11
ENDBRANCH   9  10
ENDBRANCH   6   9
ENDBRANCH   5   6
BRANCH   1  17
HETATM   17  O1  UNL     1     -15.477  38.974  10.275  1.00  0.00    -0.317 OA
BRANCH  17  18
HETATM   18  C1  UNL     1     -15.707  38.030   9.290  1.00  0.00     0.225 C 
HETATM   19  N1  UNL     1     -14.960  36.990   9.283  1.00  0.00    -0.368 N 
ATOM     20  H12 UNL     1     -15.130  36.294   8.557  1.00  0.00     0.159 HD
ATOM     21  H11 UNL     1     -14.233  36.894   9.992  1.00  0.00     0.159 HD
HETATM   22  N2  UNL     1     -16.715  38.162   8.307  1.00  0.00    -0.057 NA
ENDBRANCH  17  18
ENDBRANCH   1  17
TORSDOF 7
ENDMDL
