MODEL 1
REMARK VINA RESULT: -6.919228882      0.000      0.000
REMARK  8 active torsions:
REMARK  status: ('A' for Active; 'I' for Inactive)
REMARK    1  A    between atoms: N1_2  and  C2_5 
REMARK    2  A    between atoms: C2_5  and  C3_6 
REMARK    3  A    between atoms: C3_6  and  C4_7 
REMARK    4  A    between atoms: C6_11  and  N3_12 
REMARK    5  A    between atoms: N3_12  and  C7_14 
REMARK    6  A    between atoms: C7_14  and  C8_15 
REMARK    7  A    between atoms: C8_15  and  N4_16 
REMARK    8  A    between atoms: C9_22  and  N6_23 
ROOT
HETATM    1  C4  UNL     1     -15.844  40.079   9.698  1.00  0.00     0.085 A 
HETATM    2  N2  UNL     1     -16.523  41.016   9.022  1.00  0.00    -0.340 N 
ATOM      3  H2  UNL     1     -16.685  41.010   8.016  1.00  0.00     0.167 HD
HETATM    4  C5  UNL     1     -16.958  41.963   9.867  1.00  0.00     0.123 A 
HETATM    5  C6  UNL     1     -17.682  43.117   9.717  1.00  0.00     0.147 A 
HETATM    6  N5  UNL     1     -17.946  43.848  10.813  1.00  0.00    -0.175 N 
ATOM      7  H5  UNL     1     -18.484  44.707  10.702  1.00  0.00     0.186 HD
HETATM    8  C9  UNL     1     -17.537  43.505  12.058  1.00  0.00     0.679 A 
HETATM    9  N7  UNL     1     -16.828  42.380  12.212  1.00  0.00    -0.174 N 
ATOM     10  H7  UNL     1     -16.509  42.103  13.140  1.00  0.00     0.186 HD
HETATM   11  C10 UNL     1     -16.538  41.617  11.151  1.00  0.00     0.153 A 
HETATM   12  N8  UNL     1     -15.859  40.453  10.984  1.00  0.00    -0.330 N 
ATOM     13  H8  UNL     1     -15.418  39.930  11.741  1.00  0.00     0.168 HD
ENDROOT
BRANCH   5  14
HETATM   14  N3  UNL     1     -18.089  43.485   8.569  1.00  0.00    -0.372 N 
ATOM     15  H3  UNL     1     -17.965  42.834   7.795  1.00  0.00     0.161 HD
BRANCH  14  16
HETATM   16  C7  UNL     1     -18.706  44.741   8.283  1.00  0.00     0.148 C 
BRANCH  16  17
HETATM   17  C8  UNL     1     -18.002  45.316   7.050  1.00  0.00     0.249 C 
BRANCH  17  18
HETATM   18  N4  UNL     1     -16.697  45.758   7.528  1.00  0.00    -0.078 N 
ATOM     19  H43 UNL     1     -15.958  45.064   7.413  1.00  0.00     0.274 HD
ATOM     20  H42 UNL     1     -16.269  46.481   6.949  1.00  0.00     0.274 HD
ATOM     21  H41 UNL     1     -16.850  46.042   8.496  1.00  0.00     0.274 HD
ENDBRANCH  17  18
ENDBRANCH  16  17
ENDBRANCH  14  16
ENDBRANCH   5  14
BRANCH   8  22
HETATM   22  N6  UNL     1     -17.834  44.267  13.076  1.00  0.00    -0.234 N 
ATOM     23  H62 UNL     1     -18.093  45.247  12.951  1.00  0.00     0.174 HD
ATOM     24  H61 UNL     1     -17.811  43.887  14.022  1.00  0.00     0.174 HD
ENDBRANCH   8  22
BRANCH   1  25
HETATM   25  C3  UNL     1     -15.197  38.838   9.154  1.00  0.00     0.104 C 
BRANCH  25  26
HETATM   26  C2  UNL     1     -13.730  38.828   9.427  1.00  0.00     0.239 C 
BRANCH  26  27
HETATM   27  N1  UNL     1     -13.089  37.560   9.334  1.00  0.00    -0.079 N 
HETATM   28  C1  UNL     1     -11.646  37.624   9.282  1.00  0.00     0.267 C 
ATOM     29  H12 UNL     1     -13.451  37.036   8.537  1.00  0.00     0.276 HD
ATOM     30  H11 UNL     1     -13.391  36.952  10.095  1.00  0.00     0.276 HD
ENDBRANCH  26  27
ENDBRANCH  25  26
ENDBRANCH   1  25
TORSDOF 8
ENDMDL
MODEL 2
REMARK VINA RESULT: -6.715536085      2.119      6.437
REMARK  8 active torsions:
REMARK  status: ('A' for Active; 'I' for Inactive)
REMARK    1  A    between atoms: N1_2  and  C2_5 
REMARK    2  A    between atoms: C2_5  and  C3_6 
REMARK    3  A    between atoms: C3_6  and  C4_7 
REMARK    4  A    between atoms: C6_11  and  N3_12 
REMARK    5  A    between atoms: N3_12  and  C7_14 
REMARK    6  A    between atoms: C7_14  and  C8_15 
REMARK    7  A    between atoms: C8_15  and  N4_16 
REMARK    8  A    between atoms: C9_22  and  N6_23 
ROOT
HETATM    1  C4  UNL     1     -15.853  41.986  10.682  1.00  0.00     0.085 A 
HETATM    2  N2  UNL     1     -14.716  41.800   9.996  1.00  0.00    -0.340 N 
ATOM      3  H2  UNL     1     -14.088  42.544   9.692  1.00  0.00     0.167 HD
HETATM    4  C5  UNL     1     -14.529  40.492   9.769  1.00  0.00     0.123 A 
HETATM    5  C6  UNL     1     -13.559  39.763   9.133  1.00  0.00     0.147 A 
HETATM    6  N5  UNL     1     -13.692  38.426   9.094  1.00  0.00    -0.175 N 
ATOM      7  H5  UNL     1     -12.971  37.883   8.620  1.00  0.00     0.186 HD
HETATM    8  C9  UNL     1     -14.732  37.761   9.650  1.00  0.00     0.679 A 
HETATM    9  N7  UNL     1     -15.684  38.467  10.273  1.00  0.00    -0.174 N 
ATOM     10  H7  UNL     1     -16.477  37.987  10.698  1.00  0.00     0.186 HD
HETATM   11  C10 UNL     1     -15.599  39.801  10.338  1.00  0.00     0.153 A 
HETATM   12  N8  UNL     1     -16.378  40.771  10.883  1.00  0.00    -0.330 N 
ATOM     13  H8  UNL     1     -17.250  40.596  11.382  1.00  0.00     0.168 HD
ENDROOT
BRANCH   5  14
HETATM   14  N3  UNL     1     -12.562  40.338   8.591  1.00  0.00    -0.372 N 
ATOM     15  H3  UNL     1     -12.735  41.210   8.093  1.00  0.00     0.161 HD
BRANCH  14  16
HETATM   16  C7  UNL     1     -11.218  39.856   8.629  1.00  0.00     0.148 C 
BRANCH  16  17
HETATM   17  C8  UNL     1     -10.613  40.105   7.243  1.00  0.00     0.249 C 
BRANCH  17  18
HETATM   18  N4  UNL     1     -11.280  39.156   6.360  1.00  0.00    -0.078 N 
ATOM     19  H43 UNL     1     -10.678  38.398   6.038  1.00  0.00     0.274 HD
ATOM     20  H42 UNL     1     -11.968  38.567   6.831  1.00  0.00     0.274 HD
ATOM     21  H41 UNL     1     -11.670  39.722   5.606  1.00  0.00     0.274 HD
ENDBRANCH  17  18
ENDBRANCH  16  17
ENDBRANCH  14  16
ENDBRANCH   5  14
BRANCH   8  22
HETATM   22  N6  UNL     1     -14.792  36.458   9.573  1.00  0.00    -0.234 N 
ATOM     23  H62 UNL     1     -15.147  35.991   8.738  1.00  0.00     0.174 HD
ATOM     24  H61 UNL     1     -14.479  35.886  10.356  1.00  0.00     0.174 HD
ENDBRANCH   8  22
BRANCH   1  25
HETATM   25  C3  UNL     1     -16.440  43.284  11.158  1.00  0.00     0.104 C 
BRANCH  25  26
HETATM   26  C2  UNL     1     -15.502  44.421  10.925  1.00  0.00     0.239 C 
BRANCH  26  27
HETATM   27  N1  UNL     1     -16.049  45.550  10.252  1.00  0.00    -0.079 N 
HETATM   28  C1  UNL     1     -16.546  45.270   8.925  1.00  0.00     0.267 C 
ATOM     29  H12 UNL     1     -15.371  46.311  10.225  1.00  0.00     0.276 HD
ATOM     30  H11 UNL     1     -16.777  45.984  10.820  1.00  0.00     0.276 HD
ENDBRANCH  26  27
ENDBRANCH  25  26
ENDBRANCH   1  25
TORSDOF 8
ENDMDL
MODEL 3
REMARK VINA RESULT: -6.581494505      1.441      1.486
REMARK  8 active torsions:
REMARK  status: ('A' for Active; 'I' for Inactive)
REMARK    1  A    between atoms: N1_2  and  C2_5 
REMARK    2  A    between atoms: C2_5  and  C3_6 
REMARK    3  A    between atoms: C3_6  and  C4_7 
REMARK    4  A    between atoms: C6_11  and  N3_12 
REMARK    5  A    between atoms: N3_12  and  C7_14 
REMARK    6  A    between atoms: C7_14  and  C8_15 
REMARK    7  A    between atoms: C8_15  and  N4_16 
REMARK    8  A    between atoms: C9_22  and  N6_23 
ROOT
HETATM    1  C4  UNL     1     -15.440  40.127  10.016  1.00  0.00     0.085 A 
HETATM    2  N2  UNL     1     -15.321  41.373   9.537  1.00  0.00    -0.340 N 
ATOM      3  H2  UNL     1     -14.822  41.628   8.686  1.00  0.00     0.167 HD
HETATM    4  C5  UNL     1     -15.958  42.234  10.345  1.00  0.00     0.123 A 
HETATM    5  C6  UNL     1     -16.150  43.591  10.332  1.00  0.00     0.147 A 
HETATM    6  N5  UNL     1     -16.862  44.141  11.330  1.00  0.00    -0.175 N 
ATOM      7  H5  UNL     1     -17.005  45.150  11.321  1.00  0.00     0.186 HD
HETATM    8  C9  UNL     1     -17.401  43.427  12.347  1.00  0.00     0.679 A 
HETATM    9  N7  UNL     1     -17.217  42.101  12.366  1.00  0.00    -0.174 N 
ATOM     10  H7  UNL     1     -17.613  41.543  13.122  1.00  0.00     0.186 HD
HETATM   11  C10 UNL     1     -16.514  41.505  11.396  1.00  0.00     0.153 A 
HETATM   12  N8  UNL     1     -16.162  40.218  11.140  1.00  0.00    -0.330 N 
ATOM     13  H8  UNL     1     -16.416  39.424  11.727  1.00  0.00     0.168 HD
ENDROOT
BRANCH   5  14
HETATM   14  N3  UNL     1     -15.663  44.308   9.401  1.00  0.00    -0.372 N 
ATOM     15  H3  UNL     1     -14.814  43.976   8.946  1.00  0.00     0.161 HD
BRANCH  14  16
HETATM   16  C7  UNL     1     -16.215  45.544   8.946  1.00  0.00     0.148 C 
BRANCH  16  17
HETATM   17  C8  UNL     1     -17.345  45.198   7.970  1.00  0.00     0.249 C 
BRANCH  17  18
HETATM   18  N4  UNL     1     -17.030  45.929   6.748  1.00  0.00    -0.078 N 
ATOM     19  H43 UNL     1     -17.217  46.931   6.807  1.00  0.00     0.274 HD
ATOM     20  H42 UNL     1     -16.030  46.006   6.560  1.00  0.00     0.274 HD
ATOM     21  H41 UNL     1     -17.553  45.455   6.011  1.00  0.00     0.274 HD
ENDBRANCH  17  18
ENDBRANCH  16  17
ENDBRANCH  14  16
ENDBRANCH   5  14
BRANCH   8  22
HETATM   22  N6  UNL     1     -18.084  44.033  13.281  1.00  0.00    -0.234 N 
ATOM     23  H62 UNL     1     -17.650  44.310  14.162  1.00  0.00     0.174 HD
ATOM     24  H61 UNL     1     -19.072  44.239  13.139  1.00  0.00     0.174 HD
ENDBRANCH   8  22
BRANCH   1  25
HETATM   25  C3  UNL     1     -14.895  38.857   9.426  1.00  0.00     0.104 C 
BRANCH  25  26
HETATM   26  C2  UNL     1     -13.413  38.924   9.271  1.00  0.00     0.239 C 
BRANCH  26  27
HETATM   27  N1  UNL     1     -12.940  39.454   8.037  1.00  0.00    -0.079 N 
HETATM   28  C1  UNL     1     -11.846  40.390   8.170  1.00  0.00     0.267 C 
ATOM     29  H12 UNL     1     -13.707  39.877   7.514  1.00  0.00     0.276 HD
ATOM     30  H11 UNL     1     -12.687  38.700   7.399  1.00  0.00     0.276 HD
ENDBRANCH  26  27
ENDBRANCH  25  26
ENDBRANCH   1  25
TORSDOF 8
ENDMDL
MODEL 4
REMARK VINA RESULT: -6.571697270      1.380      1.574
REMARK  8 active torsions:
REMARK  status: ('A' for Active; 'I' for Inactive)
REMARK    1  A    between atoms: N1_2  and  C2_5 
REMARK    2  A    between atoms: C2_5  and  C3_6 
REMARK    3  A    between atoms: C3_6  and  C4_7 
REMARK    4  A    between atoms: C6_11  and  N3_12 
REMARK    5  A    between atoms: N3_12  and  C7_14 
REMARK    6  A    between atoms: C7_14  and  C8_15 
REMARK    7  A    between atoms: C8_15  and  N4_16 
REMARK    8  A    between atoms: C9_22  and  N6_23 
ROOT
HETATM    1  C4  UNL     1     -13.918  40.268  10.273  1.00  0.00     0.085 A 
HETATM    2  N2  UNL     1     -14.874  40.727   9.453  1.00  0.00    -0.340 N 
ATOM      3  H2  UNL     1     -14.891  40.597   8.442  1.00  0.00     0.167 HD
HETATM    4  C5  UNL     1     -15.806  41.383  10.162  1.00  0.00     0.123 A 
HETATM    5  C6  UNL     1     -16.967  42.033   9.839  1.00  0.00     0.147 A 
HETATM    6  N5  UNL     1     -17.678  42.594  10.832  1.00  0.00    -0.175 N 
ATOM      7  H5  UNL     1     -18.542  43.079  10.592  1.00  0.00     0.186 HD
HETATM    8  C9  UNL     1     -17.308  42.551  12.134  1.00  0.00     0.679 A 
HETATM    9  N7  UNL     1     -16.174  41.918  12.457  1.00  0.00    -0.174 N 
ATOM     10  H7  UNL     1     -15.876  41.873  13.431  1.00  0.00     0.186 HD
HETATM   11  C10 UNL     1     -15.430  41.343  11.504  1.00  0.00     0.153 A 
HETATM   12  N8  UNL     1     -14.264  40.646  11.510  1.00  0.00    -0.330 N 
ATOM     13  H8  UNL     1     -13.721  40.437  12.348  1.00  0.00     0.168 HD
ENDROOT
BRANCH   5  14
HETATM   14  N3  UNL     1     -17.359  42.105   8.631  1.00  0.00    -0.372 N 
ATOM     15  H3  UNL     1     -16.729  41.756   7.910  1.00  0.00     0.161 HD
BRANCH  14  16
HETATM   16  C7  UNL     1     -18.615  42.638   8.207  1.00  0.00     0.148 C 
BRANCH  16  17
HETATM   17  C8  UNL     1     -18.327  43.986   7.537  1.00  0.00     0.249 C 
BRANCH  17  18
HETATM   18  N4  UNL     1     -18.645  44.989   8.547  1.00  0.00    -0.078 N 
ATOM     19  H43 UNL     1     -17.919  45.106   9.254  1.00  0.00     0.274 HD
ATOM     20  H42 UNL     1     -18.624  45.947   8.197  1.00  0.00     0.274 HD
ATOM     21  H41 UNL     1     -19.549  44.707   8.926  1.00  0.00     0.274 HD
ENDBRANCH  17  18
ENDBRANCH  16  17
ENDBRANCH  14  16
ENDBRANCH   5  14
BRANCH   8  22
HETATM   22  N6  UNL     1     -18.053  43.119  13.044  1.00  0.00    -0.234 N 
ATOM     23  H62 UNL     1     -18.794  43.774  12.793  1.00  0.00     0.174 HD
ATOM     24  H61 UNL     1     -17.900  42.912  14.031  1.00  0.00     0.174 HD
ENDBRANCH   8  22
BRANCH   1  25
HETATM   25  C3  UNL     1     -12.697  39.472   9.909  1.00  0.00     0.104 C 
BRANCH  25  26
HETATM   26  C2  UNL     1     -13.065  38.119   9.399  1.00  0.00     0.239 C 
BRANCH  26  27
HETATM   27  N1  UNL     1     -12.017  37.155   9.383  1.00  0.00    -0.079 N 
HETATM   28  C1  UNL     1     -10.771  37.618   9.950  1.00  0.00     0.267 C 
ATOM     29  H12 UNL     1     -11.869  36.805   8.436  1.00  0.00     0.276 HD
ATOM     30  H11 UNL     1     -12.318  36.295   9.842  1.00  0.00     0.276 HD
ENDBRANCH  26  27
ENDBRANCH  25  26
ENDBRANCH   1  25
TORSDOF 8
ENDMDL
MODEL 5
REMARK VINA RESULT: -6.475070451      2.634      6.959
REMARK  8 active torsions:
REMARK  status: ('A' for Active; 'I' for Inactive)
REMARK    1  A    between atoms: N1_2  and  C2_5 
REMARK    2  A    between atoms: C2_5  and  C3_6 
REMARK    3  A    between atoms: C3_6  and  C4_7 
REMARK    4  A    between atoms: C6_11  and  N3_12 
REMARK    5  A    between atoms: N3_12  and  C7_14 
REMARK    6  A    between atoms: C7_14  and  C8_15 
REMARK    7  A    between atoms: C8_15  and  N4_16 
REMARK    8  A    between atoms: C9_22  and  N6_23 
ROOT
HETATM    1  C4  UNL     1     -14.695  40.737  10.659  1.00  0.00     0.085 A 
HETATM    2  N2  UNL     1     -14.131  40.749   9.444  1.00  0.00    -0.340 N 
ATOM      3  H2  UNL     1     -14.413  41.354   8.673  1.00  0.00     0.167 HD
HETATM    4  C5  UNL     1     -13.139  39.847   9.392  1.00  0.00     0.123 A 
HETATM    5  C6  UNL     1     -12.256  39.455   8.421  1.00  0.00     0.147 A 
HETATM    6  N5  UNL     1     -11.367  38.493   8.722  1.00  0.00    -0.175 N 
ATOM      7  H5  UNL     1     -10.710  38.200   8.000  1.00  0.00     0.186 HD
HETATM    8  C9  UNL     1     -11.296  37.893   9.934  1.00  0.00     0.679 A 
HETATM    9  N7  UNL     1     -12.156  38.271  10.887  1.00  0.00    -0.174 N 
ATOM     10  H7  UNL     1     -12.121  37.832  11.807  1.00  0.00     0.186 HD
HETATM   11  C10 UNL     1     -13.062  39.223  10.637  1.00  0.00     0.153 A 
HETATM   12  N8  UNL     1     -14.041  39.811  11.372  1.00  0.00    -0.330 N 
ATOM     13  H8  UNL     1     -14.252  39.577  12.342  1.00  0.00     0.168 HD
ENDROOT
BRANCH   5  14
HETATM   14  N3  UNL     1     -12.281  39.985   7.265  1.00  0.00    -0.372 N 
ATOM     15  H3  UNL     1     -13.085  39.782   6.672  1.00  0.00     0.161 HD
BRANCH  14  16
HETATM   16  C7  UNL     1     -11.270  40.843   6.735  1.00  0.00     0.148 C 
BRANCH  16  17
HETATM   17  C8  UNL     1     -10.487  40.027   5.699  1.00  0.00     0.249 C 
BRANCH  17  18
HETATM   18  N4  UNL     1      -9.085  40.207   6.054  1.00  0.00    -0.078 N 
ATOM     19  H43 UNL     1      -8.499  40.518   5.279  1.00  0.00     0.274 HD
ATOM     20  H42 UNL     1      -8.912  41.009   6.661  1.00  0.00     0.274 HD
ATOM     21  H41 UNL     1      -8.796  39.316   6.458  1.00  0.00     0.274 HD
ENDBRANCH  17  18
ENDBRANCH  16  17
ENDBRANCH  14  16
ENDBRANCH   5  14
BRANCH   8  22
HETATM   22  N6  UNL     1     -10.402  36.966  10.152  1.00  0.00    -0.234 N 
ATOM     23  H62 UNL     1     -10.423  36.077   9.651  1.00  0.00     0.174 HD
ATOM     24  H61 UNL     1      -9.661  37.122  10.836  1.00  0.00     0.174 HD
ENDBRANCH   8  22
BRANCH   1  25
HETATM   25  C3  UNL     1     -15.827  41.589  11.159  1.00  0.00     0.104 C 
BRANCH  25  26
HETATM   26  C2  UNL     1     -15.428  43.025  11.240  1.00  0.00     0.239 C 
BRANCH  26  27
HETATM   27  N1  UNL     1     -16.311  43.874  11.965  1.00  0.00    -0.079 N 
HETATM   28  C1  UNL     1     -17.691  43.444  11.961  1.00  0.00     0.267 C 
ATOM     29  H12 UNL     1     -16.238  44.835  11.629  1.00  0.00     0.276 HD
ATOM     30  H11 UNL     1     -15.980  43.998  12.922  1.00  0.00     0.276 HD
ENDBRANCH  26  27
ENDBRANCH  25  26
ENDBRANCH   1  25
TORSDOF 8
ENDMDL
