MODEL 1
REMARK VINA RESULT: -7.065722348      0.000      0.000
REMARK  8 active torsions:
REMARK  status: ('A' for Active; 'I' for Inactive)
REMARK    1  A    between atoms: N1_2  and  C2_5 
REMARK    2  A    between atoms: C2_5  and  C3_6 
REMARK    3  A    between atoms: C3_6  and  O1_7 
REMARK    4  A    between atoms: O1_7  and  C4_8 
REMARK    5  A    between atoms: C4_8  and  C5_9 
REMARK    6  A    between atoms: C5_9  and  N2_10 
REMARK    7  A    between atoms: N2_10  and  C6_12 
REMARK    8  A    between atoms: C7_15  and  N4_16 
ROOT
HETATM    1  C6  UNL     1     -15.659  42.195  10.435  1.00  0.00     0.149 A 
HETATM    2  N3  UNL     1     -16.577  41.792  11.299  1.00  0.00    -0.175 N 
ATOM      3  H3  UNL     1     -16.631  40.794  11.504  1.00  0.00     0.186 HD
HETATM    4  C7  UNL     1     -17.452  42.616  11.931  1.00  0.00     0.679 A 
HETATM    5  N5  UNL     1     -17.368  43.923  11.652  1.00  0.00    -0.173 N 
ATOM      6  H5  UNL     1     -18.007  44.577  12.105  1.00  0.00     0.186 HD
HETATM    7  C8  UNL     1     -16.447  44.389  10.777  1.00  0.00     0.167 A 
HETATM    8  N6  UNL     1     -15.882  45.413  10.126  1.00  0.00    -0.282 N 
ATOM      9  H6  UNL     1     -16.048  46.419  10.113  1.00  0.00     0.188 HD
HETATM   10  N7  UNL     1     -15.028  44.625   9.507  1.00  0.00    -0.292 N 
ATOM     11  H7  UNL     1     -14.276  44.764   8.832  1.00  0.00     0.187 HD
HETATM   12  C9  UNL     1     -15.562  43.552  10.139  1.00  0.00     0.138 A 
ENDROOT
BRANCH   1  13
HETATM   13  N2  UNL     1     -14.834  41.409   9.817  1.00  0.00    -0.372 N 
ATOM     14  H2  UNL     1     -14.334  41.788   9.012  1.00  0.00     0.161 HD
BRANCH  13  15
HETATM   15  C5  UNL     1     -14.570  40.047  10.180  1.00  0.00     0.147 C 
BRANCH  15  16
HETATM   16  C4  UNL     1     -13.492  40.020  11.243  1.00  0.00     0.187 C 
BRANCH  16  17
HETATM   17  O1  UNL     1     -12.396  39.298  10.894  1.00  0.00    -0.388 OA
BRANCH  17  18
HETATM   18  C3  UNL     1     -12.257  38.854   9.626  1.00  0.00     0.195 C 
BRANCH  18  19
HETATM   19  C2  UNL     1     -11.499  37.595   9.398  1.00  0.00     0.258 C 
BRANCH  19  20
HETATM   20  N1  UNL     1     -10.884  37.262  10.701  1.00  0.00    -0.077 N 
HETATM   21  C1  UNL     1      -9.471  36.964  10.500  1.00  0.00     0.267 C 
ATOM     22  H12 UNL     1     -11.376  36.508  11.180  1.00  0.00     0.276 HD
ATOM     23  H11 UNL     1     -11.031  37.994  11.397  1.00  0.00     0.276 HD
ENDBRANCH  19  20
ENDBRANCH  18  19
ENDBRANCH  17  18
ENDBRANCH  16  17
ENDBRANCH  15  16
ENDBRANCH  13  15
ENDBRANCH   1  13
BRANCH   4  24
HETATM   24  N4  UNL     1     -18.322  42.160  12.765  1.00  0.00    -0.234 N 
ATOM     25  H42 UNL     1     -19.249  42.577  12.852  1.00  0.00     0.174 HD
ATOM     26  H41 UNL     1     -18.113  41.367  13.372  1.00  0.00     0.174 HD
ENDBRANCH   4  24
TORSDOF 8
ENDMDL
MODEL 2
REMARK VINA RESULT: -7.056984504      1.528      1.968
REMARK  8 active torsions:
REMARK  status: ('A' for Active; 'I' for Inactive)
REMARK    1  A    between atoms: N1_2  and  C2_5 
REMARK    2  A    between atoms: C2_5  and  C3_6 
REMARK    3  A    between atoms: C3_6  and  O1_7 
REMARK    4  A    between atoms: O1_7  and  C4_8 
REMARK    5  A    between atoms: C4_8  and  C5_9 
REMARK    6  A    between atoms: C5_9  and  N2_10 
REMARK    7  A    between atoms: N2_10  and  C6_12 
REMARK    8  A    between atoms: C7_15  and  N4_16 
ROOT
HETATM    1  C6  UNL     1     -15.698  42.211  10.442  1.00  0.00     0.149 A 
HETATM    2  N3  UNL     1     -16.609  41.810  11.315  1.00  0.00    -0.175 N 
ATOM      3  H3  UNL     1     -16.662  40.813  11.522  1.00  0.00     0.186 HD
HETATM    4  C7  UNL     1     -17.478  42.636  11.953  1.00  0.00     0.679 A 
HETATM    5  N5  UNL     1     -17.395  43.943  11.670  1.00  0.00    -0.173 N 
ATOM      6  H5  UNL     1     -18.029  44.598  12.128  1.00  0.00     0.186 HD
HETATM    7  C8  UNL     1     -16.481  44.406  10.787  1.00  0.00     0.167 A 
HETATM    8  N6  UNL     1     -15.920  45.428  10.129  1.00  0.00    -0.282 N 
ATOM      9  H6  UNL     1     -16.086  46.435  10.116  1.00  0.00     0.188 HD
HETATM   10  N7  UNL     1     -15.073  44.638   9.505  1.00  0.00    -0.292 N 
ATOM     11  H7  UNL     1     -14.326  44.776   8.823  1.00  0.00     0.187 HD
HETATM   12  C9  UNL     1     -15.602  43.567  10.143  1.00  0.00     0.138 A 
ENDROOT
BRANCH   1  13
HETATM   13  N2  UNL     1     -14.879  41.423   9.819  1.00  0.00    -0.372 N 
ATOM     14  H2  UNL     1     -14.395  41.796   9.002  1.00  0.00     0.161 HD
BRANCH  13  15
HETATM   15  C5  UNL     1     -14.600  40.066  10.193  1.00  0.00     0.147 C 
BRANCH  15  16
HETATM   16  C4  UNL     1     -13.547  40.061  11.280  1.00  0.00     0.187 C 
BRANCH  16  17
HETATM   17  O1  UNL     1     -12.276  40.168  10.812  1.00  0.00    -0.388 OA
BRANCH  17  18
HETATM   18  C3  UNL     1     -11.891  39.445   9.737  1.00  0.00     0.195 C 
BRANCH  18  19
HETATM   19  C2  UNL     1     -11.029  40.103   8.719  1.00  0.00     0.258 C 
BRANCH  19  20
HETATM   20  N1  UNL     1     -11.958  40.809   7.811  1.00  0.00    -0.077 N 
HETATM   21  C1  UNL     1     -11.316  40.986   6.514  1.00  0.00     0.267 C 
ATOM     22  H12 UNL     1     -12.289  41.690   8.203  1.00  0.00     0.276 HD
ATOM     23  H11 UNL     1     -12.860  40.338   7.736  1.00  0.00     0.276 HD
ENDBRANCH  19  20
ENDBRANCH  18  19
ENDBRANCH  17  18
ENDBRANCH  16  17
ENDBRANCH  15  16
ENDBRANCH  13  15
ENDBRANCH   1  13
BRANCH   4  24
HETATM   24  N4  UNL     1     -18.341  42.183  12.795  1.00  0.00    -0.234 N 
ATOM     25  H42 UNL     1     -18.056  41.789  13.692  1.00  0.00     0.174 HD
ATOM     26  H41 UNL     1     -19.341  42.199  12.594  1.00  0.00     0.174 HD
ENDBRANCH   4  24
TORSDOF 8
ENDMDL
MODEL 3
REMARK VINA RESULT: -6.946694939      1.330      2.644
REMARK  8 active torsions:
REMARK  status: ('A' for Active; 'I' for Inactive)
REMARK    1  A    between atoms: N1_2  and  C2_5 
REMARK    2  A    between atoms: C2_5  and  C3_6 
REMARK    3  A    between atoms: C3_6  and  O1_7 
REMARK    4  A    between atoms: O1_7  and  C4_8 
REMARK    5  A    between atoms: C4_8  and  C5_9 
REMARK    6  A    between atoms: C5_9  and  N2_10 
REMARK    7  A    between atoms: N2_10  and  C6_12 
REMARK    8  A    between atoms: C7_15  and  N4_16 
ROOT
HETATM    1  C6  UNL     1     -16.427  42.157  10.038  1.00  0.00     0.149 A 
HETATM    2  N3  UNL     1     -15.885  43.159   9.363  1.00  0.00    -0.175 N 
ATOM      3  H3  UNL     1     -15.365  42.934   8.515  1.00  0.00     0.186 HD
HETATM    4  C7  UNL     1     -15.975  44.465   9.723  1.00  0.00     0.679 A 
HETATM    5  N5  UNL     1     -16.663  44.743  10.838  1.00  0.00    -0.173 N 
ATOM      6  H5  UNL     1     -16.755  45.712  11.144  1.00  0.00     0.186 HD
HETATM    7  C8  UNL     1     -17.238  43.757  11.564  1.00  0.00     0.167 A 
HETATM    8  N6  UNL     1     -17.963  43.368  12.620  1.00  0.00    -0.282 N 
ATOM      9  H6  UNL     1     -18.407  43.865  13.393  1.00  0.00     0.188 HD
HETATM   10  N7  UNL     1     -17.883  42.099  12.282  1.00  0.00    -0.292 N 
ATOM     11  H7  UNL     1     -18.232  41.224  12.674  1.00  0.00     0.187 HD
HETATM   12  C9  UNL     1     -17.146  42.435  11.196  1.00  0.00     0.138 A 
ENDROOT
BRANCH   1  13
HETATM   13  N2  UNL     1     -16.329  40.907   9.706  1.00  0.00    -0.372 N 
ATOM     14  H2  UNL     1     -16.805  40.606   8.855  1.00  0.00     0.161 HD
BRANCH  13  15
HETATM   15  C5  UNL     1     -15.600  39.917  10.444  1.00  0.00     0.147 C 
BRANCH  15  16
HETATM   16  C4  UNL     1     -15.402  38.696   9.571  1.00  0.00     0.187 C 
BRANCH  16  17
HETATM   17  O1  UNL     1     -14.226  38.051   9.788  1.00  0.00    -0.388 OA
BRANCH  17  18
HETATM   18  C3  UNL     1     -13.071  38.751   9.824  1.00  0.00     0.195 C 
BRANCH  18  19
HETATM   19  C2  UNL     1     -11.944  38.295   8.966  1.00  0.00     0.258 C 
BRANCH  19  20
HETATM   20  N1  UNL     1     -11.693  36.891   9.355  1.00  0.00    -0.077 N 
HETATM   21  C1  UNL     1     -10.460  36.823  10.130  1.00  0.00     0.267 C 
ATOM     22  H12 UNL     1     -11.681  36.262   8.552  1.00  0.00     0.276 HD
ATOM     23  H11 UNL     1     -12.484  36.478   9.849  1.00  0.00     0.276 HD
ENDBRANCH  19  20
ENDBRANCH  18  19
ENDBRANCH  17  18
ENDBRANCH  16  17
ENDBRANCH  15  16
ENDBRANCH  13  15
ENDBRANCH   1  13
BRANCH   4  24
HETATM   24  N4  UNL     1     -15.426  45.395   9.020  1.00  0.00    -0.234 N 
ATOM     25  H42 UNL     1     -14.474  45.712   9.204  1.00  0.00     0.174 HD
ATOM     26  H41 UNL     1     -15.926  45.850   8.256  1.00  0.00     0.174 HD
ENDBRANCH   4  24
TORSDOF 8
ENDMDL
MODEL 4
REMARK VINA RESULT: -6.936459029      1.915      3.140
REMARK  8 active torsions:
REMARK  status: ('A' for Active; 'I' for Inactive)
REMARK    1  A    between atoms: N1_2  and  C2_5 
REMARK    2  A    between atoms: C2_5  and  C3_6 
REMARK    3  A    between atoms: C3_6  and  O1_7 
REMARK    4  A    between atoms: O1_7  and  C4_8 
REMARK    5  A    between atoms: C4_8  and  C5_9 
REMARK    6  A    between atoms: C5_9  and  N2_10 
REMARK    7  A    between atoms: N2_10  and  C6_12 
REMARK    8  A    between atoms: C7_15  and  N4_16 
ROOT
HETATM    1  C6  UNL     1     -16.402  42.144  10.063  1.00  0.00     0.149 A 
HETATM    2  N3  UNL     1     -15.847  43.144   9.395  1.00  0.00    -0.175 N 
ATOM      3  H3  UNL     1     -15.316  42.917   8.555  1.00  0.00     0.186 HD
HETATM    4  C7  UNL     1     -15.938  44.451   9.754  1.00  0.00     0.679 A 
HETATM    5  N5  UNL     1     -16.641  44.732  10.859  1.00  0.00    -0.173 N 
ATOM      6  H5  UNL     1     -16.733  45.701  11.164  1.00  0.00     0.186 HD
HETATM    7  C8  UNL     1     -17.229  43.748  11.577  1.00  0.00     0.167 A 
HETATM    8  N6  UNL     1     -17.970  43.362  12.624  1.00  0.00    -0.282 N 
ATOM      9  H6  UNL     1     -18.423  43.860  13.390  1.00  0.00     0.188 HD
HETATM   10  N7  UNL     1     -17.890  42.092  12.287  1.00  0.00    -0.292 N 
ATOM     11  H7  UNL     1     -18.247  41.219  12.674  1.00  0.00     0.187 HD
HETATM   12  C9  UNL     1     -17.136  42.426  11.211  1.00  0.00     0.138 A 
ENDROOT
BRANCH   1  13
HETATM   13  N2  UNL     1     -16.304  40.894   9.732  1.00  0.00    -0.372 N 
ATOM     14  H2  UNL     1     -16.665  40.618   8.819  1.00  0.00     0.161 HD
BRANCH  13  15
HETATM   15  C5  UNL     1     -15.724  39.871  10.555  1.00  0.00     0.147 C 
BRANCH  15  16
HETATM   16  C4  UNL     1     -15.112  38.811   9.664  1.00  0.00     0.187 C 
BRANCH  16  17
HETATM   17  O1  UNL     1     -13.912  38.351  10.105  1.00  0.00    -0.388 OA
BRANCH  17  18
HETATM   18  C3  UNL     1     -12.810  38.501   9.337  1.00  0.00     0.195 C 
BRANCH  18  19
HETATM   19  C2  UNL     1     -12.438  39.873   8.899  1.00  0.00     0.258 C 
BRANCH  19  20
HETATM   20  N1  UNL     1     -12.561  39.866   7.426  1.00  0.00    -0.077 N 
HETATM   21  C1  UNL     1     -11.463  40.633   6.851  1.00  0.00     0.267 C 
ATOM     22  H12 UNL     1     -13.473  40.199   7.112  1.00  0.00     0.276 HD
ATOM     23  H11 UNL     1     -12.615  38.921   7.046  1.00  0.00     0.276 HD
ENDBRANCH  19  20
ENDBRANCH  18  19
ENDBRANCH  17  18
ENDBRANCH  16  17
ENDBRANCH  15  16
ENDBRANCH  13  15
ENDBRANCH   1  13
BRANCH   4  24
HETATM   24  N4  UNL     1     -15.376  45.379   9.059  1.00  0.00    -0.234 N 
ATOM     25  H42 UNL     1     -14.386  45.601   9.166  1.00  0.00     0.174 HD
ATOM     26  H41 UNL     1     -15.902  45.927   8.378  1.00  0.00     0.174 HD
ENDBRANCH   4  24
TORSDOF 8
ENDMDL
MODEL 5
REMARK VINA RESULT: -6.907096867      2.065      2.339
REMARK  8 active torsions:
REMARK  status: ('A' for Active; 'I' for Inactive)
REMARK    1  A    between atoms: N1_2  and  C2_5 
REMARK    2  A    between atoms: C2_5  and  C3_6 
REMARK    3  A    between atoms: C3_6  and  O1_7 
REMARK    4  A    between atoms: O1_7  and  C4_8 
REMARK    5  A    between atoms: C4_8  and  C5_9 
REMARK    6  A    between atoms: C5_9  and  N2_10 
REMARK    7  A    between atoms: N2_10  and  C6_12 
REMARK    8  A    between atoms: C7_15  and  N4_16 
ROOT
HETATM    1  C6  UNL     1     -15.731  42.389  10.018  1.00  0.00     0.149 A 
HETATM    2  N3  UNL     1     -16.784  41.957   9.342  1.00  0.00    -0.175 N 
ATOM      3  H3  UNL     1     -16.837  40.961   9.131  1.00  0.00     0.186 HD
HETATM    4  C7  UNL     1     -17.800  42.750   8.912  1.00  0.00     0.679 A 
HETATM    5  N5  UNL     1     -17.716  44.056   9.200  1.00  0.00    -0.173 N 
ATOM      6  H5  UNL     1     -18.458  44.686   8.895  1.00  0.00     0.186 HD
HETATM    7  C8  UNL     1     -16.663  44.550   9.889  1.00  0.00     0.167 A 
HETATM    8  N6  UNL     1     -16.024  45.588  10.444  1.00  0.00    -0.282 N 
ATOM      9  H6  UNL     1     -16.227  46.585  10.513  1.00  0.00     0.188 HD
HETATM   10  N7  UNL     1     -15.035  44.830  10.866  1.00  0.00    -0.292 N 
ATOM     11  H7  UNL     1     -14.173  44.993  11.387  1.00  0.00     0.187 HD
HETATM   12  C9  UNL     1     -15.636  43.744  10.324  1.00  0.00     0.138 A 
ENDROOT
BRANCH   1  13
HETATM   13  N2  UNL     1     -14.752  41.638  10.416  1.00  0.00    -0.372 N 
ATOM     14  H2  UNL     1     -13.966  41.510   9.778  1.00  0.00     0.161 HD
BRANCH  13  15
HETATM   15  C5  UNL     1     -14.692  40.973  11.686  1.00  0.00     0.147 C 
BRANCH  15  16
HETATM   16  C4  UNL     1     -13.640  39.885  11.623  1.00  0.00     0.187 C 
BRANCH  16  17
HETATM   17  O1  UNL     1     -12.482  40.276  11.030  1.00  0.00    -0.388 OA
BRANCH  17  18
HETATM   18  C3  UNL     1     -11.938  39.520  10.051  1.00  0.00     0.195 C 
BRANCH  18  19
HETATM   19  C2  UNL     1     -12.851  38.727   9.184  1.00  0.00     0.258 C 
BRANCH  19  20
HETATM   20  N1  UNL     1     -13.074  39.558   7.981  1.00  0.00    -0.077 N 
HETATM   21  C1  UNL     1     -11.790  40.036   7.485  1.00  0.00     0.267 C 
ATOM     22  H12 UNL     1     -13.732  40.319   8.152  1.00  0.00     0.276 HD
ATOM     23  H11 UNL     1     -13.608  39.065   7.264  1.00  0.00     0.276 HD
ENDBRANCH  19  20
ENDBRANCH  18  19
ENDBRANCH  17  18
ENDBRANCH  16  17
ENDBRANCH  15  16
ENDBRANCH  13  15
ENDBRANCH   1  13
BRANCH   4  24
HETATM   24  N4  UNL     1     -18.800  42.266   8.260  1.00  0.00    -0.234 N 
ATOM     25  H42 UNL     1     -18.678  41.529   7.565  1.00  0.00     0.174 HD
ATOM     26  H41 UNL     1     -19.749  42.605   8.414  1.00  0.00     0.174 HD
ENDBRANCH   4  24
TORSDOF 8
ENDMDL
