MODEL 1
REMARK VINA RESULT: -7.348588865      0.000      0.000
REMARK  8 active torsions:
REMARK  status: ('A' for Active; 'I' for Inactive)
REMARK       I    between atoms: C1_4  and  N3_6 
REMARK    1  A    between atoms: N3_6  and  C2_8 
REMARK    2  A    between atoms: C2_8  and  C3_9 
REMARK    3  A    between atoms: C3_9  and  S1_10 
REMARK    4  A    between atoms: S1_10  and  C4_11 
REMARK    5  A    between atoms: C4_11  and  C5_12 
REMARK    6  A    between atoms: C5_12  and  C6_13 
REMARK    7  A    between atoms: C7_18  and  N6_19 
REMARK    8  A    between atoms: N6_19  and  N7_21 
ROOT
HETATM    1  C6  UNL     1     -15.249  41.754  11.659  1.00  0.00     0.113 A 
HETATM    2  N4  UNL     1     -15.123  43.035  12.004  1.00  0.00    -0.274 N 
ATOM      3  H4  UNL     1     -14.250  43.467  12.305  1.00  0.00     0.189 HD
HETATM    4  N5  UNL     1     -16.272  43.671  11.906  1.00  0.00    -0.129 N 
ATOM      5  H5  UNL     1     -16.452  44.654  12.109  1.00  0.00     0.205 HD
HETATM    6  C7  UNL     1     -17.154  42.756  11.482  1.00  0.00     0.712 A 
HETATM    7  N8  UNL     1     -16.527  41.556  11.326  1.00  0.00    -0.177 N 
ATOM      8  H8  UNL     1     -16.949  40.681  11.016  1.00  0.00     0.185 HD
ENDROOT
BRANCH   1   9
HETATM    9  C5  UNL     1     -14.182  40.689  11.637  1.00  0.00     0.088 C 
BRANCH   9  10
HETATM   10  C4  UNL     1     -14.835  39.427  11.131  1.00  0.00     0.081 C 
BRANCH  10  11
HETATM   11  S1  UNL     1     -14.294  39.033   9.445  1.00  0.00    -0.167 SA
BRANCH  11  12
HETATM   12  C3  UNL     1     -12.490  39.244   9.304  1.00  0.00     0.093 C 
BRANCH  12  13
HETATM   13  C2  UNL     1     -11.875  37.862   9.344  1.00  0.00     0.132 C 
BRANCH  13  14
HETATM   14  N3  UNL     1     -10.456  37.932   9.559  1.00  0.00    -0.364 N 
HETATM   15  C1  UNL     1      -9.837  37.276  10.637  1.00  0.00     0.181 C 
HETATM   16  N1  UNL     1      -8.594  36.952  10.563  1.00  0.00    -0.374 N 
HETATM   17  N2  UNL     1     -10.555  36.962  11.806  1.00  0.00    -0.064 NA
ATOM     18  H12 UNL     1      -8.144  36.476  11.345  1.00  0.00     0.158 HD
ATOM     19  H11 UNL     1      -8.073  37.179   9.715  1.00  0.00     0.158 HD
ATOM     20  H3  UNL     1      -9.883  38.472   8.912  1.00  0.00     0.162 HD
ENDBRANCH  13  14
ENDBRANCH  12  13
ENDBRANCH  11  12
ENDBRANCH  10  11
ENDBRANCH   9  10
ENDBRANCH   1   9
BRANCH   6  21
HETATM   21  N6  UNL     1     -18.410  42.961  11.255  1.00  0.00    -0.137 N 
ATOM     22  H6  UNL     1     -19.098  42.864  12.001  1.00  0.00     0.205 HD
BRANCH  21  23
HETATM   23  N7  UNL     1     -18.800  43.319   9.966  1.00  0.00    -0.331 N 
ATOM     24  H72 UNL     1     -18.139  43.788   9.347  1.00  0.00     0.177 HD
ATOM     25  H71 UNL     1     -19.751  43.099   9.669  1.00  0.00     0.177 HD
ENDBRANCH  21  23
ENDBRANCH   6  21
TORSDOF 8
ENDMDL
MODEL 2
REMARK VINA RESULT: -7.265313512      1.656      1.865
REMARK  8 active torsions:
REMARK  status: ('A' for Active; 'I' for Inactive)
REMARK       I    between atoms: C1_4  and  N3_6 
REMARK    1  A    between atoms: N3_6  and  C2_8 
REMARK    2  A    between atoms: C2_8  and  C3_9 
REMARK    3  A    between atoms: C3_9  and  S1_10 
REMARK    4  A    between atoms: S1_10  and  C4_11 
REMARK    5  A    between atoms: C4_11  and  C5_12 
REMARK    6  A    between atoms: C5_12  and  C6_13 
REMARK    7  A    between atoms: C7_18  and  N6_19 
REMARK    8  A    between atoms: N6_19  and  N7_21 
ROOT
HETATM    1  C6  UNL     1     -15.386  42.671  11.134  1.00  0.00     0.113 A 
HETATM    2  N4  UNL     1     -15.029  43.725  11.867  1.00  0.00    -0.274 N 
ATOM      3  H4  UNL     1     -14.781  43.681  12.856  1.00  0.00     0.189 HD
HETATM    4  N5  UNL     1     -15.038  44.830  11.151  1.00  0.00    -0.129 N 
ATOM      5  H5  UNL     1     -14.808  45.772  11.468  1.00  0.00     0.205 HD
HETATM    6  C7  UNL     1     -15.413  44.458   9.921  1.00  0.00     0.712 A 
HETATM    7  N8  UNL     1     -15.633  43.113   9.899  1.00  0.00    -0.177 N 
ATOM      8  H8  UNL     1     -15.928  42.554   9.098  1.00  0.00     0.185 HD
ENDROOT
BRANCH   1   9
HETATM    9  C5  UNL     1     -15.505  41.233  11.571  1.00  0.00     0.088 C 
BRANCH   9  10
HETATM   10  C4  UNL     1     -14.101  40.724  11.788  1.00  0.00     0.081 C 
BRANCH  10  11
HETATM   11  S1  UNL     1     -13.785  39.225  10.816  1.00  0.00    -0.167 SA
BRANCH  11  12
HETATM   12  C3  UNL     1     -12.372  39.493   9.699  1.00  0.00     0.093 C 
BRANCH  12  13
HETATM   13  C2  UNL     1     -11.797  38.131   9.372  1.00  0.00     0.132 C 
BRANCH  13  14
HETATM   14  N3  UNL     1     -10.383  38.091   9.622  1.00  0.00    -0.364 N 
HETATM   15  C1  UNL     1      -9.834  37.305  10.650  1.00  0.00     0.181 C 
HETATM   16  N1  UNL     1      -8.611  36.911  10.572  1.00  0.00    -0.374 N 
HETATM   17  N2  UNL     1     -10.600  36.936  11.771  1.00  0.00    -0.064 NA
ATOM     18  H12 UNL     1      -8.212  36.340  11.317  1.00  0.00     0.158 HD
ATOM     19  H11 UNL     1      -8.055  37.178   9.759  1.00  0.00     0.158 HD
ATOM     20  H3  UNL     1      -9.761  38.649   9.038  1.00  0.00     0.162 HD
ENDBRANCH  13  14
ENDBRANCH  12  13
ENDBRANCH  11  12
ENDBRANCH  10  11
ENDBRANCH   9  10
ENDBRANCH   1   9
BRANCH   6  21
HETATM   21  N6  UNL     1     -15.553  45.239   8.901  1.00  0.00    -0.137 N 
ATOM     22  H6  UNL     1     -14.795  45.855   8.607  1.00  0.00     0.205 HD
BRANCH  21  23
HETATM   23  N7  UNL     1     -16.765  45.221   8.213  1.00  0.00    -0.331 N 
ATOM     24  H72 UNL     1     -17.097  44.353   7.793  1.00  0.00     0.177 HD
ATOM     25  H71 UNL     1     -17.297  46.088   8.144  1.00  0.00     0.177 HD
ENDBRANCH  21  23
ENDBRANCH   6  21
TORSDOF 8
ENDMDL
MODEL 3
REMARK VINA RESULT: -7.075274210      1.902      2.253
REMARK  8 active torsions:
REMARK  status: ('A' for Active; 'I' for Inactive)
REMARK       I    between atoms: C1_4  and  N3_6 
REMARK    1  A    between atoms: N3_6  and  C2_8 
REMARK    2  A    between atoms: C2_8  and  C3_9 
REMARK    3  A    between atoms: C3_9  and  S1_10 
REMARK    4  A    between atoms: S1_10  and  C4_11 
REMARK    5  A    between atoms: C4_11  and  C5_12 
REMARK    6  A    between atoms: C5_12  and  C6_13 
REMARK    7  A    between atoms: C7_18  and  N6_19 
REMARK    8  A    between atoms: N6_19  and  N7_21 
ROOT
HETATM    1  C6  UNL     1     -15.469  42.749  11.091  1.00  0.00     0.113 A 
HETATM    2  N4  UNL     1     -15.053  43.793  11.809  1.00  0.00    -0.274 N 
ATOM      3  H4  UNL     1     -14.786  43.745  12.792  1.00  0.00     0.189 HD
HETATM    4  N5  UNL     1     -15.032  44.892  11.086  1.00  0.00    -0.129 N 
ATOM      5  H5  UNL     1     -14.756  45.826  11.390  1.00  0.00     0.205 HD
HETATM    6  C7  UNL     1     -15.449  44.528   9.866  1.00  0.00     0.712 A 
HETATM    7  N8  UNL     1     -15.725  43.194   9.858  1.00  0.00    -0.177 N 
ATOM      8  H8  UNL     1     -16.060  42.643   9.067  1.00  0.00     0.185 HD
ENDROOT
BRANCH   1   9
HETATM    9  C5  UNL     1     -15.638  41.320  11.540  1.00  0.00     0.088 C 
BRANCH   9  10
HETATM   10  C4  UNL     1     -14.269  40.818  11.925  1.00  0.00     0.081 C 
BRANCH  10  11
HETATM   11  S1  UNL     1     -13.799  39.365  10.947  1.00  0.00    -0.167 SA
BRANCH  11  12
HETATM   12  C3  UNL     1     -13.145  39.886   9.329  1.00  0.00     0.093 C 
BRANCH  12  13
HETATM   13  C2  UNL     1     -11.710  39.410   9.254  1.00  0.00     0.132 C 
BRANCH  13  14
HETATM   14  N3  UNL     1     -11.636  38.061   8.766  1.00  0.00    -0.364 N 
HETATM   15  C1  UNL     1     -11.378  36.976   9.623  1.00  0.00     0.181 C 
HETATM   16  N1  UNL     1     -11.768  35.794   9.298  1.00  0.00    -0.374 N 
HETATM   17  N2  UNL     1     -10.696  37.159  10.841  1.00  0.00    -0.064 NA
ATOM     18  H12 UNL     1     -11.581  35.008   9.919  1.00  0.00     0.158 HD
ATOM     19  H11 UNL     1     -12.262  35.662   8.415  1.00  0.00     0.158 HD
ATOM     20  H3  UNL     1     -11.775  37.885   7.772  1.00  0.00     0.162 HD
ENDBRANCH  13  14
ENDBRANCH  12  13
ENDBRANCH  11  12
ENDBRANCH  10  11
ENDBRANCH   9  10
ENDBRANCH   1   9
BRANCH   6  21
HETATM   21  N6  UNL     1     -15.579  45.309   8.844  1.00  0.00    -0.137 N 
ATOM     22  H6  UNL     1     -14.806  45.900   8.537  1.00  0.00     0.205 HD
BRANCH  21  23
HETATM   23  N7  UNL     1     -16.800  45.324   8.172  1.00  0.00    -0.331 N 
ATOM     24  H72 UNL     1     -17.160  44.467   7.753  1.00  0.00     0.177 HD
ATOM     25  H71 UNL     1     -17.310  46.205   8.115  1.00  0.00     0.177 HD
ENDBRANCH  21  23
ENDBRANCH   6  21
TORSDOF 8
ENDMDL
MODEL 4
REMARK VINA RESULT: -6.972077613      3.242      4.254
REMARK  8 active torsions:
REMARK  status: ('A' for Active; 'I' for Inactive)
REMARK       I    between atoms: C1_4  and  N3_6 
REMARK    1  A    between atoms: N3_6  and  C2_8 
REMARK    2  A    between atoms: C2_8  and  C3_9 
REMARK    3  A    between atoms: C3_9  and  S1_10 
REMARK    4  A    between atoms: S1_10  and  C4_11 
REMARK    5  A    between atoms: C4_11  and  C5_12 
REMARK    6  A    between atoms: C5_12  and  C6_13 
REMARK    7  A    between atoms: C7_18  and  N6_19 
REMARK    8  A    between atoms: N6_19  and  N7_21 
ROOT
HETATM    1  C6  UNL     1     -15.693  43.025  10.901  1.00  0.00     0.113 A 
HETATM    2  N4  UNL     1     -15.366  44.103  11.615  1.00  0.00    -0.274 N 
ATOM      3  H4  UNL     1     -15.172  44.093  12.616  1.00  0.00     0.189 HD
HETATM    4  N5  UNL     1     -15.324  45.181  10.860  1.00  0.00    -0.129 N 
ATOM      5  H5  UNL     1     -15.101  46.131  11.155  1.00  0.00     0.205 HD
HETATM    6  C7  UNL     1     -15.636  44.767   9.625  1.00  0.00     0.712 A 
HETATM    7  N8  UNL     1     -15.868  43.424   9.639  1.00  0.00    -0.177 N 
ATOM      8  H8  UNL     1     -16.125  42.839   8.844  1.00  0.00     0.185 HD
ENDROOT
BRANCH   1   9
HETATM    9  C5  UNL     1     -15.851  41.605  11.382  1.00  0.00     0.088 C 
BRANCH   9  10
HETATM   10  C4  UNL     1     -14.509  41.175  11.921  1.00  0.00     0.081 C 
BRANCH  10  11
HETATM   11  S1  UNL     1     -14.229  39.402  11.654  1.00  0.00    -0.167 SA
BRANCH  11  12
HETATM   12  C3  UNL     1     -13.163  39.151  10.198  1.00  0.00     0.093 C 
BRANCH  12  13
HETATM   13  C2  UNL     1     -14.016  38.508   9.126  1.00  0.00     0.132 C 
BRANCH  13  14
HETATM   14  N3  UNL     1     -14.851  39.479   8.476  1.00  0.00    -0.364 N 
HETATM   15  C1  UNL     1     -16.250  39.347   8.439  1.00  0.00     0.181 C 
HETATM   16  N1  UNL     1     -16.989  40.391   8.294  1.00  0.00    -0.374 N 
HETATM   17  N2  UNL     1     -16.865  38.087   8.560  1.00  0.00    -0.064 NA
ATOM     18  H12 UNL     1     -18.004  40.296   8.268  1.00  0.00     0.158 HD
ATOM     19  H11 UNL     1     -16.544  41.305   8.206  1.00  0.00     0.158 HD
ATOM     20  H3  UNL     1     -14.417  40.286   8.028  1.00  0.00     0.162 HD
ENDBRANCH  13  14
ENDBRANCH  12  13
ENDBRANCH  11  12
ENDBRANCH  10  11
ENDBRANCH   9  10
ENDBRANCH   1   9
BRANCH   6  21
HETATM   21  N6  UNL     1     -15.712  45.512   8.572  1.00  0.00    -0.137 N 
ATOM     22  H6  UNL     1     -14.956  46.154   8.330  1.00  0.00     0.205 HD
BRANCH  21  23
HETATM   23  N7  UNL     1     -16.851  45.420   7.775  1.00  0.00    -0.331 N 
ATOM     24  H72 UNL     1     -17.030  44.569   7.241  1.00  0.00     0.177 HD
ATOM     25  H71 UNL     1     -17.488  46.216   7.745  1.00  0.00     0.177 HD
ENDBRANCH  21  23
ENDBRANCH   6  21
TORSDOF 8
ENDMDL
MODEL 5
REMARK VINA RESULT: -6.964079597      0.850      1.427
REMARK  8 active torsions:
REMARK  status: ('A' for Active; 'I' for Inactive)
REMARK       I    between atoms: C1_4  and  N3_6 
REMARK    1  A    between atoms: N3_6  and  C2_8 
REMARK    2  A    between atoms: C2_8  and  C3_9 
REMARK    3  A    between atoms: C3_9  and  S1_10 
REMARK    4  A    between atoms: S1_10  and  C4_11 
REMARK    5  A    between atoms: C4_11  and  C5_12 
REMARK    6  A    between atoms: C5_12  and  C6_13 
REMARK    7  A    between atoms: C7_18  and  N6_19 
REMARK    8  A    between atoms: N6_19  and  N7_21 
ROOT
HETATM    1  C6  UNL     1     -15.610  41.687  11.510  1.00  0.00     0.113 A 
HETATM    2  N4  UNL     1     -16.904  41.406  11.359  1.00  0.00    -0.274 N 
ATOM      3  H4  UNL     1     -17.296  40.465  11.385  1.00  0.00     0.189 HD
HETATM    4  N5  UNL     1     -17.611  42.501  11.171  1.00  0.00    -0.129 N 
ATOM      5  H5  UNL     1     -18.619  42.567  11.029  1.00  0.00     0.205 HD
HETATM    6  C7  UNL     1     -16.730  43.509  11.206  1.00  0.00     0.712 A 
HETATM    7  N8  UNL     1     -15.478  43.012  11.417  1.00  0.00    -0.177 N 
ATOM      8  H8  UNL     1     -14.612  43.547  11.489  1.00  0.00     0.185 HD
ENDROOT
BRANCH   1   9
HETATM    9  C5  UNL     1     -14.471  40.726  11.741  1.00  0.00     0.088 C 
BRANCH   9  10
HETATM   10  C4  UNL     1     -14.948  39.368  11.291  1.00  0.00     0.081 C 
BRANCH  10  11
HETATM   11  S1  UNL     1     -14.164  38.876   9.731  1.00  0.00    -0.167 SA
BRANCH  11  12
HETATM   12  C3  UNL     1     -12.377  39.224   9.794  1.00  0.00     0.093 C 
BRANCH  12  13
HETATM   13  C2  UNL     1     -11.666  38.006   9.243  1.00  0.00     0.132 C 
BRANCH  13  14
HETATM   14  N3  UNL     1     -10.266  38.034   9.565  1.00  0.00    -0.364 N 
HETATM   15  C1  UNL     1      -9.735  37.281  10.627  1.00  0.00     0.181 C 
HETATM   16  N1  UNL     1      -8.494  36.943  10.615  1.00  0.00    -0.374 N 
HETATM   17  N2  UNL     1     -10.540  36.885  11.711  1.00  0.00    -0.064 NA
ATOM     18  H12 UNL     1      -8.108  36.397  11.385  1.00  0.00     0.158 HD
ATOM     19  H11 UNL     1      -7.909  37.230   9.829  1.00  0.00     0.158 HD
ATOM     20  H3  UNL     1      -9.641  38.615   9.008  1.00  0.00     0.162 HD
ENDBRANCH  13  14
ENDBRANCH  12  13
ENDBRANCH  11  12
ENDBRANCH  10  11
ENDBRANCH   9  10
ENDBRANCH   1   9
BRANCH   6  21
HETATM   21  N6  UNL     1     -17.006  44.763  11.063  1.00  0.00    -0.137 N 
ATOM     22  H6  UNL     1     -17.866  45.156  11.445  1.00  0.00     0.205 HD
BRANCH  21  23
HETATM   23  N7  UNL     1     -16.100  45.566  10.372  1.00  0.00    -0.331 N 
ATOM     24  H72 UNL     1     -15.865  45.349   9.403  1.00  0.00     0.177 HD
ATOM     25  H71 UNL     1     -15.688  46.362  10.858  1.00  0.00     0.177 HD
ENDBRANCH  21  23
ENDBRANCH   6  21
TORSDOF 8
ENDMDL
