MODEL 1
REMARK VINA RESULT: -7.207512572      0.000      0.000
REMARK  9 active torsions:
REMARK  status: ('A' for Active; 'I' for Inactive)
REMARK    1  A    between atoms: C3_6  and  N3_7 
REMARK    2  A    between atoms: C4_9  and  C5_10 
REMARK    3  A    between atoms: C5_10  and  N4_11 
REMARK    4  A    between atoms: N4_11  and  C6_13 
REMARK    5  A    between atoms: C6_13  and  C7_14 
REMARK    6  A    between atoms: C7_14  and  C8_15 
REMARK    7  A    between atoms: C8_15  and  C9_16 
REMARK    8  A    between atoms: C9_16  and  N5_17 
REMARK    9  A    between atoms: C10_23  and  N7_24 
ROOT
HETATM    1  N1  UNL     1      -8.669  36.546  11.039  1.00  0.00    -0.188 NA
HETATM    2  C1  UNL     1      -9.524  37.126  10.502  1.00  0.00     0.138 C 
HETATM    3  C2  UNL     1     -10.581  37.856   9.813  1.00  0.00     0.217 A 
HETATM    4  N2  UNL     1     -11.857  37.465   9.900  1.00  0.00    -0.165 N 
ATOM      5  H2  UNL     1     -12.082  36.641  10.458  1.00  0.00     0.186 HD
HETATM    6  C3  UNL     1     -12.877  38.134   9.265  1.00  0.00     0.698 A 
HETATM    7  N6  UNL     1     -12.533  39.200   8.551  1.00  0.00    -0.022 N 
ATOM      8  H6  UNL     1     -13.268  39.717   8.067  1.00  0.00     0.203 HD
HETATM    9  C10 UNL     1     -11.248  39.635   8.434  1.00  0.00     0.692 A 
HETATM   10  N8  UNL     1     -10.287  38.937   9.082  1.00  0.00    -0.166 N 
ATOM     11  H8  UNL     1      -9.317  39.241   9.010  1.00  0.00     0.186 HD
ENDROOT
BRANCH   6  12
HETATM   12  N3  UNL     1     -14.002  37.689   9.417  1.00  0.00    -0.203 N 
HETATM   13  C4  UNL     1     -15.348  37.839   9.463  1.00  0.00     0.098 C 
ATOM     14  H3  UNL     1     -13.855  36.698   9.606  1.00  0.00     0.183 HD
BRANCH  13  15
HETATM   15  C5  UNL     1     -15.939  39.029   8.707  1.00  0.00     0.159 C 
BRANCH  15  16
HETATM   16  N4  UNL     1     -16.480  39.980   9.624  1.00  0.00    -0.417 N 
ATOM     17  H4  UNL     1     -17.482  40.023   9.814  1.00  0.00     0.153 HD
BRANCH  16  18
HETATM   18  C6  UNL     1     -15.570  40.862  10.262  1.00  0.00     0.114 C 
BRANCH  18  19
HETATM   19  C7  UNL     1     -16.116  41.480  11.536  1.00  0.00     0.021 C 
BRANCH  19  20
HETATM   20  C8  UNL     1     -16.333  42.948  11.337  1.00  0.00     0.029 C 
BRANCH  20  21
HETATM   21  C9  UNL     1     -17.719  43.426  11.647  1.00  0.00     0.229 C 
BRANCH  21  22
HETATM   22  N5  UNL     1     -18.689  43.045  10.659  1.00  0.00    -0.079 N 
ATOM     23  H53 UNL     1     -18.335  43.222   9.718  1.00  0.00     0.274 HD
ATOM     24  H52 UNL     1     -18.782  42.030  10.616  1.00  0.00     0.274 HD
ATOM     25  H51 UNL     1     -19.599  43.486  10.792  1.00  0.00     0.274 HD
ENDBRANCH  21  22
ENDBRANCH  20  21
ENDBRANCH  19  20
ENDBRANCH  18  19
ENDBRANCH  16  18
ENDBRANCH  15  16
ENDBRANCH  13  15
ENDBRANCH   6  12
BRANCH   9  26
HETATM   26  N7  UNL     1     -10.961  40.682   7.728  1.00  0.00    -0.234 N 
ATOM     27  H72 UNL     1     -11.324  40.800   6.783  1.00  0.00     0.174 HD
ATOM     28  H71 UNL     1     -10.359  41.417   8.100  1.00  0.00     0.174 HD
ENDBRANCH   9  26
TORSDOF 9
ENDMDL
MODEL 2
REMARK VINA RESULT: -7.164181527      1.047      1.091
REMARK  9 active torsions:
REMARK  status: ('A' for Active; 'I' for Inactive)
REMARK    1  A    between atoms: C3_6  and  N3_7 
REMARK    2  A    between atoms: C4_9  and  C5_10 
REMARK    3  A    between atoms: C5_10  and  N4_11 
REMARK    4  A    between atoms: N4_11  and  C6_13 
REMARK    5  A    between atoms: C6_13  and  C7_14 
REMARK    6  A    between atoms: C7_14  and  C8_15 
REMARK    7  A    between atoms: C8_15  and  C9_16 
REMARK    8  A    between atoms: C9_16  and  N5_17 
REMARK    9  A    between atoms: C10_23  and  N7_24 
ROOT
HETATM    1  N1  UNL     1      -8.698  36.492  11.088  1.00  0.00    -0.188 NA
HETATM    2  C1  UNL     1      -9.533  37.095  10.543  1.00  0.00     0.138 C 
HETATM    3  C2  UNL     1     -10.563  37.853   9.844  1.00  0.00     0.217 A 
HETATM    4  N2  UNL     1     -11.853  37.514   9.944  1.00  0.00    -0.165 N 
ATOM      5  H2  UNL     1     -12.108  36.710  10.518  1.00  0.00     0.186 HD
HETATM    6  C3  UNL     1     -12.849  38.210   9.299  1.00  0.00     0.698 A 
HETATM    7  N6  UNL     1     -12.467  39.248   8.564  1.00  0.00    -0.022 N 
ATOM      8  H6  UNL     1     -13.183  39.784   8.073  1.00  0.00     0.203 HD
HETATM    9  C10 UNL     1     -11.166  39.630   8.433  1.00  0.00     0.692 A 
HETATM   10  N8  UNL     1     -10.231  38.907   9.091  1.00  0.00    -0.166 N 
ATOM     11  H8  UNL     1      -9.249  39.172   9.010  1.00  0.00     0.186 HD
ENDROOT
BRANCH   6  12
HETATM   12  N3  UNL     1     -13.990  37.814   9.464  1.00  0.00    -0.203 N 
HETATM   13  C4  UNL     1     -15.332  38.002   9.454  1.00  0.00     0.098 C 
ATOM     14  H3  UNL     1     -13.876  36.845   9.762  1.00  0.00     0.183 HD
BRANCH  13  15
HETATM   15  C5  UNL     1     -15.868  39.118   8.557  1.00  0.00     0.159 C 
BRANCH  15  16
HETATM   16  N4  UNL     1     -16.431  40.163   9.349  1.00  0.00    -0.417 N 
ATOM     17  H4  UNL     1     -17.440  40.308   9.397  1.00  0.00     0.153 HD
BRANCH  16  18
HETATM   18  C6  UNL     1     -15.531  40.992  10.069  1.00  0.00     0.114 C 
BRANCH  18  19
HETATM   19  C7  UNL     1     -16.211  41.865  11.109  1.00  0.00     0.021 C 
BRANCH  19  20
HETATM   20  C8  UNL     1     -15.569  43.217  11.136  1.00  0.00     0.029 C 
BRANCH  20  21
HETATM   21  C9  UNL     1     -15.898  44.093   9.965  1.00  0.00     0.229 C 
BRANCH  21  22
HETATM   22  N5  UNL     1     -15.972  45.488  10.298  1.00  0.00    -0.079 N 
ATOM     23  H53 UNL     1     -15.649  45.649  11.252  1.00  0.00     0.274 HD
ATOM     24  H52 UNL     1     -15.266  46.019   9.789  1.00  0.00     0.274 HD
ATOM     25  H51 UNL     1     -16.898  45.890  10.157  1.00  0.00     0.274 HD
ENDBRANCH  21  22
ENDBRANCH  20  21
ENDBRANCH  19  20
ENDBRANCH  18  19
ENDBRANCH  16  18
ENDBRANCH  15  16
ENDBRANCH  13  15
ENDBRANCH   6  12
BRANCH   9  26
HETATM   26  N7  UNL     1     -10.841  40.651   7.707  1.00  0.00    -0.234 N 
ATOM     27  H72 UNL     1     -11.424  41.487   7.674  1.00  0.00     0.174 HD
ATOM     28  H71 UNL     1      -9.990  40.646   7.143  1.00  0.00     0.174 HD
ENDBRANCH   9  26
TORSDOF 9
ENDMDL
MODEL 3
REMARK VINA RESULT: -6.955146303      2.144      7.758
REMARK  9 active torsions:
REMARK  status: ('A' for Active; 'I' for Inactive)
REMARK    1  A    between atoms: C3_6  and  N3_7 
REMARK    2  A    between atoms: C4_9  and  C5_10 
REMARK    3  A    between atoms: C5_10  and  N4_11 
REMARK    4  A    between atoms: N4_11  and  C6_13 
REMARK    5  A    between atoms: C6_13  and  C7_14 
REMARK    6  A    between atoms: C7_14  and  C8_15 
REMARK    7  A    between atoms: C8_15  and  C9_16 
REMARK    8  A    between atoms: C9_16  and  N5_17 
REMARK    9  A    between atoms: C10_23  and  N7_24 
ROOT
HETATM    1  N1  UNL     1     -18.413  45.582   6.905  1.00  0.00    -0.188 NA
HETATM    2  C1  UNL     1     -18.099  44.872   7.773  1.00  0.00     0.138 C 
HETATM    3  C2  UNL     1     -17.723  43.993   8.873  1.00  0.00     0.217 A 
HETATM    4  N2  UNL     1     -17.309  42.742   8.642  1.00  0.00    -0.165 N 
ATOM      5  H2  UNL     1     -17.262  42.409   7.679  1.00  0.00     0.186 HD
HETATM    6  C3  UNL     1     -16.944  41.889   9.657  1.00  0.00     0.698 A 
HETATM    7  N6  UNL     1     -17.023  42.369  10.893  1.00  0.00    -0.022 N 
ATOM      8  H6  UNL     1     -16.759  41.760  11.668  1.00  0.00     0.203 HD
HETATM    9  C10 UNL     1     -17.438  43.635  11.176  1.00  0.00     0.692 A 
HETATM   10  N8  UNL     1     -17.784  44.428  10.136  1.00  0.00    -0.166 N 
ATOM     11  H8  UNL     1     -18.099  45.381  10.320  1.00  0.00     0.186 HD
ENDROOT
BRANCH   6  12
HETATM   12  N3  UNL     1     -16.579  40.773   9.331  1.00  0.00    -0.203 N 
HETATM   13  C4  UNL     1     -15.809  39.670   9.502  1.00  0.00     0.098 C 
ATOM     14  H3  UNL     1     -17.141  40.559   8.507  1.00  0.00     0.183 HD
BRANCH  13  15
HETATM   15  C5  UNL     1     -15.267  39.416  10.909  1.00  0.00     0.159 C 
BRANCH  15  16
HETATM   16  N4  UNL     1     -14.017  38.731  10.842  1.00  0.00    -0.417 N 
ATOM     17  H4  UNL     1     -13.955  37.724  10.997  1.00  0.00     0.153 HD
BRANCH  16  18
HETATM   18  C6  UNL     1     -12.863  39.504  10.550  1.00  0.00     0.114 C 
BRANCH  18  19
HETATM   19  C7  UNL     1     -12.202  39.135   9.234  1.00  0.00     0.021 C 
BRANCH  19  20
HETATM   20  C8  UNL     1     -10.821  38.615   9.488  1.00  0.00     0.029 C 
BRANCH  20  21
HETATM   21  C9  UNL     1     -10.764  37.221  10.034  1.00  0.00     0.229 C 
BRANCH  21  22
HETATM   22  N5  UNL     1     -11.658  36.311   9.374  1.00  0.00    -0.079 N 
ATOM     23  H53 UNL     1     -12.194  36.793   8.652  1.00  0.00     0.274 HD
ATOM     24  H52 UNL     1     -11.140  35.654   8.791  1.00  0.00     0.274 HD
ATOM     25  H51 UNL     1     -12.278  35.815  10.014  1.00  0.00     0.274 HD
ENDBRANCH  21  22
ENDBRANCH  20  21
ENDBRANCH  19  20
ENDBRANCH  18  19
ENDBRANCH  16  18
ENDBRANCH  15  16
ENDBRANCH  13  15
ENDBRANCH   6  12
BRANCH   9  26
HETATM   26  N7  UNL     1     -17.497  44.060  12.397  1.00  0.00    -0.234 N 
ATOM     27  H72 UNL     1     -17.155  44.987  12.653  1.00  0.00     0.174 HD
ATOM     28  H71 UNL     1     -17.886  43.478  13.138  1.00  0.00     0.174 HD
ENDBRANCH   9  26
TORSDOF 9
ENDMDL
MODEL 4
REMARK VINA RESULT: -6.916109943      1.883      7.327
REMARK  9 active torsions:
REMARK  status: ('A' for Active; 'I' for Inactive)
REMARK    1  A    between atoms: C3_6  and  N3_7 
REMARK    2  A    between atoms: C4_9  and  C5_10 
REMARK    3  A    between atoms: C5_10  and  N4_11 
REMARK    4  A    between atoms: N4_11  and  C6_13 
REMARK    5  A    between atoms: C6_13  and  C7_14 
REMARK    6  A    between atoms: C7_14  and  C8_15 
REMARK    7  A    between atoms: C8_15  and  C9_16 
REMARK    8  A    between atoms: C9_16  and  N5_17 
REMARK    9  A    between atoms: C10_23  and  N7_24 
ROOT
HETATM    1  N1  UNL     1     -15.792  45.875   8.808  1.00  0.00    -0.188 NA
HETATM    2  C1  UNL     1     -16.068  44.919   9.414  1.00  0.00     0.138 C 
HETATM    3  C2  UNL     1     -16.432  43.734  10.180  1.00  0.00     0.217 A 
HETATM    4  N2  UNL     1     -16.128  42.509   9.737  1.00  0.00    -0.165 N 
ATOM      5  H2  UNL     1     -15.636  42.415   8.848  1.00  0.00     0.186 HD
HETATM    6  C3  UNL     1     -16.454  41.371  10.437  1.00  0.00     0.698 A 
HETATM    7  N6  UNL     1     -17.094  41.545  11.587  1.00  0.00    -0.022 N 
ATOM      8  H6  UNL     1     -17.351  40.719  12.129  1.00  0.00     0.203 HD
HETATM    9  C10 UNL     1     -17.425  42.772  12.078  1.00  0.00     0.692 A 
HETATM   10  N8  UNL     1     -17.077  43.855  11.346  1.00  0.00    -0.166 N 
ATOM     11  H8  UNL     1     -17.313  44.785  11.690  1.00  0.00     0.186 HD
ENDROOT
BRANCH   6  12
HETATM   12  N3  UNL     1     -16.124  40.308   9.939  1.00  0.00    -0.203 N 
HETATM   13  C4  UNL     1     -15.226  39.513   9.308  1.00  0.00     0.098 C 
ATOM     14  H3  UNL     1     -16.943  39.712  10.060  1.00  0.00     0.183 HD
BRANCH  13  15
HETATM   15  C5  UNL     1     -13.750  39.880   9.459  1.00  0.00     0.159 C 
BRANCH  15  16
HETATM   16  N4  UNL     1     -13.055  39.653   8.233  1.00  0.00    -0.417 N 
ATOM     17  H4  UNL     1     -13.495  39.157   7.458  1.00  0.00     0.153 HD
BRANCH  16  18
HETATM   18  C6  UNL     1     -11.727  40.145   8.135  1.00  0.00     0.114 C 
BRANCH  18  19
HETATM   19  C7  UNL     1     -10.899  39.910   9.386  1.00  0.00     0.021 C 
BRANCH  19  20
HETATM   20  C8  UNL     1     -10.241  38.567   9.314  1.00  0.00     0.029 C 
BRANCH  20  21
HETATM   21  C9  UNL     1     -10.905  37.497  10.127  1.00  0.00     0.229 C 
BRANCH  21  22
HETATM   22  N5  UNL     1     -11.724  36.612   9.346  1.00  0.00    -0.079 N 
ATOM     23  H53 UNL     1     -12.122  35.878   9.931  1.00  0.00     0.274 HD
ATOM     24  H52 UNL     1     -12.582  37.078   9.052  1.00  0.00     0.274 HD
ATOM     25  H51 UNL     1     -11.238  36.212   8.543  1.00  0.00     0.274 HD
ENDBRANCH  21  22
ENDBRANCH  20  21
ENDBRANCH  19  20
ENDBRANCH  18  19
ENDBRANCH  16  18
ENDBRANCH  15  16
ENDBRANCH  13  15
ENDBRANCH   6  12
BRANCH   9  26
HETATM   26  N7  UNL     1     -18.047  42.893  13.206  1.00  0.00    -0.234 N 
ATOM     27  H72 UNL     1     -18.237  43.809  13.612  1.00  0.00     0.174 HD
ATOM     28  H71 UNL     1     -18.365  42.072  13.723  1.00  0.00     0.174 HD
ENDBRANCH   9  26
TORSDOF 9
ENDMDL
MODEL 5
REMARK VINA RESULT: -6.872905230      2.090      2.633
REMARK  9 active torsions:
REMARK  status: ('A' for Active; 'I' for Inactive)
REMARK    1  A    between atoms: C3_6  and  N3_7 
REMARK    2  A    between atoms: C4_9  and  C5_10 
REMARK    3  A    between atoms: C5_10  and  N4_11 
REMARK    4  A    between atoms: N4_11  and  C6_13 
REMARK    5  A    between atoms: C6_13  and  C7_14 
REMARK    6  A    between atoms: C7_14  and  C8_15 
REMARK    7  A    between atoms: C8_15  and  C9_16 
REMARK    8  A    between atoms: C9_16  and  N5_17 
REMARK    9  A    between atoms: C10_23  and  N7_24 
ROOT
HETATM    1  N1  UNL     1     -10.957  35.775   9.492  1.00  0.00    -0.188 NA
HETATM    2  C1  UNL     1     -11.477  36.810   9.368  1.00  0.00     0.138 C 
HETATM    3  C2  UNL     1     -12.125  38.103   9.190  1.00  0.00     0.217 A 
HETATM    4  N2  UNL     1     -13.143  38.476   9.974  1.00  0.00    -0.165 N 
ATOM      5  H2  UNL     1     -13.463  37.837  10.702  1.00  0.00     0.186 HD
HETATM    6  C3  UNL     1     -13.774  39.690   9.834  1.00  0.00     0.698 A 
HETATM    7  N6  UNL     1     -13.321  40.487   8.872  1.00  0.00    -0.022 N 
ATOM      8  H6  UNL     1     -13.769  41.394   8.743  1.00  0.00     0.203 HD
HETATM    9  C10 UNL     1     -12.289  40.150   8.050  1.00  0.00     0.692 A 
HETATM   10  N8  UNL     1     -11.707  38.942   8.236  1.00  0.00    -0.166 N 
ATOM     11  H8  UNL     1     -10.932  38.665   7.634  1.00  0.00     0.186 HD
ENDROOT
BRANCH   6  12
HETATM   12  N3  UNL     1     -14.687  39.925  10.606  1.00  0.00    -0.203 N 
HETATM   13  C4  UNL     1     -15.625  40.753  11.129  1.00  0.00     0.098 C 
ATOM     14  H3  UNL     1     -14.807  39.055  11.123  1.00  0.00     0.183 HD
BRANCH  13  15
HETATM   15  C5  UNL     1     -16.092  41.914  10.251  1.00  0.00     0.159 C 
BRANCH  15  16
HETATM   16  N4  UNL     1     -16.983  41.444   9.240  1.00  0.00    -0.417 N 
ATOM     17  H4  UNL     1     -17.049  40.451   9.011  1.00  0.00     0.153 HD
BRANCH  16  18
HETATM   18  C6  UNL     1     -17.773  42.411   8.566  1.00  0.00     0.114 C 
BRANCH  18  19
HETATM   19  C7  UNL     1     -18.022  43.666   9.382  1.00  0.00     0.021 C 
BRANCH  19  20
HETATM   20  C8  UNL     1     -17.607  44.873   8.599  1.00  0.00     0.029 C 
BRANCH  20  21
HETATM   21  C9  UNL     1     -16.247  45.404   8.935  1.00  0.00     0.229 C 
BRANCH  21  22
HETATM   22  N5  UNL     1     -16.023  45.551  10.346  1.00  0.00    -0.079 N 
ATOM     23  H53 UNL     1     -15.426  46.357  10.534  1.00  0.00     0.274 HD
ATOM     24  H52 UNL     1     -16.874  45.857  10.817  1.00  0.00     0.274 HD
ATOM     25  H51 UNL     1     -15.648  44.712  10.787  1.00  0.00     0.274 HD
ENDBRANCH  21  22
ENDBRANCH  20  21
ENDBRANCH  19  20
ENDBRANCH  18  19
ENDBRANCH  16  18
ENDBRANCH  15  16
ENDBRANCH  13  15
ENDBRANCH   6  12
BRANCH   9  26
HETATM   26  N7  UNL     1     -11.880  40.960   7.127  1.00  0.00    -0.234 N 
ATOM     27  H72 UNL     1     -11.535  41.893   7.354  1.00  0.00     0.174 HD
ATOM     28  H71 UNL     1     -11.893  40.687   6.144  1.00  0.00     0.174 HD
ENDBRANCH   9  26
TORSDOF 9
ENDMDL
