MODEL 1
REMARK VINA RESULT: -8.910391289      0.000      0.000
REMARK  8 active torsions:
REMARK  status: ('A' for Active; 'I' for Inactive)
REMARK    1  A    between atoms: C2_2  and  C3_3 
REMARK    2  A    between atoms: C3_3  and  C4_4 
REMARK    3  A    between atoms: C4_4  and  C5_5 
REMARK    4  A    between atoms: C5_5  and  C6_6 
REMARK    5  A    between atoms: C7_9  and  S1_10 
REMARK    6  A    between atoms: S1_10  and  N2_11 
REMARK    7  A    between atoms: S1_10  and  C8_15 
REMARK    8  A    between atoms: C8_15  and  N3_16 
ROOT
HETATM    1  C6  UNL     1       2.363  22.442   6.426  1.00  0.00     0.097 A 
HETATM    2  N1  UNL     1       3.718  22.644   6.300  1.00  0.00    -0.322 N 
ATOM      3  H1  UNL     1       4.440  22.097   6.770  1.00  0.00     0.169 HD
HETATM    4  C7  UNL     1       3.941  23.641   5.489  1.00  0.00     0.199 A 
HETATM    5  N4  UNL     1       2.767  24.097   5.081  1.00  0.00    -0.276 N 
ATOM      6  H4  UNL     1       2.617  24.876   4.440  1.00  0.00     0.189 HD
HETATM    7  N5  UNL     1       1.805  23.354   5.662  1.00  0.00    -0.287 N 
ATOM      8  H5  UNL     1       0.801  23.479   5.529  1.00  0.00     0.188 HD
ENDROOT
BRANCH   4   9
HETATM    9  S1  UNL     1       5.718  24.366   4.816  1.00  0.00     0.101 S 
HETATM   10  O1  UNL     1       5.497  24.614   3.672  1.00  0.00    -0.240 OA
BRANCH   9  11
HETATM   11  N2  UNL     1       6.948  22.862   4.570  1.00  0.00    -0.353 N 
ATOM     12  H22 UNL     1       6.745  21.894   4.819  1.00  0.00     0.166 HD
ATOM     13  H21 UNL     1       7.811  23.215   4.155  1.00  0.00     0.166 HD
ENDBRANCH   9  11
BRANCH   9  14
HETATM   14  C8  UNL     1       6.286  25.875   5.724  1.00  0.00     0.252 C 
BRANCH  14  15
HETATM   15  N3  UNL     1       6.572  27.030   4.822  1.00  0.00    -0.361 N 
HETATM   16  C9  UNL     1       7.755  26.874   4.086  1.00  0.00     0.064 C 
HETATM   17  C10 UNL     1       8.841  27.867   4.273  1.00  0.00     0.049 C 
HETATM   18  C11 UNL     1       8.375  29.258   4.552  1.00  0.00    -0.009 C 
HETATM   19  C12 UNL     1       7.711  29.831   3.319  1.00  0.00     0.010 C 
HETATM   20  C13 UNL     1       7.406  29.175   5.718  1.00  0.00     0.049 C 
HETATM   21  C14 UNL     1       6.270  28.258   5.428  1.00  0.00     0.064 C 
ENDBRANCH  14  15
ENDBRANCH   9  14
ENDBRANCH   4   9
BRANCH   1  22
HETATM   22  C5  UNL     1       1.859  21.355   7.275  1.00  0.00     0.078 C 
BRANCH  22  23
HETATM   23  C4  UNL     1       0.704  21.707   8.141  1.00  0.00     0.007 C 
BRANCH  23  24
HETATM   24  C3  UNL     1      -0.242  20.603   8.459  1.00  0.00     0.000 C 
BRANCH  24  25
HETATM   25  C2  UNL     1      -1.621  21.106   8.841  1.00  0.00    -0.005 C 
HETATM   26  C1  UNL     1      -2.484  21.074   7.597  1.00  0.00     0.005 C 
ENDBRANCH  24  25
ENDBRANCH  23  24
ENDBRANCH  22  23
ENDBRANCH   1  22
TORSDOF 8
ENDMDL
MODEL 2
REMARK VINA RESULT: -8.807194346      1.626      2.069
REMARK  8 active torsions:
REMARK  status: ('A' for Active; 'I' for Inactive)
REMARK    1  A    between atoms: C2_2  and  C3_3 
REMARK    2  A    between atoms: C3_3  and  C4_4 
REMARK    3  A    between atoms: C4_4  and  C5_5 
REMARK    4  A    between atoms: C5_5  and  C6_6 
REMARK    5  A    between atoms: C7_9  and  S1_10 
REMARK    6  A    between atoms: S1_10  and  N2_11 
REMARK    7  A    between atoms: S1_10  and  C8_15 
REMARK    8  A    between atoms: C8_15  and  N3_16 
ROOT
HETATM    1  C6  UNL     1       1.418  22.420   7.395  1.00  0.00     0.097 A 
HETATM    2  N1  UNL     1       2.783  22.588   7.392  1.00  0.00    -0.322 N 
ATOM      3  H1  UNL     1       3.411  22.300   8.142  1.00  0.00     0.169 HD
HETATM    4  C7  UNL     1       3.153  23.171   6.284  1.00  0.00     0.199 A 
HETATM    5  N4  UNL     1       2.064  23.390   5.564  1.00  0.00    -0.276 N 
ATOM      6  H4  UNL     1       2.033  23.833   4.645  1.00  0.00     0.189 HD
HETATM    7  N5  UNL     1       1.004  22.924   6.254  1.00  0.00    -0.287 N 
ATOM      8  H5  UNL     1       0.035  22.958   5.939  1.00  0.00     0.188 HD
ENDROOT
BRANCH   4   9
HETATM    9  S1  UNL     1       5.031  23.603   5.636  1.00  0.00     0.101 S 
HETATM   10  O1  UNL     1       5.252  22.739   4.846  1.00  0.00    -0.240 OA
BRANCH   9  11
HETATM   11  N2  UNL     1       6.304  23.077   7.027  1.00  0.00    -0.353 N 
ATOM     12  H22 UNL     1       6.219  23.311   8.016  1.00  0.00     0.166 HD
ATOM     13  H21 UNL     1       7.053  22.538   6.593  1.00  0.00     0.166 HD
ENDBRANCH   9  11
BRANCH   9  14
HETATM   14  C8  UNL     1       5.170  25.272   4.850  1.00  0.00     0.252 C 
BRANCH  14  15
HETATM   15  N3  UNL     1       6.333  25.390   3.922  1.00  0.00    -0.361 N 
HETATM   16  C9  UNL     1       7.538  25.668   4.582  1.00  0.00     0.064 C 
HETATM   17  C10 UNL     1       8.254  26.925   4.249  1.00  0.00     0.049 C 
HETATM   18  C11 UNL     1       8.125  27.359   2.826  1.00  0.00    -0.009 C 
HETATM   19  C12 UNL     1       8.867  26.393   1.928  1.00  0.00     0.010 C 
HETATM   20  C13 UNL     1       6.641  27.388   2.504  1.00  0.00     0.049 C 
HETATM   21  C14 UNL     1       5.998  26.067   2.740  1.00  0.00     0.064 C 
ENDBRANCH  14  15
ENDBRANCH   9  14
ENDBRANCH   4   9
BRANCH   1  22
HETATM   22  C5  UNL     1       0.761  21.763   8.532  1.00  0.00     0.078 C 
BRANCH  22  23
HETATM   23  C4  UNL     1      -0.174  20.663   8.180  1.00  0.00     0.007 C 
BRANCH  23  24
HETATM   24  C3  UNL     1      -1.586  20.833   8.616  1.00  0.00     0.000 C 
BRANCH  24  25
HETATM   25  C2  UNL     1      -2.514  21.188   7.471  1.00  0.00    -0.005 C 
HETATM   26  C1  UNL     1      -2.669  22.694   7.452  1.00  0.00     0.005 C 
ENDBRANCH  24  25
ENDBRANCH  23  24
ENDBRANCH  22  23
ENDBRANCH   1  22
TORSDOF 8
ENDMDL
MODEL 3
REMARK VINA RESULT: -8.599607598      2.561      3.416
REMARK  8 active torsions:
REMARK  status: ('A' for Active; 'I' for Inactive)
REMARK    1  A    between atoms: C2_2  and  C3_3 
REMARK    2  A    between atoms: C3_3  and  C4_4 
REMARK    3  A    between atoms: C4_4  and  C5_5 
REMARK    4  A    between atoms: C5_5  and  C6_6 
REMARK    5  A    between atoms: C7_9  and  S1_10 
REMARK    6  A    between atoms: S1_10  and  N2_11 
REMARK    7  A    between atoms: S1_10  and  C8_15 
REMARK    8  A    between atoms: C8_15  and  N3_16 
ROOT
HETATM    1  C6  UNL     1       3.554  23.006   6.183  1.00  0.00     0.097 A 
HETATM    2  N1  UNL     1       4.777  23.600   5.975  1.00  0.00    -0.322 N 
ATOM      3  H1  UNL     1       5.648  23.327   6.431  1.00  0.00     0.169 HD
HETATM    4  C7  UNL     1       4.656  24.565   5.104  1.00  0.00     0.199 A 
HETATM    5  N4  UNL     1       3.385  24.618   4.739  1.00  0.00    -0.276 N 
ATOM      6  H4  UNL     1       2.982  25.273   4.069  1.00  0.00     0.189 HD
HETATM    7  N5  UNL     1       2.717  23.657   5.406  1.00  0.00    -0.287 N 
ATOM      8  H5  UNL     1       1.719  23.465   5.322  1.00  0.00     0.188 HD
ENDROOT
BRANCH   4   9
HETATM    9  S1  UNL     1       6.103  25.748   4.302  1.00  0.00     0.101 S 
HETATM   10  O1  UNL     1       7.097  25.359   4.831  1.00  0.00    -0.240 OA
BRANCH   9  11
HETATM   11  N2  UNL     1       5.987  27.517   5.131  1.00  0.00    -0.353 N 
ATOM     12  H22 UNL     1       5.797  27.689   6.119  1.00  0.00     0.166 HD
ATOM     13  H21 UNL     1       6.149  28.223   4.412  1.00  0.00     0.166 HD
ENDBRANCH   9  11
BRANCH   9  14
HETATM   14  C8  UNL     1       6.230  25.605   2.462  1.00  0.00     0.252 C 
BRANCH  14  15
HETATM   15  N3  UNL     1       7.612  25.842   1.949  1.00  0.00    -0.361 N 
HETATM   16  C9  UNL     1       7.845  27.178   1.594  1.00  0.00     0.064 C 
HETATM   17  C10 UNL     1       8.203  27.484   0.187  1.00  0.00     0.049 C 
HETATM   18  C11 UNL     1       9.015  26.432  -0.495  1.00  0.00    -0.009 C 
HETATM   19  C12 UNL     1      10.398  26.378   0.117  1.00  0.00     0.010 C 
HETATM   20  C13 UNL     1       8.276  25.118  -0.317  1.00  0.00     0.049 C 
HETATM   21  C14 UNL     1       8.052  24.799   1.119  1.00  0.00     0.064 C 
ENDBRANCH  14  15
ENDBRANCH   9  14
ENDBRANCH   4   9
BRANCH   1  22
HETATM   22  C5  UNL     1       3.436  21.874   7.110  1.00  0.00     0.078 C 
BRANCH  22  23
HETATM   23  C4  UNL     1       2.257  21.911   8.014  1.00  0.00     0.007 C 
BRANCH  23  24
HETATM   24  C3  UNL     1       1.059  21.150   7.568  1.00  0.00     0.000 C 
BRANCH  24  25
HETATM   25  C2  UNL     1       0.061  20.921   8.687  1.00  0.00    -0.005 C 
HETATM   26  C1  UNL     1      -1.322  20.880   8.070  1.00  0.00     0.005 C 
ENDBRANCH  24  25
ENDBRANCH  23  24
ENDBRANCH  22  23
ENDBRANCH   1  22
TORSDOF 8
ENDMDL
MODEL 4
REMARK VINA RESULT: -8.534496716      1.305      2.187
REMARK  8 active torsions:
REMARK  status: ('A' for Active; 'I' for Inactive)
REMARK    1  A    between atoms: C2_2  and  C3_3 
REMARK    2  A    between atoms: C3_3  and  C4_4 
REMARK    3  A    between atoms: C4_4  and  C5_5 
REMARK    4  A    between atoms: C5_5  and  C6_6 
REMARK    5  A    between atoms: C7_9  and  S1_10 
REMARK    6  A    between atoms: S1_10  and  N2_11 
REMARK    7  A    between atoms: S1_10  and  C8_15 
REMARK    8  A    between atoms: C8_15  and  N3_16 
ROOT
HETATM    1  C6  UNL     1       3.908  23.156   5.857  1.00  0.00     0.097 A 
HETATM    2  N1  UNL     1       5.197  23.309   5.401  1.00  0.00    -0.322 N 
ATOM      3  H1  UNL     1       5.990  22.728   5.675  1.00  0.00     0.169 HD
HETATM    4  C7  UNL     1       5.252  24.308   4.563  1.00  0.00     0.199 A 
HETATM    5  N4  UNL     1       4.032  24.813   4.462  1.00  0.00    -0.276 N 
ATOM      6  H4  UNL     1       3.759  25.606   3.880  1.00  0.00     0.189 HD
HETATM    7  N5  UNL     1       3.215  24.098   5.259  1.00  0.00    -0.287 N 
ATOM      8  H5  UNL     1       2.216  24.263   5.380  1.00  0.00     0.188 HD
ENDROOT
BRANCH   4   9
HETATM    9  S1  UNL     1       6.835  24.975   3.474  1.00  0.00     0.101 S 
HETATM   10  O1  UNL     1       6.596  24.580   2.376  1.00  0.00    -0.240 OA
BRANCH   9  11
HETATM   11  N2  UNL     1       8.383  23.846   3.875  1.00  0.00    -0.353 N 
ATOM     12  H22 UNL     1       8.474  23.249   4.697  1.00  0.00     0.166 HD
ATOM     13  H21 UNL     1       9.068  23.960   3.129  1.00  0.00     0.166 HD
ENDBRANCH   9  11
BRANCH   9  14
HETATM   14  C8  UNL     1       7.014  26.816   3.493  1.00  0.00     0.252 C 
BRANCH  14  15
HETATM   15  N3  UNL     1       7.308  27.364   4.850  1.00  0.00    -0.361 N 
HETATM   16  C9  UNL     1       6.154  27.627   5.600  1.00  0.00     0.064 C 
HETATM   17  C10 UNL     1       5.900  29.020   6.043  1.00  0.00     0.049 C 
HETATM   18  C11 UNL     1       7.127  29.809   6.359  1.00  0.00    -0.009 C 
HETATM   19  C12 UNL     1       7.783  29.257   7.606  1.00  0.00     0.010 C 
HETATM   20  C13 UNL     1       8.045  29.701   5.155  1.00  0.00     0.049 C 
HETATM   21  C14 UNL     1       8.366  28.285   4.829  1.00  0.00     0.064 C 
ENDBRANCH  14  15
ENDBRANCH   9  14
ENDBRANCH   4   9
BRANCH   1  22
HETATM   22  C5  UNL     1       3.587  22.077   6.800  1.00  0.00     0.078 C 
BRANCH  22  23
HETATM   23  C4  UNL     1       2.208  21.535   6.702  1.00  0.00     0.007 C 
BRANCH  23  24
HETATM   24  C3  UNL     1       1.448  21.428   7.977  1.00  0.00     0.000 C 
BRANCH  24  25
HETATM   25  C2  UNL     1      -0.051  21.540   7.777  1.00  0.00    -0.005 C 
HETATM   26  C1  UNL     1      -0.724  20.778   8.899  1.00  0.00     0.005 C 
ENDBRANCH  24  25
ENDBRANCH  23  24
ENDBRANCH  22  23
ENDBRANCH   1  22
TORSDOF 8
ENDMDL
MODEL 5
REMARK VINA RESULT: -8.481653194      1.022      1.190
REMARK  8 active torsions:
REMARK  status: ('A' for Active; 'I' for Inactive)
REMARK    1  A    between atoms: C2_2  and  C3_3 
REMARK    2  A    between atoms: C3_3  and  C4_4 
REMARK    3  A    between atoms: C4_4  and  C5_5 
REMARK    4  A    between atoms: C5_5  and  C6_6 
REMARK    5  A    between atoms: C7_9  and  S1_10 
REMARK    6  A    between atoms: S1_10  and  N2_11 
REMARK    7  A    between atoms: S1_10  and  C8_15 
REMARK    8  A    between atoms: C8_15  and  N3_16 
ROOT
HETATM    1  C6  UNL     1       3.251  22.837   6.334  1.00  0.00     0.097 A 
HETATM    2  N1  UNL     1       4.532  23.262   6.071  1.00  0.00    -0.322 N 
ATOM      3  H1  UNL     1       5.376  22.887   6.504  1.00  0.00     0.169 HD
HETATM    4  C7  UNL     1       4.506  24.218   5.182  1.00  0.00     0.199 A 
HETATM    5  N4  UNL     1       3.240  24.429   4.858  1.00  0.00    -0.276 N 
ATOM      6  H4  UNL     1       2.901  25.118   4.186  1.00  0.00     0.189 HD
HETATM    7  N5  UNL     1       2.478  23.577   5.570  1.00  0.00    -0.287 N 
ATOM      8  H5  UNL     1       1.460  23.515   5.524  1.00  0.00     0.188 HD
ENDROOT
BRANCH   4   9
HETATM    9  S1  UNL     1       6.064  25.187   4.304  1.00  0.00     0.101 S 
HETATM   10  O1  UNL     1       5.570  25.675   3.335  1.00  0.00    -0.240 OA
BRANCH   9  11
HETATM   11  N2  UNL     1       7.206  23.859   3.430  1.00  0.00    -0.353 N 
ATOM     12  H22 UNL     1       7.668  23.083   3.903  1.00  0.00     0.166 HD
ATOM     13  H21 UNL     1       7.255  24.080   2.435  1.00  0.00     0.166 HD
ENDBRANCH   9  11
BRANCH   9  14
HETATM   14  C8  UNL     1       6.825  26.481   5.385  1.00  0.00     0.252 C 
BRANCH  14  15
HETATM   15  N3  UNL     1       6.632  27.868   4.866  1.00  0.00    -0.361 N 
HETATM   16  C9  UNL     1       7.636  28.265   3.971  1.00  0.00     0.064 C 
HETATM   17  C10 UNL     1       8.469  29.442   4.321  1.00  0.00     0.049 C 
HETATM   18  C11 UNL     1       7.755  30.509   5.083  1.00  0.00    -0.009 C 
HETATM   19  C12 UNL     1       6.730  31.175   4.191  1.00  0.00     0.010 C 
HETATM   20  C13 UNL     1       7.101  29.839   6.278  1.00  0.00     0.049 C 
HETATM   21  C14 UNL     1       6.181  28.745   5.863  1.00  0.00     0.064 C 
ENDBRANCH  14  15
ENDBRANCH   9  14
ENDBRANCH   4   9
BRANCH   1  22
HETATM   22  C5  UNL     1       3.021  21.749   7.291  1.00  0.00     0.078 C 
BRANCH  22  23
HETATM   23  C4  UNL     1       1.879  21.947   8.220  1.00  0.00     0.007 C 
BRANCH  23  24
HETATM   24  C3  UNL     1       0.543  21.512   7.729  1.00  0.00     0.000 C 
BRANCH  24  25
HETATM   25  C2  UNL     1      -0.256  20.770   8.783  1.00  0.00    -0.005 C 
HETATM   26  C1  UNL     1      -1.725  20.972   8.474  1.00  0.00     0.005 C 
ENDBRANCH  24  25
ENDBRANCH  23  24
ENDBRANCH  22  23
ENDBRANCH   1  22
TORSDOF 8
ENDMDL
