MODEL 1
REMARK VINA RESULT: -8.027667682      0.000      0.000
REMARK  7 active torsions:
REMARK  status: ('A' for Active; 'I' for Inactive)
REMARK    1  A    between atoms: C2_2  and  N1_3 
REMARK    2  A    between atoms: N1_3  and  C3_4 
REMARK    3  A    between atoms: N1_3  and  C10_18 
REMARK    4  A    between atoms: C3_4  and  C4_5 
REMARK    5  A    between atoms: C4_5  and  O1_6 
REMARK    6  A    between atoms: O1_6  and  C5_7 
REMARK    7  A    between atoms: C5_7  and  C6_8 
ROOT
HETATM    1  C6  UNL     1       0.646  22.565   6.962  1.00  0.00     0.144 C 
HETATM    2  N2  UNL     1       0.221  23.961   6.757  1.00  0.00    -0.358 N 
ATOM      3  H2  UNL     1       0.819  24.746   6.499  1.00  0.00     0.162 HD
HETATM    4  C7  UNL     1      -1.184  24.005   6.987  1.00  0.00     0.169 C 
HETATM    5  S1  UNL     1      -2.080  25.323   7.416  1.00  0.00    -0.041 SA
HETATM    6  N3  UNL     1      -1.655  22.681   6.773  1.00  0.00    -0.348 N 
ATOM      7  H3  UNL     1      -2.612  22.432   6.522  1.00  0.00     0.163 HD
HETATM    8  C8  UNL     1      -0.563  21.731   6.967  1.00  0.00     0.216 C 
HETATM    9  C9  UNL     1      -0.717  21.111   8.327  1.00  0.00     0.086 C 
HETATM   10  N4  UNL     1      -0.852  20.622   9.365  1.00  0.00    -0.195 NA
ENDROOT
BRANCH   1  11
HETATM   11  C5  UNL     1       1.834  22.172   6.193  1.00  0.00     0.196 C 
BRANCH  11  12
HETATM   12  O1  UNL     1       2.481  23.035   5.386  1.00  0.00    -0.384 OA
BRANCH  12  13
HETATM   13  C4  UNL     1       3.621  23.600   5.856  1.00  0.00     0.212 C 
BRANCH  13  14
HETATM   14  C3  UNL     1       4.370  24.424   4.826  1.00  0.00     0.086 C 
BRANCH  14  15
HETATM   15  N1  UNL     1       5.748  24.389   4.819  1.00  0.00    -0.370 N 
BRANCH  15  16
HETATM   16  C2  UNL     1       6.459  23.221   5.094  1.00  0.00     0.119 C 
HETATM   17  C1  UNL     1       6.626  23.104   6.617  1.00  0.00     0.026 C 
ENDBRANCH  15  16
BRANCH  15  18
HETATM   18  C10 UNL     1       6.467  25.515   4.336  1.00  0.00     0.121 C 
HETATM   19  C11 UNL     1       6.126  25.625   2.891  1.00  0.00     0.091 C 
HETATM   20  N5  UNL     1       5.879  25.715   1.766  1.00  0.00    -0.195 NA
HETATM   21  C12 UNL     1       7.959  25.431   4.428  1.00  0.00     0.047 C 
HETATM   22  C13 UNL     1       8.426  26.889   4.395  1.00  0.00     0.004 C 
HETATM   23  C14 UNL     1       7.374  27.614   5.222  1.00  0.00     0.004 C 
HETATM   24  C15 UNL     1       6.146  26.808   4.989  1.00  0.00     0.047 C 
ENDBRANCH  15  18
ENDBRANCH  14  15
ENDBRANCH  13  14
ENDBRANCH  12  13
ENDBRANCH  11  12
ENDBRANCH   1  11
TORSDOF 7
ENDMDL
MODEL 2
REMARK VINA RESULT: -7.536138784      1.383      2.073
REMARK  7 active torsions:
REMARK  status: ('A' for Active; 'I' for Inactive)
REMARK    1  A    between atoms: C2_2  and  N1_3 
REMARK    2  A    between atoms: N1_3  and  C3_4 
REMARK    3  A    between atoms: N1_3  and  C10_18 
REMARK    4  A    between atoms: C3_4  and  C4_5 
REMARK    5  A    between atoms: C4_5  and  O1_6 
REMARK    6  A    between atoms: O1_6  and  C5_7 
REMARK    7  A    between atoms: C5_7  and  C6_8 
ROOT
HETATM    1  C6  UNL     1       0.314  22.693   6.968  1.00  0.00     0.144 C 
HETATM    2  N2  UNL     1      -0.248  21.404   7.411  1.00  0.00    -0.358 N 
ATOM      3  H2  UNL     1       0.114  20.476   7.190  1.00  0.00     0.162 HD
HETATM    4  C7  UNL     1      -1.391  21.700   8.207  1.00  0.00     0.169 C 
HETATM    5  S1  UNL     1      -2.675  20.709   8.512  1.00  0.00    -0.041 SA
HETATM    6  N3  UNL     1      -1.200  23.026   8.684  1.00  0.00    -0.348 N 
ATOM      7  H3  UNL     1      -1.631  23.415   9.523  1.00  0.00     0.163 HD
HETATM    8  C8  UNL     1      -0.294  23.746   7.793  1.00  0.00     0.216 C 
HETATM    9  C9  UNL     1      -1.118  24.637   6.908  1.00  0.00     0.086 C 
HETATM   10  N4  UNL     1      -1.754  25.336   6.245  1.00  0.00    -0.195 NA
ENDROOT
BRANCH   1  11
HETATM   11  C5  UNL     1       1.760  22.670   6.713  1.00  0.00     0.196 C 
BRANCH  11  12
HETATM   12  O1  UNL     1       2.333  23.455   5.781  1.00  0.00    -0.384 OA
BRANCH  12  13
HETATM   13  C4  UNL     1       3.645  23.248   5.506  1.00  0.00     0.212 C 
BRANCH  13  14
HETATM   14  C3  UNL     1       4.367  24.477   4.986  1.00  0.00     0.086 C 
BRANCH  14  15
HETATM   15  N1  UNL     1       5.743  24.455   4.901  1.00  0.00    -0.370 N 
BRANCH  15  16
HETATM   16  C2  UNL     1       6.477  23.288   5.106  1.00  0.00     0.119 C 
HETATM   17  C1  UNL     1       6.646  23.081   6.619  1.00  0.00     0.026 C 
ENDBRANCH  15  16
BRANCH  15  18
HETATM   18  C10 UNL     1       6.425  25.599   4.409  1.00  0.00     0.121 C 
HETATM   19  C11 UNL     1       6.140  25.644   2.948  1.00  0.00     0.091 C 
HETATM   20  N5  UNL     1       5.937  25.683   1.811  1.00  0.00    -0.195 NA
HETATM   21  C12 UNL     1       7.914  25.595   4.563  1.00  0.00     0.047 C 
HETATM   22  C13 UNL     1       8.308  27.073   4.497  1.00  0.00     0.004 C 
HETATM   23  C14 UNL     1       7.188  27.770   5.255  1.00  0.00     0.004 C 
HETATM   24  C15 UNL     1       6.012  26.896   5.001  1.00  0.00     0.047 C 
ENDBRANCH  15  18
ENDBRANCH  14  15
ENDBRANCH  13  14
ENDBRANCH  12  13
ENDBRANCH  11  12
ENDBRANCH   1  11
TORSDOF 7
ENDMDL
MODEL 3
REMARK VINA RESULT: -7.535208213      0.990      1.650
REMARK  7 active torsions:
REMARK  status: ('A' for Active; 'I' for Inactive)
REMARK    1  A    between atoms: C2_2  and  N1_3 
REMARK    2  A    between atoms: N1_3  and  C3_4 
REMARK    3  A    between atoms: N1_3  and  C10_18 
REMARK    4  A    between atoms: C3_4  and  C4_5 
REMARK    5  A    between atoms: C4_5  and  O1_6 
REMARK    6  A    between atoms: O1_6  and  C5_7 
REMARK    7  A    between atoms: C5_7  and  C6_8 
ROOT
HETATM    1  C6  UNL     1       0.808  22.466   6.973  1.00  0.00     0.144 C 
HETATM    2  N2  UNL     1       0.370  23.823   6.603  1.00  0.00    -0.358 N 
ATOM      3  H2  UNL     1       0.967  24.590   6.291  1.00  0.00     0.162 HD
HETATM    4  C7  UNL     1      -1.045  23.861   6.762  1.00  0.00     0.169 C 
HETATM    5  S1  UNL     1      -1.982  25.197   7.008  1.00  0.00    -0.041 SA
HETATM    6  N3  UNL     1      -1.483  22.512   6.667  1.00  0.00    -0.348 N 
ATOM      7  H3  UNL     1      -2.423  22.218   6.400  1.00  0.00     0.163 HD
HETATM    8  C8  UNL     1      -0.385  21.611   7.010  1.00  0.00     0.216 C 
HETATM    9  C9  UNL     1      -0.595  21.133   8.419  1.00  0.00     0.086 C 
HETATM   10  N4  UNL     1      -0.771  20.752   9.495  1.00  0.00    -0.195 NA
ENDROOT
BRANCH   1  11
HETATM   11  C5  UNL     1       2.038  22.021   6.305  1.00  0.00     0.196 C 
BRANCH  11  12
HETATM   12  O1  UNL     1       2.755  22.838   5.509  1.00  0.00    -0.384 OA
BRANCH  12  13
HETATM   13  C4  UNL     1       3.773  23.532   6.077  1.00  0.00     0.212 C 
BRANCH  13  14
HETATM   14  C3  UNL     1       4.528  24.422   5.106  1.00  0.00     0.086 C 
BRANCH  14  15
HETATM   15  N1  UNL     1       5.889  24.569   5.259  1.00  0.00    -0.370 N 
BRANCH  15  16
HETATM   16  C2  UNL     1       6.679  23.577   5.839  1.00  0.00     0.119 C 
HETATM   17  C1  UNL     1       6.670  22.350   4.915  1.00  0.00     0.026 C 
ENDBRANCH  15  16
BRANCH  15  18
HETATM   18  C10 UNL     1       6.540  25.671   4.643  1.00  0.00     0.121 C 
HETATM   19  C11 UNL     1       6.237  26.851   5.499  1.00  0.00     0.091 C 
HETATM   20  N5  UNL     1       5.998  27.777   6.148  1.00  0.00    -0.195 NA
HETATM   21  C12 UNL     1       6.090  26.010   3.256  1.00  0.00     0.047 C 
HETATM   22  C13 UNL     1       7.263  26.790   2.655  1.00  0.00     0.004 C 
HETATM   23  C14 UNL     1       8.484  26.066   3.202  1.00  0.00     0.004 C 
HETATM   24  C15 UNL     1       8.014  25.556   4.517  1.00  0.00     0.047 C 
ENDBRANCH  15  18
ENDBRANCH  14  15
ENDBRANCH  13  14
ENDBRANCH  12  13
ENDBRANCH  11  12
ENDBRANCH   1  11
TORSDOF 7
ENDMDL
MODEL 4
REMARK VINA RESULT: -7.520291100      1.179      1.334
REMARK  7 active torsions:
REMARK  status: ('A' for Active; 'I' for Inactive)
REMARK    1  A    between atoms: C2_2  and  N1_3 
REMARK    2  A    between atoms: N1_3  and  C3_4 
REMARK    3  A    between atoms: N1_3  and  C10_18 
REMARK    4  A    between atoms: C3_4  and  C4_5 
REMARK    5  A    between atoms: C4_5  and  O1_6 
REMARK    6  A    between atoms: O1_6  and  C5_7 
REMARK    7  A    between atoms: C5_7  and  C6_8 
ROOT
HETATM    1  C6  UNL     1       1.295  23.076   6.334  1.00  0.00     0.144 C 
HETATM    2  N2  UNL     1       0.051  23.794   6.006  1.00  0.00    -0.358 N 
ATOM      3  H2  UNL     1      -0.049  24.566   5.347  1.00  0.00     0.162 HD
HETATM    4  C7  UNL     1      -0.986  23.207   6.786  1.00  0.00     0.169 C 
HETATM    5  S1  UNL     1      -2.414  23.905   7.230  1.00  0.00    -0.041 SA
HETATM    6  N3  UNL     1      -0.538  21.895   7.104  1.00  0.00    -0.348 N 
ATOM      7  H3  UNL     1      -1.144  21.110   7.342  1.00  0.00     0.163 HD
HETATM    8  C8  UNL     1       0.920  21.843   7.038  1.00  0.00     0.216 C 
HETATM    9  C9  UNL     1       1.454  21.906   8.441  1.00  0.00     0.086 C 
HETATM   10  N4  UNL     1       1.859  21.934   9.522  1.00  0.00    -0.195 NA
ENDROOT
BRANCH   1  11
HETATM   11  C5  UNL     1       2.289  23.059   5.254  1.00  0.00     0.196 C 
BRANCH  11  12
HETATM   12  O1  UNL     1       3.560  23.463   5.445  1.00  0.00    -0.384 OA
BRANCH  12  13
HETATM   13  C4  UNL     1       3.979  24.560   4.765  1.00  0.00     0.212 C 
BRANCH  13  14
HETATM   14  C3  UNL     1       5.208  25.220   5.360  1.00  0.00     0.086 C 
BRANCH  14  15
HETATM   15  N1  UNL     1       6.455  24.805   4.944  1.00  0.00    -0.370 N 
BRANCH  15  16
HETATM   16  C2  UNL     1       6.922  23.513   5.186  1.00  0.00     0.119 C 
HETATM   17  C1  UNL     1       6.648  23.168   6.658  1.00  0.00     0.026 C 
ENDBRANCH  15  16
BRANCH  15  18
HETATM   18  C10 UNL     1       7.212  25.642   4.083  1.00  0.00     0.121 C 
HETATM   19  C11 UNL     1       6.540  25.575   2.756  1.00  0.00     0.091 C 
HETATM   20  N5  UNL     1       6.034  25.522   1.718  1.00  0.00    -0.195 NA
HETATM   21  C12 UNL     1       8.640  25.246   3.869  1.00  0.00     0.047 C 
HETATM   22  C13 UNL     1       9.330  26.536   3.417  1.00  0.00     0.004 C 
HETATM   23  C14 UNL     1       8.667  27.607   4.269  1.00  0.00     0.004 C 
HETATM   24  C15 UNL     1       7.299  27.067   4.488  1.00  0.00     0.047 C 
ENDBRANCH  15  18
ENDBRANCH  14  15
ENDBRANCH  13  14
ENDBRANCH  12  13
ENDBRANCH  11  12
ENDBRANCH   1  11
TORSDOF 7
ENDMDL
MODEL 5
REMARK VINA RESULT: -7.330891226      2.900      7.999
REMARK  7 active torsions:
REMARK  status: ('A' for Active; 'I' for Inactive)
REMARK    1  A    between atoms: C2_2  and  N1_3 
REMARK    2  A    between atoms: N1_3  and  C3_4 
REMARK    3  A    between atoms: N1_3  and  C10_18 
REMARK    4  A    between atoms: C3_4  and  C4_5 
REMARK    5  A    between atoms: C4_5  and  O1_6 
REMARK    6  A    between atoms: O1_6  and  C5_7 
REMARK    7  A    between atoms: C5_7  and  C6_8 
ROOT
HETATM    1  C6  UNL     1       5.819  24.334   5.086  1.00  0.00     0.144 C 
HETATM    2  N2  UNL     1       6.572  23.785   3.944  1.00  0.00    -0.358 N 
ATOM      3  H2  UNL     1       6.881  22.820   3.829  1.00  0.00     0.162 HD
HETATM    4  C7  UNL     1       6.786  24.858   3.032  1.00  0.00     0.169 C 
HETATM    5  S1  UNL     1       7.973  24.972   1.891  1.00  0.00    -0.041 SA
HETATM    6  N3  UNL     1       5.767  25.810   3.307  1.00  0.00    -0.348 N 
ATOM      7  H3  UNL     1       5.421  26.507   2.646  1.00  0.00     0.163 HD
HETATM    8  C8  UNL     1       5.290  25.642   4.678  1.00  0.00     0.216 C 
HETATM    9  C9  UNL     1       5.924  26.707   5.527  1.00  0.00     0.086 C 
HETATM   10  N4  UNL     1       6.397  27.540   6.172  1.00  0.00    -0.195 NA
ENDROOT
BRANCH   1  11
HETATM   11  C5  UNL     1       4.972  23.358   5.781  1.00  0.00     0.196 C 
BRANCH  11  12
HETATM   12  O1  UNL     1       3.656  23.239   5.520  1.00  0.00    -0.384 OA
BRANCH  12  13
HETATM   13  C4  UNL     1       2.872  22.689   6.481  1.00  0.00     0.212 C 
BRANCH  13  14
HETATM   14  C3  UNL     1       1.392  22.698   6.148  1.00  0.00     0.086 C 
BRANCH  14  15
HETATM   15  N1  UNL     1       0.479  22.550   7.169  1.00  0.00    -0.370 N 
BRANCH  15  16
HETATM   16  C2  UNL     1       0.791  21.871   8.347  1.00  0.00     0.119 C 
HETATM   17  C1  UNL     1       0.728  20.361   8.066  1.00  0.00     0.026 C 
ENDBRANCH  15  16
BRANCH  15  18
HETATM   18  C10 UNL     1      -0.748  23.264   7.112  1.00  0.00     0.121 C 
HETATM   19  C11 UNL     1      -1.817  22.229   7.042  1.00  0.00     0.091 C 
HETATM   20  N5  UNL     1      -2.655  21.437   6.975  1.00  0.00    -0.195 NA
HETATM   21  C12 UNL     1      -0.931  24.162   5.928  1.00  0.00     0.047 C 
HETATM   22  C13 UNL     1      -1.987  25.174   6.378  1.00  0.00     0.004 C 
HETATM   23  C14 UNL     1      -1.627  25.436   7.832  1.00  0.00     0.004 C 
HETATM   24  C15 UNL     1      -1.031  24.146   8.270  1.00  0.00     0.047 C 
ENDBRANCH  15  18
ENDBRANCH  14  15
ENDBRANCH  13  14
ENDBRANCH  12  13
ENDBRANCH  11  12
ENDBRANCH   1  11
TORSDOF 7
ENDMDL
