MODEL 1
REMARK VINA RESULT: -7.112376236      0.000      0.000
REMARK  7 active torsions:
REMARK  status: ('A' for Active; 'I' for Inactive)
REMARK    1  A    between atoms: C2_2  and  C3_3 
REMARK    2  A    between atoms: C8_12  and  O2_13 
REMARK    3  A    between atoms: O2_13  and  C9_14 
REMARK    4  A    between atoms: C9_14  and  C10_15 
REMARK    5  A    between atoms: C10_15  and  O3_16 
REMARK    6  A    between atoms: C10_15  and  C11_18 
REMARK    7  A    between atoms: C11_18  and  N2_19 
ROOT
HETATM    1  C3  UNL     1      -0.579  24.148   7.750  1.00  0.00     0.240 C 
HETATM    2  N1  UNL     1      -1.604  23.623   8.624  1.00  0.00    -0.038 N 
ATOM      3  H11 UNL     1      -2.446  24.200   8.643  1.00  0.00     0.281 HD
ATOM      4  H12 UNL     1      -1.367  23.704   9.612  1.00  0.00     0.281 HD
HETATM    5  C4  UNL     1      -1.859  22.263   8.212  1.00  0.00     0.328 C 
HETATM    6  O1  UNL     1      -2.105  21.425   9.286  1.00  0.00    -0.359 OA
HETATM    7  C5  UNL     1      -1.327  20.310   9.163  1.00  0.00     0.171 C 
HETATM    8  C6  UNL     1      -0.170  20.632   8.269  1.00  0.00     0.038 C 
HETATM    9  C7  UNL     1      -0.695  21.765   7.439  1.00  0.00     0.075 C 
HETATM   10  C8  UNL     1       0.277  22.926   7.490  1.00  0.00     0.164 C 
ENDROOT
BRANCH  10  11
HETATM   11  O2  UNL     1       1.008  23.032   6.324  1.00  0.00    -0.380 OA
BRANCH  11  12
HETATM   12  C9  UNL     1       1.930  22.019   6.275  1.00  0.00     0.205 C 
BRANCH  12  13
HETATM   13  C10 UNL     1       3.223  22.377   7.003  1.00  0.00     0.180 C 
BRANCH  13  14
HETATM   14  O3  UNL     1       3.227  21.569   8.147  1.00  0.00    -0.388 OA
ATOM     15  H3  UNL     1       4.146  21.447   8.356  1.00  0.00     0.210 HD
ENDBRANCH  13  14
BRANCH  13  16
HETATM   16  C11 UNL     1       4.346  22.066   6.076  1.00  0.00     0.096 C 
BRANCH  16  17
HETATM   17  N2  UNL     1       5.078  23.161   5.575  1.00  0.00    -0.370 N 
HETATM   18  C12 UNL     1       6.269  23.527   6.231  1.00  0.00     0.073 C 
HETATM   19  C13 UNL     1       7.371  23.591   5.172  1.00  0.00     0.118 C 
HETATM   20  S1  UNL     1       6.684  24.661   3.847  1.00  0.00    -0.162 SA
HETATM   21  C14 UNL     1       5.092  25.332   4.459  1.00  0.00     0.094 C 
HETATM   22  C15 UNL     1       4.261  24.256   5.123  1.00  0.00     0.137 C 
ENDBRANCH  16  17
ENDBRANCH  13  16
ENDBRANCH  12  13
ENDBRANCH  11  12
ENDBRANCH  10  11
BRANCH   1  23
HETATM   23  C2  UNL     1      -1.201  24.640   6.517  1.00  0.00    -0.002 C 
HETATM   24  C1  UNL     1      -1.943  25.726   6.535  1.00  0.00     0.009 C 
ENDBRANCH   1  23
TORSDOF 7
ENDMDL
MODEL 2
REMARK VINA RESULT: -6.990720089      3.788      8.230
REMARK  7 active torsions:
REMARK  status: ('A' for Active; 'I' for Inactive)
REMARK    1  A    between atoms: C2_2  and  C3_3 
REMARK    2  A    between atoms: C8_12  and  O2_13 
REMARK    3  A    between atoms: O2_13  and  C9_14 
REMARK    4  A    between atoms: C9_14  and  C10_15 
REMARK    5  A    between atoms: C10_15  and  O3_16 
REMARK    6  A    between atoms: C10_15  and  C11_18 
REMARK    7  A    between atoms: C11_18  and  N2_19 
ROOT
HETATM    1  C3  UNL     1       7.852  24.663   3.699  1.00  0.00     0.240 C 
HETATM    2  N1  UNL     1       8.691  25.820   3.915  1.00  0.00    -0.038 N 
ATOM      3  H11 UNL     1       9.328  26.002   3.139  1.00  0.00     0.281 HD
ATOM      4  H12 UNL     1       9.400  25.672   4.634  1.00  0.00     0.281 HD
HETATM    5  C4  UNL     1       7.817  26.932   4.203  1.00  0.00     0.328 C 
HETATM    6  O1  UNL     1       8.342  27.781   5.162  1.00  0.00    -0.359 OA
HETATM    7  C5  UNL     1       7.390  28.018   6.110  1.00  0.00     0.171 C 
HETATM    8  C6  UNL     1       6.383  26.911   6.063  1.00  0.00     0.038 C 
HETATM    9  C7  UNL     1       6.503  26.412   4.654  1.00  0.00     0.075 C 
HETATM   10  C8  UNL     1       6.710  24.911   4.663  1.00  0.00     0.164 C 
ENDROOT
BRANCH  10  11
HETATM   11  O2  UNL     1       5.562  24.234   4.305  1.00  0.00    -0.380 OA
BRANCH  11  12
HETATM   12  C9  UNL     1       5.131  23.481   5.367  1.00  0.00     0.205 C 
BRANCH  12  13
HETATM   13  C10 UNL     1       3.671  23.756   5.717  1.00  0.00     0.180 C 
BRANCH  13  14
HETATM   14  O3  UNL     1       3.189  24.537   4.659  1.00  0.00    -0.388 OA
ATOM     15  H3  UNL     1       2.430  24.066   4.335  1.00  0.00     0.210 HD
ENDBRANCH  13  14
BRANCH  13  16
HETATM   16  C11 UNL     1       2.991  22.436   5.812  1.00  0.00     0.096 C 
BRANCH  16  17
HETATM   17  N2  UNL     1       1.928  22.333   6.732  1.00  0.00    -0.370 N 
HETATM   18  C12 UNL     1       1.019  23.406   6.828  1.00  0.00     0.073 C 
HETATM   19  C13 UNL     1      -0.387  22.826   6.670  1.00  0.00     0.118 C 
HETATM   20  S1  UNL     1      -0.462  21.445   7.878  1.00  0.00    -0.162 SA
HETATM   21  C14 UNL     1       1.082  21.499   8.865  1.00  0.00     0.094 C 
HETATM   22  C15 UNL     1       2.290  21.719   7.982  1.00  0.00     0.137 C 
ENDBRANCH  16  17
ENDBRANCH  13  16
ENDBRANCH  12  13
ENDBRANCH  11  12
ENDBRANCH  10  11
BRANCH   1  23
HETATM   23  C2  UNL     1       7.389  24.656   2.308  1.00  0.00    -0.002 C 
HETATM   24  C1  UNL     1       8.187  25.054   1.341  1.00  0.00     0.009 C 
ENDBRANCH   1  23
TORSDOF 7
ENDMDL
MODEL 3
REMARK VINA RESULT: -6.960294957      2.967      5.308
REMARK  7 active torsions:
REMARK  status: ('A' for Active; 'I' for Inactive)
REMARK    1  A    between atoms: C2_2  and  C3_3 
REMARK    2  A    between atoms: C8_12  and  O2_13 
REMARK    3  A    between atoms: O2_13  and  C9_14 
REMARK    4  A    between atoms: C9_14  and  C10_15 
REMARK    5  A    between atoms: C10_15  and  O3_16 
REMARK    6  A    between atoms: C10_15  and  C11_18 
REMARK    7  A    between atoms: C11_18  and  N2_19 
ROOT
HETATM    1  C3  UNL     1       4.784  22.447   5.893  1.00  0.00     0.240 C 
HETATM    2  N1  UNL     1       4.150  21.320   6.538  1.00  0.00    -0.038 N 
ATOM      3  H11 UNL     1       4.803  20.745   7.072  1.00  0.00     0.281 HD
ATOM      4  H12 UNL     1       3.848  20.600   5.881  1.00  0.00     0.281 HD
HETATM    5  C4  UNL     1       3.069  21.842   7.341  1.00  0.00     0.328 C 
HETATM    6  O1  UNL     1       1.958  21.016   7.331  1.00  0.00    -0.359 OA
HETATM    7  C5  UNL     1       0.852  21.766   7.059  1.00  0.00     0.171 C 
HETATM    8  C6  UNL     1       1.287  23.024   6.371  1.00  0.00     0.038 C 
HETATM    9  C7  UNL     1       2.701  23.189   6.841  1.00  0.00     0.075 C 
HETATM   10  C8  UNL     1       3.614  23.376   5.646  1.00  0.00     0.164 C 
ENDROOT
BRANCH  10  11
HETATM   11  O2  UNL     1       4.005  24.691   5.502  1.00  0.00    -0.380 OA
BRANCH  11  12
HETATM   12  C9  UNL     1       4.639  24.846   4.297  1.00  0.00     0.205 C 
BRANCH  12  13
HETATM   13  C10 UNL     1       5.620  26.015   4.304  1.00  0.00     0.180 C 
BRANCH  13  14
HETATM   14  O3  UNL     1       5.715  26.396   5.648  1.00  0.00    -0.388 OA
ATOM     15  H3  UNL     1       5.324  27.261   5.685  1.00  0.00     0.210 HD
ENDBRANCH  13  14
BRANCH  13  16
HETATM   16  C11 UNL     1       6.908  25.507   3.758  1.00  0.00     0.096 C 
BRANCH  16  17
HETATM   17  N2  UNL     1       7.230  25.879   2.438  1.00  0.00    -0.370 N 
HETATM   18  C12 UNL     1       6.330  26.706   1.736  1.00  0.00     0.073 C 
HETATM   19  C13 UNL     1       7.129  27.895   1.200  1.00  0.00     0.118 C 
HETATM   20  S1  UNL     1       8.559  27.143   0.328  1.00  0.00    -0.162 SA
HETATM   21  C14 UNL     1       8.295  25.330   0.311  1.00  0.00     0.094 C 
HETATM   22  C15 UNL     1       7.834  24.829   1.662  1.00  0.00     0.137 C 
ENDBRANCH  16  17
ENDBRANCH  13  16
ENDBRANCH  12  13
ENDBRANCH  11  12
ENDBRANCH  10  11
BRANCH   1  23
HETATM   23  C2  UNL     1       5.758  23.043   6.812  1.00  0.00    -0.002 C 
HETATM   24  C1  UNL     1       7.022  23.152   6.462  1.00  0.00     0.009 C 
ENDBRANCH   1  23
TORSDOF 7
ENDMDL
MODEL 4
REMARK VINA RESULT: -6.918198538      4.020      7.066
REMARK  7 active torsions:
REMARK  status: ('A' for Active; 'I' for Inactive)
REMARK    1  A    between atoms: C2_2  and  C3_3 
REMARK    2  A    between atoms: C8_12  and  O2_13 
REMARK    3  A    between atoms: O2_13  and  C9_14 
REMARK    4  A    between atoms: C9_14  and  C10_15 
REMARK    5  A    between atoms: C10_15  and  O3_16 
REMARK    6  A    between atoms: C10_15  and  C11_18 
REMARK    7  A    between atoms: C11_18  and  N2_19 
ROOT
HETATM    1  C3  UNL     1       6.484  23.234   4.533  1.00  0.00     0.240 C 
HETATM    2  N1  UNL     1       6.059  22.084   5.299  1.00  0.00    -0.038 N 
ATOM      3  H11 UNL     1       6.839  21.557   5.693  1.00  0.00     0.281 HD
ATOM      4  H12 UNL     1       5.676  21.337   4.720  1.00  0.00     0.281 HD
HETATM    5  C4  UNL     1       5.132  22.557   6.299  1.00  0.00     0.328 C 
HETATM    6  O1  UNL     1       4.093  21.669   6.518  1.00  0.00    -0.359 OA
HETATM    7  C5  UNL     1       2.912  22.350   6.469  1.00  0.00     0.171 C 
HETATM    8  C6  UNL     1       3.124  23.618   5.700  1.00  0.00     0.038 C 
HETATM    9  C7  UNL     1       4.592  23.872   5.875  1.00  0.00     0.075 C 
HETATM   10  C8  UNL     1       5.234  24.089   4.521  1.00  0.00     0.164 C 
ENDROOT
BRANCH  10  11
HETATM   11  O2  UNL     1       5.510  25.422   4.293  1.00  0.00    -0.380 OA
BRANCH  11  12
HETATM   12  C9  UNL     1       5.352  25.696   2.959  1.00  0.00     0.205 C 
BRANCH  12  13
HETATM   13  C10 UNL     1       6.666  26.094   2.291  1.00  0.00     0.180 C 
BRANCH  13  14
HETATM   14  O3  UNL     1       6.858  25.142   1.281  1.00  0.00    -0.388 OA
ATOM     15  H3  UNL     1       7.517  25.521   0.711  1.00  0.00     0.210 HD
ENDBRANCH  13  14
BRANCH  13  16
HETATM   16  C11 UNL     1       6.482  27.470   1.755  1.00  0.00     0.096 C 
BRANCH  16  17
HETATM   17  N2  UNL     1       6.999  28.528   2.529  1.00  0.00    -0.370 N 
HETATM   18  C12 UNL     1       7.204  29.776   1.908  1.00  0.00     0.073 C 
HETATM   19  C13 UNL     1       6.495  30.830   2.760  1.00  0.00     0.118 C 
HETATM   20  S1  UNL     1       7.108  30.541   4.467  1.00  0.00    -0.162 SA
HETATM   21  C14 UNL     1       8.427  29.272   4.364  1.00  0.00     0.094 C 
HETATM   22  C15 UNL     1       8.022  28.129   3.460  1.00  0.00     0.137 C 
ENDBRANCH  16  17
ENDBRANCH  13  16
ENDBRANCH  12  13
ENDBRANCH  11  12
ENDBRANCH  10  11
BRANCH   1  23
HETATM   23  C2  UNL     1       7.584  23.901   5.234  1.00  0.00    -0.002 C 
HETATM   24  C1  UNL     1       8.681  24.231   4.586  1.00  0.00     0.009 C 
ENDBRANCH   1  23
TORSDOF 7
ENDMDL
MODEL 5
REMARK VINA RESULT: -6.906400975      3.802      8.017
REMARK  7 active torsions:
REMARK  status: ('A' for Active; 'I' for Inactive)
REMARK    1  A    between atoms: C2_2  and  C3_3 
REMARK    2  A    between atoms: C8_12  and  O2_13 
REMARK    3  A    between atoms: O2_13  and  C9_14 
REMARK    4  A    between atoms: C9_14  and  C10_15 
REMARK    5  A    between atoms: C10_15  and  O3_16 
REMARK    6  A    between atoms: C10_15  and  C11_18 
REMARK    7  A    between atoms: C11_18  and  N2_19 
ROOT
HETATM    1  C3  UNL     1       6.079  26.403   4.413  1.00  0.00     0.240 C 
HETATM    2  N1  UNL     1       6.317  27.307   3.310  1.00  0.00    -0.038 N 
ATOM      3  H11 UNL     1       6.302  28.289   3.587  1.00  0.00     0.281 HD
ATOM      4  H12 UNL     1       5.541  27.345   2.650  1.00  0.00     0.281 HD
HETATM    5  C4  UNL     1       7.563  26.911   2.697  1.00  0.00     0.328 C 
HETATM    6  O1  UNL     1       7.537  27.039   1.319  1.00  0.00    -0.359 OA
HETATM    7  C5  UNL     1       7.992  25.881   0.759  1.00  0.00     0.171 C 
HETATM    8  C6  UNL     1       7.839  24.776   1.758  1.00  0.00     0.038 C 
HETATM    9  C7  UNL     1       7.860  25.505   3.068  1.00  0.00     0.075 C 
HETATM   10  C8  UNL     1       6.655  25.103   3.893  1.00  0.00     0.164 C 
ENDROOT
BRANCH  10  11
HETATM   11  O2  UNL     1       6.997  24.234   4.908  1.00  0.00    -0.380 OA
BRANCH  11  12
HETATM   12  C9  UNL     1       6.317  23.055   4.744  1.00  0.00     0.205 C 
BRANCH  12  13
HETATM   13  C10 UNL     1       5.479  22.695   5.968  1.00  0.00     0.180 C 
BRANCH  13  14
HETATM   14  O3  UNL     1       6.289  23.015   7.065  1.00  0.00    -0.388 OA
ATOM     15  H3  UNL     1       5.889  23.789   7.445  1.00  0.00     0.210 HD
ENDBRANCH  13  14
BRANCH  13  16
HETATM   16  C11 UNL     1       4.242  23.520   5.908  1.00  0.00     0.096 C 
BRANCH  16  17
HETATM   17  N2  UNL     1       3.063  22.936   6.414  1.00  0.00    -0.370 N 
HETATM   18  C12 UNL     1       3.108  21.592   6.833  1.00  0.00     0.073 C 
HETATM   19  C13 UNL     1       2.549  21.541   8.256  1.00  0.00     0.118 C 
HETATM   20  S1  UNL     1       0.940  22.422   8.159  1.00  0.00    -0.162 SA
HETATM   21  C14 UNL     1       0.626  22.789   6.391  1.00  0.00     0.094 C 
HETATM   22  C15 UNL     1       1.868  23.323   5.712  1.00  0.00     0.137 C 
ENDBRANCH  16  17
ENDBRANCH  13  16
ENDBRANCH  12  13
ENDBRANCH  11  12
ENDBRANCH  10  11
BRANCH   1  23
HETATM   23  C2  UNL     1       6.808  26.879   5.592  1.00  0.00    -0.002 C 
HETATM   24  C1  UNL     1       6.479  28.020   6.160  1.00  0.00     0.009 C 
ENDBRANCH   1  23
TORSDOF 7
ENDMDL
