MODEL 1
REMARK VINA RESULT: -7.386663193      0.000      0.000
REMARK  8 active torsions:
REMARK  status: ('A' for Active; 'I' for Inactive)
REMARK    1  A    between atoms: N1_1  and  C1_5 
REMARK    2  A    between atoms: C1_5  and  C2_6 
REMARK    3  A    between atoms: C2_6  and  C3_7 
REMARK    4  A    between atoms: C2_6  and  C9_14 
REMARK    5  A    between atoms: C3_7  and  C4_8 
REMARK       I    between atoms: C9_14  and  N2_16 
REMARK    6  A    between atoms: N2_16  and  C10_18 
REMARK    7  A    between atoms: C10_18  and  C11_19 
REMARK    8  A    between atoms: C11_19  and  N3_20 
ROOT
HETATM    1  C2  UNL     1       1.462  21.897   6.870  1.00  0.00     0.103 C 
ENDROOT
BRANCH   1   2
HETATM    2  C1  UNL     1       2.000  21.179   8.089  1.00  0.00     0.243 C 
BRANCH   2   3
HETATM    3  N1  UNL     1       1.558  21.936   9.256  1.00  0.00    -0.079 N 
ATOM      4  H13 UNL     1       0.960  22.727   9.017  1.00  0.00     0.274 HD
ATOM      5  H12 UNL     1       0.882  21.432   9.829  1.00  0.00     0.274 HD
ATOM      6  H11 UNL     1       2.396  22.206   9.769  1.00  0.00     0.274 HD
ENDBRANCH   2   3
ENDBRANCH   1   2
BRANCH   1   7
HETATM    7  C3  UNL     1       0.609  23.071   7.225  1.00  0.00     0.020 C 
BRANCH   7   8
HETATM    8  C4  UNL     1      -0.750  22.990   6.561  1.00  0.00    -0.012 C 
HETATM    9  C5  UNL     1      -1.634  21.963   7.226  1.00  0.00     0.015 C 
HETATM   10  C6  UNL     1      -1.862  22.233   8.679  1.00  0.00     0.074 C 
HETATM   11  S1  UNL     1      -2.676  23.847   8.823  1.00  0.00    -0.169 SA
HETATM   12  C7  UNL     1      -1.728  24.979   7.737  1.00  0.00     0.074 C 
HETATM   13  C8  UNL     1      -1.417  24.326   6.421  1.00  0.00     0.015 C 
ENDBRANCH   7   8
ENDBRANCH   1   7
BRANCH   1  14
HETATM   14  C9  UNL     1       2.669  22.426   6.148  1.00  0.00     0.223 C 
HETATM   15  O1  UNL     1       2.521  23.200   5.170  1.00  0.00    -0.273 OA
HETATM   16  N2  UNL     1       3.982  22.080   6.541  1.00  0.00    -0.359 N 
ATOM     17  H2  UNL     1       4.085  21.450   7.337  1.00  0.00     0.162 HD
BRANCH  16  18
HETATM   18  C10 UNL     1       5.184  22.547   5.903  1.00  0.00     0.152 C 
BRANCH  18  19
HETATM   19  C11 UNL     1       5.356  24.033   5.913  1.00  0.00     0.292 C 
BRANCH  19  20
HETATM   20  N3  UNL     1       5.601  24.576   4.597  1.00  0.00     0.094 N 
HETATM   21  C12 UNL     1       6.855  24.050   4.131  1.00  0.00     0.298 C 
HETATM   22  C13 UNL     1       8.028  24.731   4.777  1.00  0.00     0.198 C 
HETATM   23  O2  UNL     1       7.979  26.116   4.681  1.00  0.00    -0.388 OA
HETATM   24  C14 UNL     1       6.835  26.515   5.405  1.00  0.00     0.198 C 
HETATM   25  C15 UNL     1       5.648  26.009   4.575  1.00  0.00     0.298 C 
ENDBRANCH  19  20
ENDBRANCH  18  19
ENDBRANCH  16  18
ENDBRANCH   1  14
TORSDOF 8
ENDMDL
MODEL 2
REMARK VINA RESULT: -7.215551645      3.360      8.082
REMARK  8 active torsions:
REMARK  status: ('A' for Active; 'I' for Inactive)
REMARK    1  A    between atoms: N1_1  and  C1_5 
REMARK    2  A    between atoms: C1_5  and  C2_6 
REMARK    3  A    between atoms: C2_6  and  C3_7 
REMARK    4  A    between atoms: C2_6  and  C9_14 
REMARK    5  A    between atoms: C3_7  and  C4_8 
REMARK       I    between atoms: C9_14  and  N2_16 
REMARK    6  A    between atoms: N2_16  and  C10_18 
REMARK    7  A    between atoms: C10_18  and  C11_19 
REMARK    8  A    between atoms: C11_19  and  N3_20 
ROOT
HETATM    1  C2  UNL     1       5.894  24.820   5.725  1.00  0.00     0.103 C 
ENDROOT
BRANCH   1   2
HETATM    2  C1  UNL     1       6.769  23.588   5.640  1.00  0.00     0.243 C 
BRANCH   2   3
HETATM    3  N1  UNL     1       6.771  23.168   4.242  1.00  0.00    -0.079 N 
ATOM      4  H13 UNL     1       6.127  23.703   3.661  1.00  0.00     0.274 HD
ATOM      5  H12 UNL     1       7.628  23.417   3.749  1.00  0.00     0.274 HD
ATOM      6  H11 UNL     1       6.582  22.166   4.234  1.00  0.00     0.274 HD
ENDBRANCH   2   3
ENDBRANCH   1   2
BRANCH   1   7
HETATM    7  C3  UNL     1       6.291  25.876   4.745  1.00  0.00     0.020 C 
BRANCH   7   8
HETATM    8  C4  UNL     1       7.594  26.539   5.140  1.00  0.00    -0.012 C 
HETATM    9  C5  UNL     1       8.545  26.637   3.972  1.00  0.00     0.015 C 
HETATM   10  C6  UNL     1       7.985  27.406   2.817  1.00  0.00     0.074 C 
HETATM   11  S1  UNL     1       7.630  29.090   3.393  1.00  0.00    -0.169 SA
HETATM   12  C7  UNL     1       6.742  28.894   4.984  1.00  0.00     0.074 C 
HETATM   13  C8  UNL     1       7.399  27.850   5.841  1.00  0.00     0.015 C 
ENDBRANCH   7   8
ENDBRANCH   1   7
BRANCH   1  14
HETATM   14  C9  UNL     1       4.513  24.363   5.351  1.00  0.00     0.223 C 
HETATM   15  O1  UNL     1       3.956  24.835   4.329  1.00  0.00    -0.273 OA
HETATM   16  N2  UNL     1       3.813  23.405   6.119  1.00  0.00    -0.359 N 
ATOM     17  H2  UNL     1       4.279  23.032   6.946  1.00  0.00     0.162 HD
BRANCH  16  18
HETATM   18  C10 UNL     1       2.492  22.916   5.823  1.00  0.00     0.152 C 
BRANCH  18  19
HETATM   19  C11 UNL     1       2.005  21.843   6.745  1.00  0.00     0.292 C 
BRANCH  19  20
HETATM   20  N3  UNL     1       1.361  22.372   7.926  1.00  0.00     0.094 N 
HETATM   21  C12 UNL     1       0.987  21.261   8.757  1.00  0.00     0.298 C 
HETATM   22  C13 UNL     1      -0.236  20.557   8.241  1.00  0.00     0.198 C 
HETATM   23  O2  UNL     1      -1.305  21.414   8.008  1.00  0.00    -0.388 OA
HETATM   24  C14 UNL     1      -0.885  22.288   6.983  1.00  0.00     0.198 C 
HETATM   25  C15 UNL     1       0.200  23.160   7.631  1.00  0.00     0.298 C 
ENDBRANCH  19  20
ENDBRANCH  18  19
ENDBRANCH  16  18
ENDBRANCH   1  14
TORSDOF 8
ENDMDL
MODEL 3
REMARK VINA RESULT: -7.129382178      3.364      7.830
REMARK  8 active torsions:
REMARK  status: ('A' for Active; 'I' for Inactive)
REMARK    1  A    between atoms: N1_1  and  C1_5 
REMARK    2  A    between atoms: C1_5  and  C2_6 
REMARK    3  A    between atoms: C2_6  and  C3_7 
REMARK    4  A    between atoms: C2_6  and  C9_14 
REMARK    5  A    between atoms: C3_7  and  C4_8 
REMARK       I    between atoms: C9_14  and  N2_16 
REMARK    6  A    between atoms: N2_16  and  C10_18 
REMARK    7  A    between atoms: C10_18  and  C11_19 
REMARK    8  A    between atoms: C11_19  and  N3_20 
ROOT
HETATM    1  C2  UNL     1       5.193  24.084   5.714  1.00  0.00     0.103 C 
ENDROOT
BRANCH   1   2
HETATM    2  C1  UNL     1       6.136  23.016   6.226  1.00  0.00     0.243 C 
BRANCH   2   3
HETATM    3  N1  UNL     1       6.679  22.336   5.056  1.00  0.00    -0.079 N 
ATOM      4  H13 UNL     1       6.229  21.440   4.867  1.00  0.00     0.274 HD
ATOM      5  H12 UNL     1       6.434  22.790   4.176  1.00  0.00     0.274 HD
ATOM      6  H11 UNL     1       7.686  22.257   5.199  1.00  0.00     0.274 HD
ENDBRANCH   2   3
ENDBRANCH   1   2
BRANCH   1   7
HETATM    7  C3  UNL     1       5.494  24.491   4.308  1.00  0.00     0.020 C 
BRANCH   7   8
HETATM    8  C4  UNL     1       5.796  25.972   4.212  1.00  0.00    -0.012 C 
HETATM    9  C5  UNL     1       6.989  26.353   5.055  1.00  0.00     0.015 C 
HETATM   10  C6  UNL     1       8.236  25.617   4.679  1.00  0.00     0.074 C 
HETATM   11  S1  UNL     1       8.620  26.021   2.953  1.00  0.00    -0.169 SA
HETATM   12  C7  UNL     1       7.042  25.838   2.038  1.00  0.00     0.074 C 
HETATM   13  C8  UNL     1       5.905  26.460   2.798  1.00  0.00     0.015 C 
ENDBRANCH   7   8
ENDBRANCH   1   7
BRANCH   1  14
HETATM   14  C9  UNL     1       3.830  23.452   5.711  1.00  0.00     0.223 C 
HETATM   15  O1  UNL     1       2.968  23.830   4.879  1.00  0.00    -0.273 OA
HETATM   16  N2  UNL     1       3.481  22.431   6.625  1.00  0.00    -0.359 N 
ATOM     17  H2  UNL     1       4.192  22.135   7.295  1.00  0.00     0.162 HD
BRANCH  16  18
HETATM   18  C10 UNL     1       2.201  21.776   6.682  1.00  0.00     0.152 C 
BRANCH  18  19
HETATM   19  C11 UNL     1       1.117  22.586   7.321  1.00  0.00     0.292 C 
BRANCH  19  20
HETATM   20  N3  UNL     1      -0.172  22.380   6.702  1.00  0.00     0.094 N 
HETATM   21  C12 UNL     1      -0.754  23.671   6.460  1.00  0.00     0.298 C 
HETATM   22  C13 UNL     1      -1.305  24.287   7.715  1.00  0.00     0.198 C 
HETATM   23  O2  UNL     1      -2.173  23.447   8.402  1.00  0.00    -0.388 OA
HETATM   24  C14 UNL     1      -1.400  22.337   8.806  1.00  0.00     0.198 C 
HETATM   25  C15 UNL     1      -1.066  21.597   7.505  1.00  0.00     0.298 C 
ENDBRANCH  19  20
ENDBRANCH  18  19
ENDBRANCH  16  18
ENDBRANCH   1  14
TORSDOF 8
ENDMDL
MODEL 4
REMARK VINA RESULT: -7.119604057      3.492      8.091
REMARK  8 active torsions:
REMARK  status: ('A' for Active; 'I' for Inactive)
REMARK    1  A    between atoms: N1_1  and  C1_5 
REMARK    2  A    between atoms: C1_5  and  C2_6 
REMARK    3  A    between atoms: C2_6  and  C3_7 
REMARK    4  A    between atoms: C2_6  and  C9_14 
REMARK    5  A    between atoms: C3_7  and  C4_8 
REMARK       I    between atoms: C9_14  and  N2_16 
REMARK    6  A    between atoms: N2_16  and  C10_18 
REMARK    7  A    between atoms: C10_18  and  C11_19 
REMARK    8  A    between atoms: C11_19  and  N3_20 
ROOT
HETATM    1  C2  UNL     1       5.564  24.370   5.519  1.00  0.00     0.103 C 
ENDROOT
BRANCH   1   2
HETATM    2  C1  UNL     1       6.208  23.082   5.987  1.00  0.00     0.243 C 
BRANCH   2   3
HETATM    3  N1  UNL     1       6.722  22.411   4.798  1.00  0.00    -0.079 N 
ATOM      4  H13 UNL     1       6.158  21.609   4.514  1.00  0.00     0.274 HD
ATOM      5  H12 UNL     1       6.606  22.958   3.945  1.00  0.00     0.274 HD
ATOM      6  H11 UNL     1       7.694  22.170   4.991  1.00  0.00     0.274 HD
ENDBRANCH   2   3
ENDBRANCH   1   2
BRANCH   1   7
HETATM    7  C3  UNL     1       6.062  24.809   4.180  1.00  0.00     0.020 C 
BRANCH   7   8
HETATM    8  C4  UNL     1       6.466  26.268   4.189  1.00  0.00    -0.012 C 
HETATM    9  C5  UNL     1       7.866  26.455   4.721  1.00  0.00     0.015 C 
HETATM   10  C6  UNL     1       8.900  25.711   3.936  1.00  0.00     0.074 C 
HETATM   11  S1  UNL     1       8.860  26.336   2.233  1.00  0.00    -0.169 SA
HETATM   12  C7  UNL     1       7.089  26.377   1.761  1.00  0.00     0.074 C 
HETATM   13  C8  UNL     1       6.251  26.947   2.870  1.00  0.00     0.015 C 
ENDBRANCH   7   8
ENDBRANCH   1   7
BRANCH   1  14
HETATM   14  C9  UNL     1       4.102  24.060   5.369  1.00  0.00     0.223 C 
HETATM   15  O1  UNL     1       3.424  24.657   4.496  1.00  0.00    -0.273 OA
HETATM   16  N2  UNL     1       3.456  23.105   6.188  1.00  0.00    -0.359 N 
ATOM     17  H2  UNL     1       4.021  22.629   6.892  1.00  0.00     0.162 HD
BRANCH  16  18
HETATM   18  C10 UNL     1       2.064  22.752   6.103  1.00  0.00     0.152 C 
BRANCH  18  19
HETATM   19  C11 UNL     1       1.633  21.685   7.059  1.00  0.00     0.292 C 
BRANCH  19  20
HETATM   20  N3  UNL     1       0.913  22.213   8.196  1.00  0.00     0.094 N 
HETATM   21  C12 UNL     1       0.267  21.112   8.855  1.00  0.00     0.298 C 
HETATM   22  C13 UNL     1      -0.961  20.655   8.119  1.00  0.00     0.198 C 
HETATM   23  O2  UNL     1      -1.849  21.687   7.841  1.00  0.00    -0.388 OA
HETATM   24  C14 UNL     1      -1.165  22.563   6.972  1.00  0.00     0.198 C 
HETATM   25  C15 UNL     1      -0.067  23.196   7.838  1.00  0.00     0.298 C 
ENDBRANCH  19  20
ENDBRANCH  18  19
ENDBRANCH  16  18
ENDBRANCH   1  14
TORSDOF 8
ENDMDL
MODEL 5
REMARK VINA RESULT: -7.097474539      3.157      7.688
REMARK  8 active torsions:
REMARK  status: ('A' for Active; 'I' for Inactive)
REMARK    1  A    between atoms: N1_1  and  C1_5 
REMARK    2  A    between atoms: C1_5  and  C2_6 
REMARK    3  A    between atoms: C2_6  and  C3_7 
REMARK    4  A    between atoms: C2_6  and  C9_14 
REMARK    5  A    between atoms: C3_7  and  C4_8 
REMARK       I    between atoms: C9_14  and  N2_16 
REMARK    6  A    between atoms: N2_16  and  C10_18 
REMARK    7  A    between atoms: C10_18  and  C11_19 
REMARK    8  A    between atoms: C11_19  and  N3_20 
ROOT
HETATM    1  C2  UNL     1       4.975  23.871   5.828  1.00  0.00     0.103 C 
ENDROOT
BRANCH   1   2
HETATM    2  C1  UNL     1       5.928  22.715   6.044  1.00  0.00     0.243 C 
BRANCH   2   3
HETATM    3  N1  UNL     1       6.644  22.985   7.287  1.00  0.00    -0.079 N 
ATOM      4  H13 UNL     1       6.391  22.347   8.042  1.00  0.00     0.274 HD
ATOM      5  H12 UNL     1       7.634  22.744   7.240  1.00  0.00     0.274 HD
ATOM      6  H11 UNL     1       6.480  23.964   7.516  1.00  0.00     0.274 HD
ENDBRANCH   2   3
ENDBRANCH   1   2
BRANCH   1   7
HETATM    7  C3  UNL     1       5.177  24.543   4.508  1.00  0.00     0.020 C 
BRANCH   7   8
HETATM    8  C4  UNL     1       6.646  24.762   4.216  1.00  0.00    -0.012 C 
HETATM    9  C5  UNL     1       6.910  24.854   2.732  1.00  0.00     0.015 C 
HETATM   10  C6  UNL     1       6.153  25.957   2.064  1.00  0.00     0.074 C 
HETATM   11  S1  UNL     1       6.669  27.522   2.822  1.00  0.00    -0.169 SA
HETATM   12  C7  UNL     1       6.624  27.236   4.632  1.00  0.00     0.074 C 
HETATM   13  C8  UNL     1       7.234  25.909   4.981  1.00  0.00     0.015 C 
ENDBRANCH   7   8
ENDBRANCH   1   7
BRANCH   1  14
HETATM   14  C9  UNL     1       3.601  23.264   5.812  1.00  0.00     0.223 C 
HETATM   15  O1  UNL     1       2.744  23.681   4.993  1.00  0.00    -0.273 OA
HETATM   16  N2  UNL     1       3.235  22.226   6.699  1.00  0.00    -0.359 N 
ATOM     17  H2  UNL     1       3.942  21.899   7.358  1.00  0.00     0.162 HD
BRANCH  16  18
HETATM   18  C10 UNL     1       1.944  21.594   6.742  1.00  0.00     0.152 C 
BRANCH  18  19
HETATM   19  C11 UNL     1       0.880  22.400   7.419  1.00  0.00     0.292 C 
BRANCH  19  20
HETATM   20  N3  UNL     1      -0.390  22.336   6.732  1.00  0.00     0.094 N 
HETATM   21  C12 UNL     1      -0.830  23.683   6.495  1.00  0.00     0.298 C 
HETATM   22  C13 UNL     1      -1.381  24.324   7.737  1.00  0.00     0.198 C 
HETATM   23  O2  UNL     1      -2.361  23.561   8.360  1.00  0.00    -0.388 OA
HETATM   24  C14 UNL     1      -1.723  22.372   8.772  1.00  0.00     0.198 C 
HETATM   25  C15 UNL     1      -1.397  21.629   7.470  1.00  0.00     0.298 C 
ENDBRANCH  19  20
ENDBRANCH  18  19
ENDBRANCH  16  18
ENDBRANCH   1  14
TORSDOF 8
ENDMDL
