MODEL 1
REMARK VINA RESULT: -6.752771291      0.000      0.000
REMARK  11 active torsions:
REMARK  status: ('A' for Active; 'I' for Inactive)
REMARK    1  A    between atoms: N1_1  and  C1_5 
REMARK    2  A    between atoms: C1_5  and  N2_6 
REMARK    3  A    between atoms: C1_5  and  C7_26 
REMARK    4  A    between atoms: N2_6  and  C2_8 
REMARK    5  A    between atoms: C3_11  and  C4_12 
REMARK    6  A    between atoms: C4_12  and  N4_13 
REMARK    7  A    between atoms: C4_12  and  C5_17 
REMARK    8  A    between atoms: C5_17  and  N5_18 
REMARK    9  A    between atoms: C5_17  and  O1_22 
REMARK       I    between atoms: C7_26  and  N6_28 
REMARK   10  A    between atoms: N6_28  and  N7_30 
REMARK   11  A    between atoms: N7_30  and  C8_32 
ROOT
HETATM    1  C1  UNL     1      15.168  16.782  28.823  1.00  0.00     0.378 C 
ENDROOT
BRANCH   1   2
HETATM    2  N1  UNL     1      14.716  16.137  30.030  1.00  0.00    -0.049 N 
ATOM      3  H13 UNL     1      15.158  15.222  30.117  1.00  0.00     0.277 HD
ATOM      4  H12 UNL     1      15.111  16.612  30.842  1.00  0.00     0.277 HD
ATOM      5  H11 UNL     1      13.707  16.044  30.143  1.00  0.00     0.277 HD
ENDBRANCH   1   2
BRANCH   1   6
HETATM    6  N2  UNL     1      15.777  18.022  28.977  1.00  0.00    -0.336 N 
ATOM      7  H2  UNL     1      16.778  18.001  28.784  1.00  0.00     0.164 HD
BRANCH   6   8
HETATM    8  C2  UNL     1      15.353  19.188  29.308  1.00  0.00     0.146 A 
HETATM    9  N3  UNL     1      15.982  20.341  29.518  1.00  0.00    -0.338 N 
HETATM   10  C3  UNL     1      15.296  21.392  29.860  1.00  0.00     0.052 A 
ATOM     11  H3  UNL     1      16.995  20.401  29.411  1.00  0.00     0.168 HD
HETATM   12  C6  UNL     1      13.943  21.271  29.990  1.00  0.00     0.080 A 
HETATM   13  S1  UNL     1      13.700  19.630  29.613  1.00  0.00    -0.064 SA
BRANCH  10  14
HETATM   14  C4  UNL     1      15.955  22.736  30.122  1.00  0.00     0.289 C 
BRANCH  14  15
HETATM   15  N4  UNL     1      16.578  23.241  28.925  1.00  0.00    -0.065 N 
ATOM     16  H43 UNL     1      17.461  23.712  29.128  1.00  0.00     0.275 HD
ATOM     17  H42 UNL     1      16.937  22.488  28.340  1.00  0.00     0.275 HD
ATOM     18  H41 UNL     1      15.937  23.846  28.411  1.00  0.00     0.275 HD
ENDBRANCH  14  15
BRANCH  14  19
HETATM   19  C5  UNL     1      14.922  23.685  30.686  1.00  0.00     0.352 C 
BRANCH  19  20
HETATM   20  N5  UNL     1      14.827  24.875  29.866  1.00  0.00    -0.051 N 
ATOM     21  H53 UNL     1      15.685  25.043  29.341  1.00  0.00     0.277 HD
ATOM     22  H52 UNL     1      14.190  24.744  29.080  1.00  0.00     0.277 HD
ATOM     23  H51 UNL     1      14.567  25.680  30.436  1.00  0.00     0.277 HD
ENDBRANCH  19  20
BRANCH  19  24
HETATM   24  O1  UNL     1      15.303  24.032  31.977  1.00  0.00    -0.368 OA
ATOM     25  H1  UNL     1      14.662  24.640  32.326  1.00  0.00     0.212 HD
ENDBRANCH  19  24
ENDBRANCH  14  19
ENDBRANCH  10  14
ENDBRANCH   6   8
ENDBRANCH   1   6
BRANCH   1  26
HETATM   26  C7  UNL     1      15.975  15.884  27.969  1.00  0.00     0.286 C 
HETATM   27  O2  UNL     1      16.183  16.162  26.766  1.00  0.00    -0.267 OA
HETATM   28  N6  UNL     1      16.532  14.691  28.488  1.00  0.00    -0.252 N 
ATOM     29  H6  UNL     1      16.369  14.449  29.466  1.00  0.00     0.190 HD
BRANCH  28  30
HETATM   30  N7  UNL     1      17.298  13.838  27.695  1.00  0.00    -0.128 N 
ATOM     31  H7  UNL     1      17.678  14.203  26.822  1.00  0.00     0.205 HD
BRANCH  30  32
HETATM   32  C8  UNL     1      17.574  12.494  28.038  1.00  0.00     0.707 A 
HETATM   33  N8  UNL     1      16.656  11.625  28.256  1.00  0.00    -0.222 N 
HETATM   34  C9  UNL     1      16.808  10.259  28.605  1.00  0.00     0.159 A 
ATOM     35  H8  UNL     1      15.697  11.958  28.168  1.00  0.00     0.177 HD
HETATM   36  C10 UNL     1      18.219   9.792  28.717  1.00  0.00     0.160 A 
HETATM   37  N9  UNL     1      19.165  10.811  28.462  1.00  0.00    -0.321 N 
HETATM   38  N10 UNL     1      18.910  11.985  28.168  1.00  0.00    -0.135 N 
ATOM     39  H9  UNL     1      20.151  10.554  28.528  1.00  0.00     0.180 HD
ATOM     40  H10 UNL     1      19.688  12.624  28.008  1.00  0.00     0.205 HD
ENDBRANCH  30  32
ENDBRANCH  28  30
ENDBRANCH   1  26
TORSDOF 11
ENDMDL
MODEL 2
REMARK VINA RESULT: -6.745972549      2.335      9.573
REMARK  11 active torsions:
REMARK  status: ('A' for Active; 'I' for Inactive)
REMARK    1  A    between atoms: N1_1  and  C1_5 
REMARK    2  A    between atoms: C1_5  and  N2_6 
REMARK    3  A    between atoms: C1_5  and  C7_26 
REMARK    4  A    between atoms: N2_6  and  C2_8 
REMARK    5  A    between atoms: C3_11  and  C4_12 
REMARK    6  A    between atoms: C4_12  and  N4_13 
REMARK    7  A    between atoms: C4_12  and  C5_17 
REMARK    8  A    between atoms: C5_17  and  N5_18 
REMARK    9  A    between atoms: C5_17  and  O1_22 
REMARK       I    between atoms: C7_26  and  N6_28 
REMARK   10  A    between atoms: N6_28  and  N7_30 
REMARK   11  A    between atoms: N7_30  and  C8_32 
ROOT
HETATM    1  C1  UNL     1      15.962  17.909  28.760  1.00  0.00     0.378 C 
ENDROOT
BRANCH   1   2
HETATM    2  N1  UNL     1      15.473  17.718  30.102  1.00  0.00    -0.049 N 
ATOM      3  H13 UNL     1      14.575  18.188  30.211  1.00  0.00     0.277 HD
ATOM      4  H12 UNL     1      15.192  16.747  30.231  1.00  0.00     0.277 HD
ATOM      5  H11 UNL     1      16.101  17.998  30.856  1.00  0.00     0.277 HD
ENDBRANCH   1   2
BRANCH   1   6
HETATM    6  N2  UNL     1      15.355  17.147  27.768  1.00  0.00    -0.336 N 
ATOM      7  H2  UNL     1      14.991  17.709  26.999  1.00  0.00     0.164 HD
BRANCH   6   8
HETATM    8  C2  UNL     1      15.154  15.889  27.609  1.00  0.00     0.146 A 
HETATM    9  N3  UNL     1      15.955  14.834  27.731  1.00  0.00    -0.338 N 
HETATM   10  C3  UNL     1      15.486  13.643  27.498  1.00  0.00     0.052 A 
ATOM     11  H3  UNL     1      16.930  14.958  28.005  1.00  0.00     0.168 HD
HETATM   12  C6  UNL     1      14.176  13.519  27.136  1.00  0.00     0.080 A 
HETATM   13  S1  UNL     1      13.657  15.140  27.141  1.00  0.00    -0.064 SA
BRANCH  10  14
HETATM   14  C4  UNL     1      16.350  12.399  27.612  1.00  0.00     0.289 C 
BRANCH  14  15
HETATM   15  N4  UNL     1      16.264  11.605  26.412  1.00  0.00    -0.065 N 
ATOM     16  H43 UNL     1      15.351  11.693  25.966  1.00  0.00     0.275 HD
ATOM     17  H42 UNL     1      16.839  11.990  25.663  1.00  0.00     0.275 HD
ATOM     18  H41 UNL     1      16.498  10.631  26.605  1.00  0.00     0.275 HD
ENDBRANCH  14  15
BRANCH  14  19
HETATM   19  C5  UNL     1      17.768  12.816  27.933  1.00  0.00     0.352 C 
BRANCH  19  20
HETATM   20  N5  UNL     1      18.617  11.652  28.082  1.00  0.00    -0.051 N 
ATOM     21  H53 UNL     1      18.286  11.034  28.822  1.00  0.00     0.277 HD
ATOM     22  H52 UNL     1      18.523  11.011  27.294  1.00  0.00     0.277 HD
ATOM     23  H51 UNL     1      19.586  11.935  28.228  1.00  0.00     0.277 HD
ENDBRANCH  19  20
BRANCH  19  24
HETATM   24  O1  UNL     1      17.754  13.543  29.119  1.00  0.00    -0.368 OA
ATOM     25  H1  UNL     1      18.650  13.652  29.413  1.00  0.00     0.212 HD
ENDBRANCH  19  24
ENDBRANCH  14  19
ENDBRANCH  10  14
ENDBRANCH   6   8
ENDBRANCH   1   6
BRANCH   1  26
HETATM   26  C7  UNL     1      16.030  19.337  28.380  1.00  0.00     0.286 C 
HETATM   27  O2  UNL     1      16.162  19.674  27.181  1.00  0.00    -0.267 OA
HETATM   28  N6  UNL     1      15.946  20.356  29.358  1.00  0.00    -0.252 N 
ATOM     29  H6  UNL     1      15.841  20.098  30.339  1.00  0.00     0.190 HD
BRANCH  28  30
HETATM   30  N7  UNL     1      16.005  21.705  29.012  1.00  0.00    -0.128 N 
ATOM     31  H7  UNL     1      16.444  21.959  28.128  1.00  0.00     0.205 HD
BRANCH  30  32
HETATM   32  C8  UNL     1      15.486  22.741  29.825  1.00  0.00     0.707 A 
HETATM   33  N8  UNL     1      14.932  22.526  30.962  1.00  0.00    -0.222 N 
HETATM   34  C9  UNL     1      14.379  23.475  31.860  1.00  0.00     0.159 A 
ATOM     35  H8  UNL     1      14.883  21.552  31.257  1.00  0.00     0.177 HD
HETATM   36  C10 UNL     1      14.472  24.893  31.412  1.00  0.00     0.160 A 
HETATM   37  N9  UNL     1      15.095  25.040  30.151  1.00  0.00    -0.321 N 
HETATM   38  N10 UNL     1      15.540  24.124  29.448  1.00  0.00    -0.135 N 
ATOM     39  H9  UNL     1      15.185  25.988  29.787  1.00  0.00     0.180 HD
ATOM     40  H10 UNL     1      15.968  24.365  28.554  1.00  0.00     0.205 HD
ENDBRANCH  30  32
ENDBRANCH  28  30
ENDBRANCH   1  26
TORSDOF 11
ENDMDL
MODEL 3
REMARK VINA RESULT: -6.678158105      2.576      9.656
REMARK  11 active torsions:
REMARK  status: ('A' for Active; 'I' for Inactive)
REMARK    1  A    between atoms: N1_1  and  C1_5 
REMARK    2  A    between atoms: C1_5  and  N2_6 
REMARK    3  A    between atoms: C1_5  and  C7_26 
REMARK    4  A    between atoms: N2_6  and  C2_8 
REMARK    5  A    between atoms: C3_11  and  C4_12 
REMARK    6  A    between atoms: C4_12  and  N4_13 
REMARK    7  A    between atoms: C4_12  and  C5_17 
REMARK    8  A    between atoms: C5_17  and  N5_18 
REMARK    9  A    between atoms: C5_17  and  O1_22 
REMARK       I    between atoms: C7_26  and  N6_28 
REMARK   10  A    between atoms: N6_28  and  N7_30 
REMARK   11  A    between atoms: N7_30  and  C8_32 
ROOT
HETATM    1  C1  UNL     1      16.130  16.564  27.508  1.00  0.00     0.378 C 
ENDROOT
BRANCH   1   2
HETATM    2  N1  UNL     1      16.227  16.732  26.080  1.00  0.00    -0.049 N 
ATOM      3  H13 UNL     1      16.570  15.871  25.655  1.00  0.00     0.277 HD
ATOM      4  H12 UNL     1      15.292  16.779  25.675  1.00  0.00     0.277 HD
ATOM      5  H11 UNL     1      16.783  17.523  25.753  1.00  0.00     0.277 HD
ENDBRANCH   1   2
BRANCH   1   6
HETATM    6  N2  UNL     1      16.901  15.550  28.064  1.00  0.00    -0.336 N 
ATOM      7  H2  UNL     1      17.693  15.900  28.603  1.00  0.00     0.164 HD
BRANCH   6   8
HETATM    8  C2  UNL     1      16.832  14.268  28.047  1.00  0.00     0.146 A 
HETATM    9  N3  UNL     1      17.706  13.322  28.377  1.00  0.00    -0.338 N 
HETATM   10  C3  UNL     1      17.374  12.070  28.253  1.00  0.00     0.052 A 
ATOM     11  H3  UNL     1      18.631  13.576  28.726  1.00  0.00     0.168 HD
HETATM   12  C6  UNL     1      16.127  11.772  27.784  1.00  0.00     0.080 A 
HETATM   13  S1  UNL     1      15.467  13.321  27.535  1.00  0.00    -0.064 SA
BRANCH  10  14
HETATM   14  C4  UNL     1      18.329  10.943  28.605  1.00  0.00     0.289 C 
BRANCH  14  15
HETATM   15  N4  UNL     1      17.626   9.688  28.701  1.00  0.00    -0.065 N 
ATOM     16  H43 UNL     1      16.741   9.712  28.195  1.00  0.00     0.275 HD
ATOM     17  H42 UNL     1      18.089   8.954  28.166  1.00  0.00     0.275 HD
ATOM     18  H41 UNL     1      17.497   9.420  29.677  1.00  0.00     0.275 HD
ENDBRANCH  14  15
BRANCH  14  19
HETATM   19  C5  UNL     1      19.443  10.908  27.582  1.00  0.00     0.352 C 
BRANCH  19  20
HETATM   20  N5  UNL     1      20.122   9.630  27.616  1.00  0.00    -0.051 N 
ATOM     21  H53 UNL     1      20.784   9.573  28.390  1.00  0.00     0.277 HD
ATOM     22  H52 UNL     1      19.496   8.874  27.896  1.00  0.00     0.277 HD
ATOM     23  H51 UNL     1      20.569   9.440  26.719  1.00  0.00     0.277 HD
ENDBRANCH  19  20
BRANCH  19  24
HETATM   24  O1  UNL     1      20.343  11.927  27.878  1.00  0.00    -0.368 OA
ATOM     25  H1  UNL     1      20.078  12.707  27.406  1.00  0.00     0.212 HD
ENDBRANCH  19  24
ENDBRANCH  14  19
ENDBRANCH  10  14
ENDBRANCH   6   8
ENDBRANCH   1   6
BRANCH   1  26
HETATM   26  C7  UNL     1      16.301  17.838  28.240  1.00  0.00     0.286 C 
HETATM   27  O2  UNL     1      16.917  18.797  27.720  1.00  0.00    -0.267 OA
HETATM   28  N6  UNL     1      15.775  18.006  29.543  1.00  0.00    -0.252 N 
ATOM     29  H6  UNL     1      15.273  17.234  29.981  1.00  0.00     0.190 HD
BRANCH  28  30
HETATM   30  N7  UNL     1      15.925  19.203  30.241  1.00  0.00    -0.128 N 
ATOM     31  H7  UNL     1      16.558  19.220  31.040  1.00  0.00     0.205 HD
BRANCH  30  32
HETATM   32  C8  UNL     1      15.245  20.396  29.899  1.00  0.00     0.707 A 
HETATM   33  N8  UNL     1      14.068  20.676  30.325  1.00  0.00    -0.222 N 
HETATM   34  C9  UNL     1      13.290  21.830  30.054  1.00  0.00     0.159 A 
ATOM     35  H8  UNL     1      13.638  19.983  30.936  1.00  0.00     0.177 HD
HETATM   36  C10 UNL     1      13.944  22.835  29.168  1.00  0.00     0.160 A 
HETATM   37  N9  UNL     1      15.236  22.447  28.744  1.00  0.00    -0.321 N 
HETATM   38  N10 UNL     1      15.817  21.398  29.047  1.00  0.00    -0.135 N 
ATOM     39  H9  UNL     1      15.734  23.093  28.131  1.00  0.00     0.180 HD
ATOM     40  H10 UNL     1      16.752  21.238  28.672  1.00  0.00     0.205 HD
ENDBRANCH  30  32
ENDBRANCH  28  30
ENDBRANCH   1  26
TORSDOF 11
ENDMDL
MODEL 4
REMARK VINA RESULT: -6.652413725      2.264      9.812
REMARK  11 active torsions:
REMARK  status: ('A' for Active; 'I' for Inactive)
REMARK    1  A    between atoms: N1_1  and  C1_5 
REMARK    2  A    between atoms: C1_5  and  N2_6 
REMARK    3  A    between atoms: C1_5  and  C7_26 
REMARK    4  A    between atoms: N2_6  and  C2_8 
REMARK    5  A    between atoms: C3_11  and  C4_12 
REMARK    6  A    between atoms: C4_12  and  N4_13 
REMARK    7  A    between atoms: C4_12  and  C5_17 
REMARK    8  A    between atoms: C5_17  and  N5_18 
REMARK    9  A    between atoms: C5_17  and  O1_22 
REMARK       I    between atoms: C7_26  and  N6_28 
REMARK   10  A    between atoms: N6_28  and  N7_30 
REMARK   11  A    between atoms: N7_30  and  C8_32 
ROOT
HETATM    1  C1  UNL     1      14.860  17.949  28.479  1.00  0.00     0.378 C 
ENDROOT
BRANCH   1   2
HETATM    2  N1  UNL     1      14.156  17.713  27.243  1.00  0.00    -0.049 N 
ATOM      3  H13 UNL     1      13.279  17.228  27.434  1.00  0.00     0.277 HD
ATOM      4  H12 UNL     1      13.804  18.596  26.874  1.00  0.00     0.277 HD
ATOM      5  H11 UNL     1      14.672  17.217  26.516  1.00  0.00     0.277 HD
ENDBRANCH   1   2
BRANCH   1   6
HETATM    6  N2  UNL     1      15.664  16.913  28.939  1.00  0.00    -0.336 N 
ATOM      7  H2  UNL     1      16.390  17.227  29.583  1.00  0.00     0.164 HD
BRANCH   6   8
HETATM    8  C2  UNL     1      15.692  15.647  28.730  1.00  0.00     0.146 A 
HETATM    9  N3  UNL     1      16.593  14.855  28.156  1.00  0.00    -0.338 N 
HETATM   10  C3  UNL     1      16.361  13.578  28.066  1.00  0.00     0.052 A 
ATOM     11  H3  UNL     1      17.461  15.246  27.789  1.00  0.00     0.168 HD
HETATM   12  C6  UNL     1      15.188  13.094  28.570  1.00  0.00     0.080 A 
HETATM   13  S1  UNL     1      14.451  14.508  29.163  1.00  0.00    -0.064 SA
BRANCH  10  14
HETATM   14  C4  UNL     1      17.345  12.622  27.415  1.00  0.00     0.289 C 
BRANCH  14  15
HETATM   15  N4  UNL     1      18.374  12.235  28.347  1.00  0.00    -0.065 N 
ATOM     16  H43 UNL     1      19.036  11.581  27.929  1.00  0.00     0.275 HD
ATOM     17  H42 UNL     1      19.018  13.002  28.538  1.00  0.00     0.275 HD
ATOM     18  H41 UNL     1      17.965  11.863  29.204  1.00  0.00     0.275 HD
ENDBRANCH  14  15
BRANCH  14  19
HETATM   19  C5  UNL     1      16.585  11.438  26.863  1.00  0.00     0.352 C 
BRANCH  19  20
HETATM   20  N5  UNL     1      17.276  10.203  27.173  1.00  0.00    -0.051 N 
ATOM     21  H53 UNL     1      16.635   9.410  27.211  1.00  0.00     0.277 HD
ATOM     22  H52 UNL     1      17.859   9.890  26.396  1.00  0.00     0.277 HD
ATOM     23  H51 UNL     1      17.811  10.301  28.035  1.00  0.00     0.277 HD
ENDBRANCH  19  20
BRANCH  19  24
HETATM   24  O1  UNL     1      16.482  11.586  25.484  1.00  0.00    -0.368 OA
ATOM     25  H1  UNL     1      15.995  10.847  25.139  1.00  0.00     0.212 HD
ENDBRANCH  19  24
ENDBRANCH  14  19
ENDBRANCH  10  14
ENDBRANCH   6   8
ENDBRANCH   1   6
BRANCH   1  26
HETATM   26  C7  UNL     1      15.584  19.238  28.480  1.00  0.00     0.286 C 
HETATM   27  O2  UNL     1      16.203  19.625  27.462  1.00  0.00    -0.267 OA
HETATM   28  N6  UNL     1      15.595  20.067  29.626  1.00  0.00    -0.252 N 
ATOM     29  H6  UNL     1      15.098  19.765  30.465  1.00  0.00     0.190 HD
BRANCH  28  30
HETATM   30  N7  UNL     1      16.270  21.287  29.638  1.00  0.00    -0.128 N 
ATOM     31  H7  UNL     1      17.241  21.305  29.326  1.00  0.00     0.205 HD
BRANCH  30  32
HETATM   32  C8  UNL     1      15.678  22.501  30.061  1.00  0.00     0.707 A 
HETATM   33  N8  UNL     1      14.926  22.588  31.096  1.00  0.00    -0.222 N 
HETATM   34  C9  UNL     1      14.281  23.739  31.615  1.00  0.00     0.159 A 
ATOM     35  H8  UNL     1      14.772  21.721  31.611  1.00  0.00     0.177 HD
HETATM   36  C10 UNL     1      14.528  24.996  30.853  1.00  0.00     0.160 A 
HETATM   37  N9  UNL     1      15.366  24.810  29.729  1.00  0.00    -0.321 N 
HETATM   38  N10 UNL     1      15.873  23.742  29.368  1.00  0.00    -0.135 N 
ATOM     39  H9  UNL     1      15.570  25.634  29.164  1.00  0.00     0.180 HD
ATOM     40  H10 UNL     1      16.461  23.743  28.535  1.00  0.00     0.205 HD
ENDBRANCH  30  32
ENDBRANCH  28  30
ENDBRANCH   1  26
TORSDOF 11
ENDMDL
MODEL 5
REMARK VINA RESULT: -6.650700276      2.439      3.389
REMARK  11 active torsions:
REMARK  status: ('A' for Active; 'I' for Inactive)
REMARK    1  A    between atoms: N1_1  and  C1_5 
REMARK    2  A    between atoms: C1_5  and  N2_6 
REMARK    3  A    between atoms: C1_5  and  C7_26 
REMARK    4  A    between atoms: N2_6  and  C2_8 
REMARK    5  A    between atoms: C3_11  and  C4_12 
REMARK    6  A    between atoms: C4_12  and  N4_13 
REMARK    7  A    between atoms: C4_12  and  C5_17 
REMARK    8  A    between atoms: C5_17  and  N5_18 
REMARK    9  A    between atoms: C5_17  and  O1_22 
REMARK       I    between atoms: C7_26  and  N6_28 
REMARK   10  A    between atoms: N6_28  and  N7_30 
REMARK   11  A    between atoms: N7_30  and  C8_32 
ROOT
HETATM    1  C1  UNL     1      15.743  13.772  27.834  1.00  0.00     0.378 C 
ENDROOT
BRANCH   1   2
HETATM    2  N1  UNL     1      14.759  12.794  28.224  1.00  0.00    -0.049 N 
ATOM      3  H13 UNL     1      14.902  12.534  29.200  1.00  0.00     0.277 HD
ATOM      4  H12 UNL     1      13.841  13.234  28.282  1.00  0.00     0.277 HD
ATOM      5  H11 UNL     1      14.702  11.954  27.649  1.00  0.00     0.277 HD
ENDBRANCH   1   2
BRANCH   1   6
HETATM    6  N2  UNL     1      15.857  14.893  28.648  1.00  0.00    -0.336 N 
ATOM      7  H2  UNL     1      15.933  14.661  29.638  1.00  0.00     0.164 HD
BRANCH   6   8
HETATM    8  C2  UNL     1      15.886  16.157  28.424  1.00  0.00     0.146 A 
HETATM    9  N3  UNL     1      15.673  17.208  29.210  1.00  0.00    -0.338 N 
HETATM   10  C3  UNL     1      15.762  18.408  28.714  1.00  0.00     0.052 A 
ATOM     11  H3  UNL     1      15.442  17.076  30.195  1.00  0.00     0.168 HD
HETATM   12  C6  UNL     1      16.075  18.543  27.392  1.00  0.00     0.080 A 
HETATM   13  S1  UNL     1      16.232  16.921  26.901  1.00  0.00    -0.064 SA
BRANCH  10  14
HETATM   14  C4  UNL     1      15.522  19.650  29.555  1.00  0.00     0.289 C 
BRANCH  14  15
HETATM   15  N4  UNL     1      15.952  20.833  28.854  1.00  0.00    -0.065 N 
ATOM     16  H43 UNL     1      15.792  20.756  27.849  1.00  0.00     0.275 HD
ATOM     17  H42 UNL     1      15.342  21.627  29.045  1.00  0.00     0.275 HD
ATOM     18  H41 UNL     1      16.927  21.047  29.067  1.00  0.00     0.275 HD
ENDBRANCH  14  15
BRANCH  14  19
HETATM   19  C5  UNL     1      14.062  19.702  29.945  1.00  0.00     0.352 C 
BRANCH  19  20
HETATM   20  N5  UNL     1      13.696  21.040  30.359  1.00  0.00    -0.051 N 
ATOM     21  H53 UNL     1      14.095  21.279  31.266  1.00  0.00     0.277 HD
ATOM     22  H52 UNL     1      14.162  21.752  29.795  1.00  0.00     0.277 HD
ATOM     23  H51 UNL     1      12.682  21.151  30.349  1.00  0.00     0.277 HD
ENDBRANCH  19  20
BRANCH  19  24
HETATM   24  O1  UNL     1      13.855  18.812  30.993  1.00  0.00    -0.368 OA
ATOM     25  H1  UNL     1      12.991  18.430  30.896  1.00  0.00     0.212 HD
ENDBRANCH  19  24
ENDBRANCH  14  19
ENDBRANCH  10  14
ENDBRANCH   6   8
ENDBRANCH   1   6
BRANCH   1  26
HETATM   26  C7  UNL     1      17.064  13.167  27.558  1.00  0.00     0.286 C 
HETATM   27  O2  UNL     1      17.656  13.388  26.476  1.00  0.00    -0.267 OA
HETATM   28  N6  UNL     1      17.692  12.325  28.506  1.00  0.00    -0.252 N 
ATOM     29  H6  UNL     1      17.222  12.132  29.391  1.00  0.00     0.190 HD
BRANCH  28  30
HETATM   30  N7  UNL     1      18.939  11.752  28.260  1.00  0.00    -0.128 N 
ATOM     31  H7  UNL     1      19.712  12.368  28.009  1.00  0.00     0.205 HD
BRANCH  30  32
HETATM   32  C8  UNL     1      19.187  10.361  28.339  1.00  0.00     0.707 A 
HETATM   33  N8  UNL     1      18.503   9.571  29.084  1.00  0.00    -0.222 N 
HETATM   34  C9  UNL     1      18.656   8.171  29.246  1.00  0.00     0.159 A 
ATOM     35  H8  UNL     1      17.757  10.004  29.626  1.00  0.00     0.177 HD
HETATM   36  C10 UNL     1      19.747   7.559  28.435  1.00  0.00     0.160 A 
HETATM   37  N9  UNL     1      20.449   8.498  27.646  1.00  0.00    -0.321 N 
HETATM   38  N10 UNL     1      20.224   9.714  27.589  1.00  0.00    -0.135 N 
ATOM     39  H9  UNL     1      21.211   8.141  27.070  1.00  0.00     0.180 HD
ATOM     40  H10 UNL     1      20.807  10.285  26.977  1.00  0.00     0.205 HD
ENDBRANCH  30  32
ENDBRANCH  28  30
ENDBRANCH   1  26
TORSDOF 11
ENDMDL
