MODEL 1
REMARK VINA RESULT: -7.341485997      0.000      0.000
REMARK  6 active torsions:
REMARK  status: ('A' for Active; 'I' for Inactive)
REMARK       I    between atoms: C1_4  and  N3_6 
REMARK       I    between atoms: N3_6  and  C2_8 
REMARK    1  A    between atoms: C2_8  and  C3_10 
REMARK    2  A    between atoms: C5_14  and  S1_15 
REMARK    3  A    between atoms: S1_15  and  C6_16 
REMARK    4  A    between atoms: C6_16  and  C7_17 
REMARK    5  A    between atoms: C8_24  and  N8_25 
REMARK    6  A    between atoms: N9_28  and  N10_29 
ROOT
HETATM    1  C3  UNL     1      13.686  19.592  29.384  1.00  0.00     0.215 A 
HETATM    2  N4  UNL     1      14.377  18.524  28.921  1.00  0.00    -0.318 N 
ATOM      3  H4  UNL     1      15.395  18.536  28.972  1.00  0.00     0.169 HD
HETATM    4  C4  UNL     1      13.763  17.441  28.392  1.00  0.00     0.180 A 
HETATM    5  C5  UNL     1      14.209  16.246  27.859  1.00  0.00     0.130 A 
HETATM    6  N5  UNL     1      13.152  15.515  27.475  1.00  0.00    -0.274 N 
ATOM      7  H5  UNL     1      13.178  14.589  27.048  1.00  0.00     0.185 HD
HETATM    8  N6  UNL     1      12.071  16.224  27.755  1.00  0.00     0.003 NA
HETATM    9  N7  UNL     1      12.421  17.394  28.311  1.00  0.00    -0.050 N 
HETATM   10  C8  UNL     1      11.724  18.447  28.767  1.00  0.00     0.720 A 
HETATM   11  N9  UNL     1      12.346  19.522  29.292  1.00  0.00    -0.069 N 
ENDROOT
BRANCH   1  12
HETATM   12  C2  UNL     1      14.338  20.757  29.952  1.00  0.00     0.294 C 
HETATM   13  N3  UNL     1      15.209  21.581  29.199  1.00  0.00    -0.295 N 
HETATM   14  C1  UNL     1      15.833  22.711  29.774  1.00  0.00     0.188 C 
ATOM     15  H3  UNL     1      15.391  21.355  28.221  1.00  0.00     0.171 HD
HETATM   16  N1  UNL     1      16.614  23.419  29.035  1.00  0.00    -0.373 N 
HETATM   17  N2  UNL     1      15.595  23.043  31.131  1.00  0.00    -0.064 NA
ATOM     18  H12 UNL     1      17.064  24.235  29.450  1.00  0.00     0.158 HD
ATOM     19  H11 UNL     1      16.785  23.180  28.058  1.00  0.00     0.158 HD
HETATM   20  O1  UNL     1      14.123  21.043  31.150  1.00  0.00    -0.264 OA
ENDBRANCH   1  12
BRANCH  11  21
HETATM   21  N10 UNL     1      11.585  20.616  29.764  1.00  0.00    -0.322 N 
ATOM     22 2H10 UNL     1      11.913  21.569  29.608  1.00  0.00     0.178 HD
ATOM     23 1H10 UNL     1      10.714  20.420  30.256  1.00  0.00     0.178 HD
ENDBRANCH  11  21
BRANCH  10  24
HETATM   24  N8  UNL     1      10.450  18.396  28.688  1.00  0.00    -0.231 N 
ATOM     25  H82 UNL     1       9.963  17.505  28.593  1.00  0.00     0.174 HD
ATOM     26  H81 UNL     1       9.936  19.277  28.721  1.00  0.00     0.174 HD
ENDBRANCH  10  24
BRANCH   5  27
HETATM   27  S1  UNL     1      15.928  15.800  27.729  1.00  0.00    -0.097 SA
BRANCH  27  28
HETATM   28  C6  UNL     1      16.089  14.082  28.338  1.00  0.00     0.194 C 
BRANCH  28  29
HETATM   29  C7  UNL     1      17.377  13.515  27.912  1.00  0.00     0.182 C 
HETATM   30  O2  UNL     1      18.326  13.302  28.712  1.00  0.00    -0.647 OA
HETATM   31  O3  UNL     1      17.574  13.196  26.582  1.00  0.00    -0.647 OA
ENDBRANCH  28  29
ENDBRANCH  27  28
ENDBRANCH   5  27
TORSDOF 6
ENDMDL
MODEL 2
REMARK VINA RESULT: -6.588502385      2.964      7.105
REMARK  6 active torsions:
REMARK  status: ('A' for Active; 'I' for Inactive)
REMARK       I    between atoms: C1_4  and  N3_6 
REMARK       I    between atoms: N3_6  and  C2_8 
REMARK    1  A    between atoms: C2_8  and  C3_10 
REMARK    2  A    between atoms: C5_14  and  S1_15 
REMARK    3  A    between atoms: S1_15  and  C6_16 
REMARK    4  A    between atoms: C6_16  and  C7_17 
REMARK    5  A    between atoms: C8_24  and  N8_25 
REMARK    6  A    between atoms: N9_28  and  N10_29 
ROOT
HETATM    1  C3  UNL     1      14.962  15.262  28.874  1.00  0.00     0.215 A 
HETATM    2  N4  UNL     1      15.235  16.589  28.881  1.00  0.00    -0.318 N 
ATOM      3  H4  UNL     1      16.017  16.934  28.324  1.00  0.00     0.169 HD
HETATM    4  C4  UNL     1      14.507  17.472  29.602  1.00  0.00     0.180 A 
HETATM    5  C5  UNL     1      14.563  18.840  29.787  1.00  0.00     0.130 A 
HETATM    6  N5  UNL     1      13.581  19.211  30.622  1.00  0.00    -0.274 N 
ATOM      7  H5  UNL     1      13.378  20.159  30.939  1.00  0.00     0.185 HD
HETATM    8  N6  UNL     1      12.923  18.112  30.955  1.00  0.00     0.003 NA
HETATM    9  N7  UNL     1      13.470  17.049  30.346  1.00  0.00    -0.050 N 
HETATM   10  C8  UNL     1      13.189  15.735  30.348  1.00  0.00     0.720 A 
HETATM   11  N9  UNL     1      13.921  14.863  29.627  1.00  0.00    -0.069 N 
ENDROOT
BRANCH   1  12
HETATM   12  C2  UNL     1      15.739  14.310  28.104  1.00  0.00     0.294 C 
HETATM   13  N3  UNL     1      16.960  13.770  28.575  1.00  0.00    -0.295 N 
HETATM   14  C1  UNL     1      17.700  12.842  27.806  1.00  0.00     0.188 C 
ATOM     15  H3  UNL     1      17.314  14.055  29.487  1.00  0.00     0.171 HD
HETATM   16  N1  UNL     1      18.802  12.389  28.291  1.00  0.00    -0.373 N 
HETATM   17  N2  UNL     1      17.226  12.433  26.535  1.00  0.00    -0.064 NA
ATOM     18  H12 UNL     1      19.336  11.720  27.736  1.00  0.00     0.158 HD
ATOM     19  H11 UNL     1      19.143  12.685  29.206  1.00  0.00     0.158 HD
HETATM   20  O1  UNL     1      15.314  13.953  26.983  1.00  0.00    -0.264 OA
ENDBRANCH   1  12
BRANCH  11  21
HETATM   21  N10 UNL     1      13.601  13.487  29.648  1.00  0.00    -0.322 N 
ATOM     22 2H10 UNL     1      12.674  13.176  29.359  1.00  0.00     0.178 HD
ATOM     23 1H10 UNL     1      14.317  12.830  29.956  1.00  0.00     0.178 HD
ENDBRANCH  11  21
BRANCH  10  24
HETATM   24  N8  UNL     1      12.202  15.339  31.057  1.00  0.00    -0.231 N 
ATOM     25  H82 UNL     1      11.491  14.720  30.670  1.00  0.00     0.174 HD
ATOM     26  H81 UNL     1      12.150  15.664  32.023  1.00  0.00     0.174 HD
ENDBRANCH  10  24
BRANCH   5  27
HETATM   27  S1  UNL     1      15.771  19.896  29.015  1.00  0.00    -0.097 SA
BRANCH  27  28
HETATM   28  C6  UNL     1      15.144  21.612  29.133  1.00  0.00     0.194 C 
BRANCH  28  29
HETATM   29  C7  UNL     1      16.043  22.420  29.971  1.00  0.00     0.182 C 
HETATM   30  O2  UNL     1      17.280  22.509  29.755  1.00  0.00    -0.647 OA
HETATM   31  O3  UNL     1      15.527  23.117  31.047  1.00  0.00    -0.647 OA
ENDBRANCH  28  29
ENDBRANCH  27  28
ENDBRANCH   5  27
TORSDOF 6
ENDMDL
MODEL 3
REMARK VINA RESULT: -6.552091740      3.323      7.229
REMARK  6 active torsions:
REMARK  status: ('A' for Active; 'I' for Inactive)
REMARK       I    between atoms: C1_4  and  N3_6 
REMARK       I    between atoms: N3_6  and  C2_8 
REMARK    1  A    between atoms: C2_8  and  C3_10 
REMARK    2  A    between atoms: C5_14  and  S1_15 
REMARK    3  A    between atoms: S1_15  and  C6_16 
REMARK    4  A    between atoms: C6_16  and  C7_17 
REMARK    5  A    between atoms: C8_24  and  N8_25 
REMARK    6  A    between atoms: N9_28  and  N10_29 
ROOT
HETATM    1  C3  UNL     1      14.010  16.265  28.879  1.00  0.00     0.215 A 
HETATM    2  N4  UNL     1      14.044  17.534  29.349  1.00  0.00    -0.318 N 
ATOM      3  H4  UNL     1      13.457  17.780  30.146  1.00  0.00     0.169 HD
HETATM    4  C4  UNL     1      14.830  18.487  28.798  1.00  0.00     0.180 A 
HETATM    5  C5  UNL     1      15.054  19.824  29.069  1.00  0.00     0.130 A 
HETATM    6  N5  UNL     1      15.953  20.304  28.196  1.00  0.00    -0.274 N 
ATOM      7  H5  UNL     1      16.310  21.259  28.156  1.00  0.00     0.185 HD
HETATM    8  N6  UNL     1      16.287  19.303  27.397  1.00  0.00     0.003 NA
HETATM    9  N7  UNL     1      15.616  18.195  27.747  1.00  0.00    -0.050 N 
HETATM   10  C8  UNL     1      15.592  16.939  27.271  1.00  0.00     0.720 A 
HETATM   11  N9  UNL     1      14.805  15.997  27.827  1.00  0.00    -0.069 N 
ENDROOT
BRANCH   1  12
HETATM   12  C2  UNL     1      13.170  15.238  29.464  1.00  0.00     0.294 C 
HETATM   13  N3  UNL     1      13.315  14.812  30.807  1.00  0.00    -0.295 N 
HETATM   14  C1  UNL     1      12.484  13.809  31.355  1.00  0.00     0.188 C 
ATOM     15  H3  UNL     1      14.035  15.237  31.391  1.00  0.00     0.171 HD
HETATM   16  N1  UNL     1      12.668  13.468  32.582  1.00  0.00    -0.373 N 
HETATM   17  N2  UNL     1      11.478  13.205  30.561  1.00  0.00    -0.064 NA
ATOM     18  H12 UNL     1      12.067  12.744  32.978  1.00  0.00     0.158 HD
ATOM     19  H11 UNL     1      13.392  13.903  33.154  1.00  0.00     0.158 HD
HETATM   20  O1  UNL     1      12.284  14.709  28.757  1.00  0.00    -0.264 OA
ENDBRANCH   1  12
BRANCH  11  21
HETATM   21  N10 UNL     1      14.800  14.683  27.304  1.00  0.00    -0.322 N 
ATOM     22 2H10 UNL     1      15.621  14.328  26.814  1.00  0.00     0.178 HD
ATOM     23 1H10 UNL     1      13.963  14.116  27.433  1.00  0.00     0.178 HD
ENDBRANCH  11  21
BRANCH  10  24
HETATM   24  N8  UNL     1      16.341  16.667  26.272  1.00  0.00    -0.231 N 
ATOM     25  H82 UNL     1      16.715  17.407  25.678  1.00  0.00     0.174 HD
ATOM     26  H81 UNL     1      16.552  15.686  26.089  1.00  0.00     0.174 HD
ENDBRANCH  10  24
BRANCH   5  27
HETATM   27  S1  UNL     1      14.251  20.717  30.383  1.00  0.00    -0.097 SA
BRANCH  27  28
HETATM   28  C6  UNL     1      14.243  22.485  29.909  1.00  0.00     0.194 C 
BRANCH  28  29
HETATM   29  C7  UNL     1      15.462  23.144  30.402  1.00  0.00     0.182 C 
HETATM   30  O2  UNL     1      15.441  24.051  31.275  1.00  0.00    -0.647 OA
HETATM   31  O3  UNL     1      16.691  22.766  29.896  1.00  0.00    -0.647 OA
ENDBRANCH  28  29
ENDBRANCH  27  28
ENDBRANCH   5  27
TORSDOF 6
ENDMDL
MODEL 4
REMARK VINA RESULT: -6.436807725      3.618      7.146
REMARK  6 active torsions:
REMARK  status: ('A' for Active; 'I' for Inactive)
REMARK       I    between atoms: C1_4  and  N3_6 
REMARK       I    between atoms: N3_6  and  C2_8 
REMARK    1  A    between atoms: C2_8  and  C3_10 
REMARK    2  A    between atoms: C5_14  and  S1_15 
REMARK    3  A    between atoms: S1_15  and  C6_16 
REMARK    4  A    between atoms: C6_16  and  C7_17 
REMARK    5  A    between atoms: C8_24  and  N8_25 
REMARK    6  A    between atoms: N9_28  and  N10_29 
ROOT
HETATM    1  C3  UNL     1      14.227  16.456  30.020  1.00  0.00     0.215 A 
HETATM    2  N4  UNL     1      14.095  17.801  30.098  1.00  0.00    -0.318 N 
ATOM      3  H4  UNL     1      13.439  18.193  30.774  1.00  0.00     0.169 HD
HETATM    4  C4  UNL     1      14.803  18.643  29.312  1.00  0.00     0.180 A 
HETATM    5  C5  UNL     1      14.865  20.018  29.185  1.00  0.00     0.130 A 
HETATM    6  N5  UNL     1      15.755  20.331  28.231  1.00  0.00    -0.274 N 
ATOM      7  H5  UNL     1      16.008  21.270  27.922  1.00  0.00     0.185 HD
HETATM    8  N6  UNL     1      16.242  19.191  27.769  1.00  0.00     0.003 NA
HETATM    9  N7  UNL     1      15.677  18.158  28.412  1.00  0.00    -0.050 N 
HETATM   10  C8  UNL     1      15.818  16.825  28.324  1.00  0.00     0.720 A 
HETATM   11  N9  UNL     1      15.106  15.994  29.112  1.00  0.00    -0.069 N 
ENDROOT
BRANCH   1  12
HETATM   12  C2  UNL     1      13.471  15.547  30.860  1.00  0.00     0.294 C 
HETATM   13  N3  UNL     1      13.727  15.403  32.245  1.00  0.00    -0.295 N 
HETATM   14  C1  UNL     1      12.975  14.511  33.044  1.00  0.00     0.188 C 
ATOM     15  H3  UNL     1      14.468  15.954  32.676  1.00  0.00     0.171 HD
HETATM   16  N1  UNL     1      13.258  14.427  34.296  1.00  0.00    -0.373 N 
HETATM   17  N2  UNL     1      11.941  13.735  32.464  1.00  0.00    -0.064 NA
ATOM     18  H12 UNL     1      12.716  13.782  34.872  1.00  0.00     0.158 HD
ATOM     19  H11 UNL     1      14.003  14.985  34.713  1.00  0.00     0.158 HD
HETATM   20  O1  UNL     1      12.559  14.866  30.341  1.00  0.00    -0.264 OA
ENDBRANCH   1  12
BRANCH  11  21
HETATM   21  N10 UNL     1      15.276  14.596  28.997  1.00  0.00    -0.322 N 
ATOM     22 2H10 UNL     1      14.642  13.964  29.486  1.00  0.00     0.178 HD
ATOM     23 1H10 UNL     1      16.040  14.249  28.418  1.00  0.00     0.178 HD
ENDBRANCH  11  21
BRANCH  10  24
HETATM   24  N8  UNL     1      16.649  16.370  27.467  1.00  0.00    -0.231 N 
ATOM     25  H82 UNL     1      16.631  16.684  26.497  1.00  0.00     0.174 HD
ATOM     26  H81 UNL     1      17.331  15.681  27.786  1.00  0.00     0.174 HD
ENDBRANCH  10  24
BRANCH   5  27
HETATM   27  S1  UNL     1      13.893  21.148  30.159  1.00  0.00    -0.097 SA
BRANCH  27  28
HETATM   28  C6  UNL     1      14.300  22.840  29.593  1.00  0.00     0.194 C 
BRANCH  28  29
HETATM   29  C7  UNL     1      15.517  23.317  30.268  1.00  0.00     0.182 C 
HETATM   30  O2  UNL     1      15.488  24.092  31.259  1.00  0.00    -0.647 OA
HETATM   31  O3  UNL     1      16.755  22.908  29.808  1.00  0.00    -0.647 OA
ENDBRANCH  28  29
ENDBRANCH  27  28
ENDBRANCH   5  27
TORSDOF 6
ENDMDL
MODEL 5
REMARK VINA RESULT: -6.435559829      2.086      2.368
REMARK  6 active torsions:
REMARK  status: ('A' for Active; 'I' for Inactive)
REMARK       I    between atoms: C1_4  and  N3_6 
REMARK       I    between atoms: N3_6  and  C2_8 
REMARK    1  A    between atoms: C2_8  and  C3_10 
REMARK    2  A    between atoms: C5_14  and  S1_15 
REMARK    3  A    between atoms: S1_15  and  C6_16 
REMARK    4  A    between atoms: C6_16  and  C7_17 
REMARK    5  A    between atoms: C8_24  and  N8_25 
REMARK    6  A    between atoms: N9_28  and  N10_29 
ROOT
HETATM    1  C3  UNL     1      13.203  19.951  29.539  1.00  0.00     0.215 A 
HETATM    2  N4  UNL     1      13.766  18.820  29.052  1.00  0.00    -0.318 N 
ATOM      3  H4  UNL     1      14.782  18.731  29.065  1.00  0.00     0.169 HD
HETATM    4  C4  UNL     1      13.028  17.806  28.547  1.00  0.00     0.180 A 
HETATM    5  C5  UNL     1      13.332  16.574  27.999  1.00  0.00     0.130 A 
HETATM    6  N5  UNL     1      12.194  15.953  27.655  1.00  0.00    -0.274 N 
ATOM      7  H5  UNL     1      12.111  15.030  27.228  1.00  0.00     0.185 HD
HETATM    8  N6  UNL     1      11.200  16.765  27.974  1.00  0.00     0.003 NA
HETATM    9  N7  UNL     1      11.686  17.893  28.516  1.00  0.00    -0.050 N 
HETATM   10  C8  UNL     1      11.115  19.009  28.997  1.00  0.00     0.720 A 
HETATM   11  N9  UNL     1      11.860  20.015  29.497  1.00  0.00    -0.069 N 
ENDROOT
BRANCH   1  12
HETATM   12  C2  UNL     1      13.989  21.043  30.081  1.00  0.00     0.294 C 
HETATM   13  N3  UNL     1      14.979  21.715  29.323  1.00  0.00    -0.295 N 
HETATM   14  C1  UNL     1      15.732  22.777  29.873  1.00  0.00     0.188 C 
ATOM     15  H3  UNL     1      15.152  21.427  28.360  1.00  0.00     0.171 HD
HETATM   16  N1  UNL     1      16.616  23.346  29.131  1.00  0.00    -0.373 N 
HETATM   17  N2  UNL     1      15.507  23.193  31.209  1.00  0.00    -0.064 NA
ATOM     18  H12 UNL     1      17.160  24.112  29.528  1.00  0.00     0.158 HD
ATOM     19  H11 UNL     1      16.778  23.046  28.169  1.00  0.00     0.158 HD
HETATM   20  O1  UNL     1      13.785  21.405  31.261  1.00  0.00    -0.264 OA
ENDBRANCH   1  12
BRANCH  11  21
HETATM   21  N10 UNL     1      11.230  21.179  29.996  1.00  0.00    -0.322 N 
ATOM     22 2H10 UNL     1      10.498  21.098  30.700  1.00  0.00     0.178 HD
ATOM     23 1H10 UNL     1      11.531  22.083  29.632  1.00  0.00     0.178 HD
ENDBRANCH  11  21
BRANCH  10  24
HETATM   24  N8  UNL     1       9.840  19.087  28.965  1.00  0.00    -0.231 N 
ATOM     25  H82 UNL     1       9.266  18.258  28.810  1.00  0.00     0.174 HD
ATOM     26  H81 UNL     1       9.415  20.005  29.098  1.00  0.00     0.174 HD
ENDBRANCH  10  24
BRANCH   5  27
HETATM   27  S1  UNL     1      14.992  15.958  27.806  1.00  0.00    -0.097 SA
BRANCH  27  28
HETATM   28  C6  UNL     1      15.914  17.191  26.816  1.00  0.00     0.194 C 
BRANCH  28  29
HETATM   29  C7  UNL     1      16.253  18.355  27.650  1.00  0.00     0.182 C 
HETATM   30  O2  UNL     1      16.250  19.533  27.209  1.00  0.00    -0.647 OA
HETATM   31  O3  UNL     1      16.591  18.166  28.977  1.00  0.00    -0.647 OA
ENDBRANCH  28  29
ENDBRANCH  27  28
ENDBRANCH   5  27
TORSDOF 6
ENDMDL
