MODEL 1
REMARK VINA RESULT: -7.399590730      0.000      0.000
REMARK  8 active torsions:
REMARK  status: ('A' for Active; 'I' for Inactive)
REMARK    1  A    between atoms: O1_2  and  N1_3 
REMARK       I    between atoms: N1_3  and  C2_5 
REMARK    2  A    between atoms: C2_5  and  C3_7 
REMARK    3  A    between atoms: C3_7  and  N2_8 
REMARK    4  A    between atoms: C4_11  and  N4_12 
REMARK       I    between atoms: N5_14  and  C5_16 
REMARK    5  A    between atoms: C5_16  and  C6_18 
REMARK    6  A    between atoms: C8_23  and  N8_24 
REMARK    7  A    between atoms: C9_29  and  N10_30 
REMARK    8  A    between atoms: N11_33  and  N12_34 
ROOT
HETATM    1  N4  UNL     1      18.506  33.813  19.981  1.00  0.00    -0.126 N 
ATOM      2  H4  UNL     1      18.686  33.486  19.032  1.00  0.00     0.206 HD
HETATM    3  N5  UNL     1      19.458  34.281  20.650  1.00  0.00    -0.251 N 
ATOM      4  H5  UNL     1      19.279  34.608  21.600  1.00  0.00     0.191 HD
HETATM    5  C5  UNL     1      20.767  34.372  20.135  1.00  0.00     0.277 C 
HETATM    6  O3  UNL     1      21.307  33.352  19.606  1.00  0.00    -0.266 OA
ENDROOT
BRANCH   1   7
HETATM    7  C4  UNL     1      17.170  33.719  20.504  1.00  0.00     0.737 A 
HETATM    8  N3  UNL     1      16.603  34.499  21.455  1.00  0.00    -0.122 N 
HETATM    9  N2  UNL     1      15.362  34.100  21.663  1.00  0.00    -0.217 N 
ATOM     10  H3  UNL     1      17.063  35.272  21.935  1.00  0.00     0.206 HD
HETATM   11  C10 UNL     1      15.174  33.056  20.818  1.00  0.00     0.377 A 
HETATM   12  N11 UNL     1      16.271  32.802  20.094  1.00  0.00    -0.034 N 
HETATM   13  O4  UNL     1      14.069  32.447  20.778  1.00  0.00    -0.242 OA
BRANCH   9  14
HETATM   14  C3  UNL     1      14.414  34.655  22.589  1.00  0.00     0.259 C 
BRANCH  14  15
HETATM   15  C2  UNL     1      14.967  34.851  23.946  1.00  0.00     0.261 C 
HETATM   16  N1  UNL     1      14.211  35.615  24.876  1.00  0.00    -0.234 N 
ATOM     17  H1  UNL     1      13.316  36.006  24.580  1.00  0.00     0.197 HD
HETATM   18  O2  UNL     1      16.057  34.380  24.315  1.00  0.00    -0.269 OA
BRANCH  16  19
HETATM   19  O1  UNL     1      14.639  35.843  26.142  1.00  0.00    -0.283 OA
HETATM   20  C1  UNL     1      14.091  34.912  27.029  1.00  0.00     0.237 C 
ENDBRANCH  16  19
ENDBRANCH  14  15
ENDBRANCH   9  14
BRANCH  12  21
HETATM   21  N12 UNL     1      16.429  31.803  19.131  1.00  0.00    -0.320 N 
ATOM     22 2H12 UNL     1      16.892  31.891  18.227  1.00  0.00     0.178 HD
ATOM     23 1H12 UNL     1      16.114  30.833  19.167  1.00  0.00     0.178 HD
ENDBRANCH  12  21
ENDBRANCH   1   7
BRANCH   5  24
HETATM   24  C6  UNL     1      21.500  35.640  20.212  1.00  0.00     0.119 A 
HETATM   25  C7  UNL     1      21.092  36.775  19.559  1.00  0.00     0.151 A 
HETATM   26  N6  UNL     1      19.913  36.759  18.777  1.00  0.00    -0.081 NA
HETATM   27  N7  UNL     1      21.784  37.926  19.640  1.00  0.00    -0.178 N 
HETATM   28  C8  UNL     1      22.911  37.943  20.392  1.00  0.00     0.678 A 
ATOM     29  H7  UNL     1      21.469  38.763  19.149  1.00  0.00     0.185 HD
HETATM   30  N9  UNL     1      23.333  36.847  21.041  1.00  0.00    -0.176 N 
HETATM   31  C9  UNL     1      22.648  35.698  20.965  1.00  0.00     0.134 A 
ATOM     32  H9  UNL     1      24.185  36.889  21.599  1.00  0.00     0.186 HD
BRANCH  28  33
HETATM   33  N8  UNL     1      23.576  39.035  20.474  1.00  0.00    -0.234 N 
ATOM     34  H82 UNL     1      23.669  39.641  19.658  1.00  0.00     0.174 HD
ATOM     35  H81 UNL     1      24.003  39.279  21.367  1.00  0.00     0.174 HD
ENDBRANCH  28  33
BRANCH  31  36
HETATM   36  N10 UNL     1      23.076  34.653  21.600  1.00  0.00    -0.384 N 
ATOM     37 2H10 UNL     1      22.423  34.091  22.146  1.00  0.00     0.157 HD
ATOM     38 1H10 UNL     1      24.060  34.386  21.560  1.00  0.00     0.157 HD
ENDBRANCH  31  36
ENDBRANCH   5  24
TORSDOF 8
ENDMDL
MODEL 2
REMARK VINA RESULT: -6.783511601      3.760      4.980
REMARK  8 active torsions:
REMARK  status: ('A' for Active; 'I' for Inactive)
REMARK    1  A    between atoms: O1_2  and  N1_3 
REMARK       I    between atoms: N1_3  and  C2_5 
REMARK    2  A    between atoms: C2_5  and  C3_7 
REMARK    3  A    between atoms: C3_7  and  N2_8 
REMARK    4  A    between atoms: C4_11  and  N4_12 
REMARK       I    between atoms: N5_14  and  C5_16 
REMARK    5  A    between atoms: C5_16  and  C6_18 
REMARK    6  A    between atoms: C8_23  and  N8_24 
REMARK    7  A    between atoms: C9_29  and  N10_30 
REMARK    8  A    between atoms: N11_33  and  N12_34 
ROOT
HETATM    1  N4  UNL     1      19.349  31.428  21.219  1.00  0.00    -0.126 N 
ATOM      2  H4  UNL     1      19.666  30.965  22.071  1.00  0.00     0.206 HD
HETATM    3  N5  UNL     1      20.159  31.572  20.272  1.00  0.00    -0.251 N 
ATOM      4  H5  UNL     1      19.843  32.035  19.419  1.00  0.00     0.191 HD
HETATM    5  C5  UNL     1      21.491  31.117  20.345  1.00  0.00     0.277 C 
HETATM    6  O3  UNL     1      22.209  31.431  21.343  1.00  0.00    -0.266 OA
ENDROOT
BRANCH   1   7
HETATM    7  C4  UNL     1      17.990  31.891  21.147  1.00  0.00     0.737 A 
HETATM    8  N3  UNL     1      17.477  33.020  21.691  1.00  0.00    -0.122 N 
HETATM    9  N2  UNL     1      16.190  33.096  21.406  1.00  0.00    -0.217 N 
ATOM     10  H3  UNL     1      18.002  33.704  22.236  1.00  0.00     0.206 HD
HETATM   11  C10 UNL     1      15.920  31.988  20.672  1.00  0.00     0.377 A 
HETATM   12  N11 UNL     1      17.010  31.231  20.498  1.00  0.00    -0.034 N 
HETATM   13  O4  UNL     1      14.754  31.767  20.240  1.00  0.00    -0.242 OA
BRANCH   9  14
HETATM   14  C3  UNL     1      15.273  34.132  21.792  1.00  0.00     0.259 C 
BRANCH  14  15
HETATM   15  C2  UNL     1      15.377  34.503  23.220  1.00  0.00     0.261 C 
HETATM   16  N1  UNL     1      14.326  35.269  23.794  1.00  0.00    -0.234 N 
ATOM     17  H1  UNL     1      13.538  35.541  23.206  1.00  0.00     0.197 HD
HETATM   18  O2  UNL     1      16.335  34.178  23.943  1.00  0.00    -0.269 OA
BRANCH  16  19
HETATM   19  O1  UNL     1      14.336  35.651  25.094  1.00  0.00    -0.283 OA
HETATM   20  C1  UNL     1      13.392  34.931  25.833  1.00  0.00     0.237 C 
ENDBRANCH  16  19
ENDBRANCH  14  15
ENDBRANCH   9  14
BRANCH  12  21
HETATM   21  N12 UNL     1      17.093  30.026  19.797  1.00  0.00    -0.320 N 
ATOM     22 2H12 UNL     1      17.827  29.322  19.873  1.00  0.00     0.178 HD
ATOM     23 1H12 UNL     1      16.448  29.652  19.101  1.00  0.00     0.178 HD
ENDBRANCH  12  21
ENDBRANCH   1   7
BRANCH   5  24
HETATM   24  C6  UNL     1      22.042  30.284  19.270  1.00  0.00     0.119 A 
HETATM   25  C7  UNL     1      21.412  29.158  18.806  1.00  0.00     0.151 A 
HETATM   26  N6  UNL     1      20.172  28.759  19.357  1.00  0.00    -0.081 NA
HETATM   27  N7  UNL     1      21.940  28.406  17.822  1.00  0.00    -0.178 N 
HETATM   28  C8  UNL     1      23.126  28.790  17.291  1.00  0.00     0.678 A 
ATOM     29  H7  UNL     1      21.460  27.570  17.486  1.00  0.00     0.185 HD
HETATM   30  N9  UNL     1      23.763  29.886  17.727  1.00  0.00    -0.176 N 
HETATM   31  C9  UNL     1      23.243  30.639  18.705  1.00  0.00     0.134 A 
ATOM     32  H9  UNL     1      24.654  30.150  17.308  1.00  0.00     0.186 HD
BRANCH  28  33
HETATM   33  N8  UNL     1      23.634  28.078  16.354  1.00  0.00    -0.234 N 
ATOM     34  H82 UNL     1      23.056  27.772  15.571  1.00  0.00     0.174 HD
ATOM     35  H81 UNL     1      24.622  27.831  16.413  1.00  0.00     0.174 HD
ENDBRANCH  28  33
BRANCH  31  36
HETATM   36  N10 UNL     1      23.878  31.694  19.110  1.00  0.00    -0.384 N 
ATOM     37 2H10 UNL     1      23.358  32.471  19.517  1.00  0.00     0.157 HD
ATOM     38 1H10 UNL     1      24.892  31.756  19.024  1.00  0.00     0.157 HD
ENDBRANCH  31  36
ENDBRANCH   5  24
TORSDOF 8
ENDMDL
MODEL 3
REMARK VINA RESULT: -6.752087328      0.212      1.607
REMARK  8 active torsions:
REMARK  status: ('A' for Active; 'I' for Inactive)
REMARK    1  A    between atoms: O1_2  and  N1_3 
REMARK       I    between atoms: N1_3  and  C2_5 
REMARK    2  A    between atoms: C2_5  and  C3_7 
REMARK    3  A    between atoms: C3_7  and  N2_8 
REMARK    4  A    between atoms: C4_11  and  N4_12 
REMARK       I    between atoms: N5_14  and  C5_16 
REMARK    5  A    between atoms: C5_16  and  C6_18 
REMARK    6  A    between atoms: C8_23  and  N8_24 
REMARK    7  A    between atoms: C9_29  and  N10_30 
REMARK    8  A    between atoms: N11_33  and  N12_34 
ROOT
HETATM    1  N4  UNL     1      18.393  33.723  20.027  1.00  0.00    -0.126 N 
ATOM      2  H4  UNL     1      18.575  33.382  19.083  1.00  0.00     0.206 HD
HETATM    3  N5  UNL     1      19.344  34.202  20.690  1.00  0.00    -0.251 N 
ATOM      4  H5  UNL     1      19.164  34.543  21.634  1.00  0.00     0.191 HD
HETATM    5  C5  UNL     1      20.653  34.285  20.175  1.00  0.00     0.277 C 
HETATM    6  O3  UNL     1      21.195  33.258  19.662  1.00  0.00    -0.266 OA
ENDROOT
BRANCH   1   7
HETATM    7  C4  UNL     1      17.057  33.636  20.549  1.00  0.00     0.737 A 
HETATM    8  N3  UNL     1      16.502  34.402  21.517  1.00  0.00    -0.122 N 
HETATM    9  N2  UNL     1      15.255  34.016  21.718  1.00  0.00    -0.217 N 
ATOM     10  H3  UNL     1      16.973  35.158  22.015  1.00  0.00     0.206 HD
HETATM   11  C10 UNL     1      15.052  32.994  20.850  1.00  0.00     0.377 A 
HETATM   12  N11 UNL     1      16.144  32.742  20.119  1.00  0.00    -0.034 N 
HETATM   13  O4  UNL     1      13.938  32.403  20.798  1.00  0.00    -0.242 OA
BRANCH   9  14
HETATM   14  C3  UNL     1      14.316  34.563  22.658  1.00  0.00     0.259 C 
BRANCH  14  15
HETATM   15  C2  UNL     1      14.906  34.832  23.986  1.00  0.00     0.261 C 
HETATM   16  N1  UNL     1      14.148  35.594  24.917  1.00  0.00    -0.234 N 
ATOM     17  H1  UNL     1      13.227  35.933  24.641  1.00  0.00     0.197 HD
HETATM   18  O2  UNL     1      16.030  34.425  24.331  1.00  0.00    -0.269 OA
BRANCH  16  19
HETATM   19  O1  UNL     1      14.609  35.886  26.158  1.00  0.00    -0.283 OA
HETATM   20  C1  UNL     1      14.152  34.952  27.092  1.00  0.00     0.237 C 
ENDBRANCH  16  19
ENDBRANCH  14  15
ENDBRANCH   9  14
BRANCH  12  21
HETATM   21  N12 UNL     1      16.287  31.762  19.134  1.00  0.00    -0.320 N 
ATOM     22 2H12 UNL     1      15.731  31.661  18.285  1.00  0.00     0.178 HD
ATOM     23 1H12 UNL     1      16.959  30.995  19.095  1.00  0.00     0.178 HD
ENDBRANCH  12  21
ENDBRANCH   1   7
BRANCH   5  24
HETATM   24  C6  UNL     1      21.385  35.556  20.234  1.00  0.00     0.119 A 
HETATM   25  C7  UNL     1      22.427  35.774  21.098  1.00  0.00     0.151 A 
HETATM   26  N6  UNL     1      22.846  34.749  21.978  1.00  0.00    -0.081 NA
HETATM   27  N7  UNL     1      23.080  36.949  21.137  1.00  0.00    -0.178 N 
HETATM   28  C8  UNL     1      22.682  37.931  20.292  1.00  0.00     0.678 A 
ATOM     29  H7  UNL     1      23.853  37.098  21.786  1.00  0.00     0.185 HD
HETATM   30  N9  UNL     1      21.666  37.744  19.436  1.00  0.00    -0.176 N 
HETATM   31  C9  UNL     1      21.012  36.576  19.392  1.00  0.00     0.134 A 
ATOM     32  H9  UNL     1      21.388  38.501  18.812  1.00  0.00     0.186 HD
BRANCH  28  33
HETATM   33  N8  UNL     1      23.299  39.053  20.324  1.00  0.00    -0.234 N 
ATOM     34  H82 UNL     1      23.502  39.502  21.217  1.00  0.00     0.174 HD
ATOM     35  H81 UNL     1      23.580  39.479  19.441  1.00  0.00     0.174 HD
ENDBRANCH  28  33
BRANCH  31  36
HETATM   36  N10 UNL     1      20.033  36.420  18.557  1.00  0.00    -0.384 N 
ATOM     37 2H10 UNL     1      20.225  36.381  17.556  1.00  0.00     0.157 HD
ATOM     38 1H10 UNL     1      19.073  36.337  18.890  1.00  0.00     0.157 HD
ENDBRANCH  31  36
ENDBRANCH   5  24
TORSDOF 8
ENDMDL
MODEL 4
REMARK VINA RESULT: -6.639685441      2.519      7.933
REMARK  8 active torsions:
REMARK  status: ('A' for Active; 'I' for Inactive)
REMARK    1  A    between atoms: O1_2  and  N1_3 
REMARK       I    between atoms: N1_3  and  C2_5 
REMARK    2  A    between atoms: C2_5  and  C3_7 
REMARK    3  A    between atoms: C3_7  and  N2_8 
REMARK    4  A    between atoms: C4_11  and  N4_12 
REMARK       I    between atoms: N5_14  and  C5_16 
REMARK    5  A    between atoms: C5_16  and  C6_18 
REMARK    6  A    between atoms: C8_23  and  N8_24 
REMARK    7  A    between atoms: C9_29  and  N10_30 
REMARK    8  A    between atoms: N11_33  and  N12_34 
ROOT
HETATM    1  N4  UNL     1      19.491  33.853  21.697  1.00  0.00    -0.126 N 
ATOM      2  H4  UNL     1      19.534  32.853  21.895  1.00  0.00     0.206 HD
HETATM    3  N5  UNL     1      18.371  34.416  21.667  1.00  0.00    -0.251 N 
ATOM      4  H5  UNL     1      18.328  35.417  21.469  1.00  0.00     0.191 HD
HETATM    5  C5  UNL     1      17.170  33.716  21.899  1.00  0.00     0.277 C 
HETATM    6  O3  UNL     1      16.932  32.646  21.258  1.00  0.00    -0.266 OA
ENDROOT
BRANCH   1   7
HETATM    7  C4  UNL     1      20.718  34.565  21.462  1.00  0.00     0.737 A 
HETATM    8  N3  UNL     1      20.889  35.906  21.390  1.00  0.00    -0.122 N 
HETATM    9  N2  UNL     1      22.162  36.171  21.161  1.00  0.00    -0.217 N 
ATOM     10  H3  UNL     1      20.151  36.601  21.496  1.00  0.00     0.206 HD
HETATM   11  C10 UNL     1      22.774  34.963  21.093  1.00  0.00     0.377 A 
HETATM   12  N11 UNL     1      21.908  33.959  21.275  1.00  0.00    -0.034 N 
HETATM   13  O4  UNL     1      24.015  34.879  20.880  1.00  0.00    -0.242 OA
BRANCH   9  14
HETATM   14  C3  UNL     1      22.767  37.466  21.013  1.00  0.00     0.259 C 
BRANCH  14  15
HETATM   15  C2  UNL     1      21.999  38.375  20.136  1.00  0.00     0.261 C 
HETATM   16  N1  UNL     1      22.084  39.774  20.377  1.00  0.00    -0.234 N 
ATOM     17  H1  UNL     1      22.667  40.106  21.145  1.00  0.00     0.197 HD
HETATM   18  O2  UNL     1      21.284  37.980  19.199  1.00  0.00    -0.269 OA
BRANCH  16  19
HETATM   19  O1  UNL     1      21.417  40.680  19.622  1.00  0.00    -0.283 OA
HETATM   20  C1  UNL     1      21.691  41.983  20.048  1.00  0.00     0.237 C 
ENDBRANCH  16  19
ENDBRANCH  14  15
ENDBRANCH   9  14
BRANCH  12  21
HETATM   21  N12 UNL     1      22.194  32.592  21.270  1.00  0.00    -0.320 N 
ATOM     22 2H12 UNL     1      21.820  31.885  21.904  1.00  0.00     0.178 HD
ATOM     23 1H12 UNL     1      22.813  32.077  20.644  1.00  0.00     0.178 HD
ENDBRANCH  12  21
ENDBRANCH   1   7
BRANCH   5  24
HETATM   24  C6  UNL     1      16.201  34.224  22.876  1.00  0.00     0.119 A 
HETATM   25  C7  UNL     1      16.540  34.537  24.167  1.00  0.00     0.151 A 
HETATM   26  N6  UNL     1      17.876  34.383  24.606  1.00  0.00    -0.081 NA
HETATM   27  N7  UNL     1      15.632  34.996  25.047  1.00  0.00    -0.178 N 
HETATM   28  C8  UNL     1      14.353  35.146  24.625  1.00  0.00     0.678 A 
ATOM     29  H7  UNL     1      15.899  35.224  26.005  1.00  0.00     0.185 HD
HETATM   30  N9  UNL     1      13.994  34.848  23.368  1.00  0.00    -0.176 N 
HETATM   31  C9  UNL     1      14.893  34.391  22.487  1.00  0.00     0.134 A 
ATOM     32  H9  UNL     1      13.023  34.971  23.080  1.00  0.00     0.186 HD
BRANCH  28  33
HETATM   33  N8  UNL     1      13.483  35.584  25.458  1.00  0.00    -0.234 N 
ATOM     34  H82 UNL     1      13.558  36.531  25.829  1.00  0.00     0.174 HD
ATOM     35  H81 UNL     1      12.721  34.964  25.736  1.00  0.00     0.174 HD
ENDBRANCH  28  33
BRANCH  31  36
HETATM   36  N10 UNL     1      14.521  34.109  21.278  1.00  0.00    -0.384 N 
ATOM     37 2H10 UNL     1      14.854  34.680  20.501  1.00  0.00     0.157 HD
ATOM     38 1H10 UNL     1      13.898  33.323  21.095  1.00  0.00     0.157 HD
ENDBRANCH  31  36
ENDBRANCH   5  24
TORSDOF 8
ENDMDL
MODEL 5
REMARK VINA RESULT: -6.617344251      1.366      1.613
REMARK  8 active torsions:
REMARK  status: ('A' for Active; 'I' for Inactive)
REMARK    1  A    between atoms: O1_2  and  N1_3 
REMARK       I    between atoms: N1_3  and  C2_5 
REMARK    2  A    between atoms: C2_5  and  C3_7 
REMARK    3  A    between atoms: C3_7  and  N2_8 
REMARK    4  A    between atoms: C4_11  and  N4_12 
REMARK       I    between atoms: N5_14  and  C5_16 
REMARK    5  A    between atoms: C5_16  and  C6_18 
REMARK    6  A    between atoms: C8_23  and  N8_24 
REMARK    7  A    between atoms: C9_29  and  N10_30 
REMARK    8  A    between atoms: N11_33  and  N12_34 
ROOT
HETATM    1  N4  UNL     1      18.552  32.688  20.125  1.00  0.00    -0.126 N 
ATOM      2  H4  UNL     1      18.745  32.430  19.157  1.00  0.00     0.206 HD
HETATM    3  N5  UNL     1      19.516  32.845  20.912  1.00  0.00    -0.251 N 
ATOM      4  H5  UNL     1      19.324  33.103  21.881  1.00  0.00     0.191 HD
HETATM    5  C5  UNL     1      20.855  32.677  20.506  1.00  0.00     0.277 C 
HETATM    6  O3  UNL     1      21.198  31.620  19.893  1.00  0.00    -0.266 OA
ENDROOT
BRANCH   1   7
HETATM    7  C4  UNL     1      17.185  32.859  20.536  1.00  0.00     0.737 A 
HETATM    8  N3  UNL     1      16.673  33.860  21.289  1.00  0.00    -0.122 N 
HETATM    9  N2  UNL     1      15.377  33.665  21.451  1.00  0.00    -0.217 N 
ATOM     10  H3  UNL     1      17.205  34.642  21.671  1.00  0.00     0.206 HD
HETATM   11  C10 UNL     1      15.100  32.520  20.780  1.00  0.00     0.377 A 
HETATM   12  N11 UNL     1      16.195  32.005  20.208  1.00  0.00    -0.034 N 
HETATM   13  O4  UNL     1      13.925  32.059  20.745  1.00  0.00    -0.242 OA
BRANCH   9  14
HETATM   14  C3  UNL     1      14.458  34.491  22.184  1.00  0.00     0.259 C 
BRANCH  14  15
HETATM   15  C2  UNL     1      14.903  34.780  23.564  1.00  0.00     0.261 C 
HETATM   16  N1  UNL     1      14.031  35.517  24.411  1.00  0.00    -0.234 N 
ATOM     17  H1  UNL     1      13.131  35.825  24.044  1.00  0.00     0.197 HD
HETATM   18  O2  UNL     1      15.999  34.411  24.021  1.00  0.00    -0.269 OA
BRANCH  16  19
HETATM   19  O1  UNL     1      14.355  35.824  25.691  1.00  0.00    -0.283 OA
HETATM   20  C1  UNL     1      13.741  34.942  26.587  1.00  0.00     0.237 C 
ENDBRANCH  16  19
ENDBRANCH  14  15
ENDBRANCH   9  14
BRANCH  12  21
HETATM   21  N12 UNL     1      16.274  30.838  19.444  1.00  0.00    -0.320 N 
ATOM     22 2H12 UNL     1      17.032  30.156  19.443  1.00  0.00     0.178 HD
ATOM     23 1H12 UNL     1      15.600  30.476  18.769  1.00  0.00     0.178 HD
ENDBRANCH  12  21
ENDBRANCH   1   7
BRANCH   5  24
HETATM   24  C6  UNL     1      21.845  33.720  20.793  1.00  0.00     0.119 A 
HETATM   25  C7  UNL     1      21.953  34.867  20.049  1.00  0.00     0.151 A 
HETATM   26  N6  UNL     1      21.082  35.089  18.957  1.00  0.00    -0.081 NA
HETATM   27  N7  UNL     1      22.874  35.808  20.327  1.00  0.00    -0.178 N 
HETATM   28  C8  UNL     1      23.707  35.597  21.376  1.00  0.00     0.678 A 
ATOM     29  H7  UNL     1      22.943  36.656  19.765  1.00  0.00     0.185 HD
HETATM   30  N9  UNL     1      23.622  34.484  22.120  1.00  0.00    -0.176 N 
HETATM   31  C9  UNL     1      22.708  33.544  21.848  1.00  0.00     0.134 A 
ATOM     32  H9  UNL     1      24.263  34.353  22.902  1.00  0.00     0.186 HD
BRANCH  28  33
HETATM   33  N8  UNL     1      24.586  36.489  21.647  1.00  0.00    -0.234 N 
ATOM     34  H82 UNL     1      25.435  36.560  21.086  1.00  0.00     0.174 HD
ATOM     35  H81 UNL     1      24.414  37.119  22.431  1.00  0.00     0.174 HD
ENDBRANCH  28  33
BRANCH  31  36
HETATM   36  N10 UNL     1      22.647  32.477  22.581  1.00  0.00    -0.384 N 
ATOM     37 2H10 UNL     1      22.080  31.686  22.276  1.00  0.00     0.157 HD
ATOM     38 1H10 UNL     1      23.159  32.420  23.461  1.00  0.00     0.157 HD
ENDBRANCH  31  36
ENDBRANCH   5  24
TORSDOF 8
ENDMDL
