MODEL 1
REMARK VINA RESULT: -7.607666576      0.000      0.000
REMARK  5 active torsions:
REMARK  status: ('A' for Active; 'I' for Inactive)
REMARK    1  A    between atoms: C3_5  and  C4_6 
REMARK       I    between atoms: C4_6  and  N2_8 
REMARK    2  A    between atoms: N2_8  and  N3_10 
REMARK    3  A    between atoms: C6_15  and  C7_16 
REMARK    4  A    between atoms: C8_21  and  C9_22 
REMARK    5  A    between atoms: C10_27  and  N8_28 
ROOT
HETATM    1  N3  UNL     1      16.642  34.948  24.609  1.00  0.00    -0.129 N 
ATOM      2  H3  UNL     1      17.288  35.588  25.072  1.00  0.00     0.205 HD
HETATM    3  C5  UNL     1      16.724  34.753  23.326  1.00  0.00     0.702 A 
HETATM    4  N4  UNL     1      17.674  35.407  22.620  1.00  0.00    -0.164 N 
ATOM      5  H4  UNL     1      18.316  36.046  23.089  1.00  0.00     0.186 HD
HETATM    6  C6  UNL     1      17.765  35.208  21.278  1.00  0.00     0.219 A 
HETATM    7  O4  UNL     1      16.914  34.379  20.727  1.00  0.00    -0.257 OA
HETATM    8  C10 UNL     1      15.986  33.734  21.391  1.00  0.00     0.238 A 
HETATM    9  N9  UNL     1      15.877  33.912  22.706  1.00  0.00    -0.153 N 
ATOM     10  H9  UNL     1      15.160  33.418  23.237  1.00  0.00     0.188 HD
ENDROOT
BRANCH   1  11
HETATM   11  N2  UNL     1      15.670  34.281  25.349  1.00  0.00    -0.252 N 
HETATM   12  C4  UNL     1      14.949  34.864  26.411  1.00  0.00     0.279 C 
HETATM   13  O1  UNL     1      15.174  36.044  26.729  1.00  0.00    -0.267 OA
ATOM     14  H2  UNL     1      15.467  33.311  25.108  1.00  0.00     0.190 HD
BRANCH  12  15
HETATM   15  C3  UNL     1      13.937  34.076  27.136  1.00  0.00     0.279 A 
HETATM   16  N1  UNL     1      12.686  33.992  26.419  1.00  0.00    -0.362 N 
HETATM   17  C2  UNL     1      11.713  34.520  27.032  1.00  0.00     0.046 A 
ATOM     18  H1  UNL     1      12.595  33.548  25.505  1.00  0.00     0.162 HD
HETATM   19  C1  UNL     1      10.284  34.595  26.551  1.00  0.00     0.072 C 
HETATM   20  C11 UNL     1      12.207  35.050  28.293  1.00  0.00     0.119 A 
HETATM   21  N10 UNL     1      13.612  34.771  28.362  1.00  0.00    -0.346 N 
HETATM   22  N11 UNL     1      11.495  35.666  29.194  1.00  0.00    -0.384 N 
ATOM     23  H10 UNL     1      14.250  35.013  29.120  1.00  0.00     0.163 HD
ATOM     24 2H11 UNL     1      10.495  35.864  29.145  1.00  0.00     0.157 HD
ATOM     25 1H11 UNL     1      11.842  36.037  30.079  1.00  0.00     0.157 HD
ENDBRANCH  12  15
ENDBRANCH   1  11
BRANCH   6  26
HETATM   26  C7  UNL     1      18.776  35.898  20.490  1.00  0.00     0.217 A 
HETATM   27  N5  UNL     1      18.833  35.911  19.153  1.00  0.00    -0.274 N 
HETATM   28  N6  UNL     1      19.872  36.627  18.743  1.00  0.00    -0.273 N 
ATOM     29  H5  UNL     1      18.172  35.438  18.536  1.00  0.00     0.189 HD
HETATM   30  C8  UNL     1      20.477  37.073  19.878  1.00  0.00     0.230 A 
ATOM     31  H6  UNL     1      20.156  36.805  17.779  1.00  0.00     0.189 HD
HETATM   32  O3  UNL     1      19.787  36.611  20.891  1.00  0.00    -0.265 OA
BRANCH  30  33
HETATM   33  C9  UNL     1      21.674  37.909  19.949  1.00  0.00     0.307 C 
HETATM   34  N7  UNL     1      22.459  37.881  21.120  1.00  0.00    -0.054 NA
HETATM   35  O2  UNL     1      22.028  38.653  19.001  1.00  0.00    -0.267 OA
ENDBRANCH  30  33
ENDBRANCH   6  26
BRANCH   8  36
HETATM   36  N8  UNL     1      15.181  32.924  20.758  1.00  0.00    -0.364 N 
ATOM     37  H82 UNL     1      15.515  32.030  20.398  1.00  0.00     0.159 HD
ATOM     38  H81 UNL     1      14.204  33.187  20.619  1.00  0.00     0.159 HD
ENDBRANCH   8  36
TORSDOF 5
ENDMDL
MODEL 2
REMARK VINA RESULT: -7.553823865      1.203      1.495
REMARK  5 active torsions:
REMARK  status: ('A' for Active; 'I' for Inactive)
REMARK    1  A    between atoms: C3_5  and  C4_6 
REMARK       I    between atoms: C4_6  and  N2_8 
REMARK    2  A    between atoms: N2_8  and  N3_10 
REMARK    3  A    between atoms: C6_15  and  C7_16 
REMARK    4  A    between atoms: C8_21  and  C9_22 
REMARK    5  A    between atoms: C10_27  and  N8_28 
ROOT
HETATM    1  N3  UNL     1      15.193  35.363  23.910  1.00  0.00    -0.129 N 
ATOM      2  H3  UNL     1      15.675  36.159  24.329  1.00  0.00     0.205 HD
HETATM    3  C5  UNL     1      15.619  34.860  22.788  1.00  0.00     0.702 A 
HETATM    4  N4  UNL     1      16.703  35.405  22.192  1.00  0.00    -0.164 N 
ATOM      5  H4  UNL     1      17.180  36.200  22.617  1.00  0.00     0.186 HD
HETATM    6  C6  UNL     1      17.152  34.884  21.019  1.00  0.00     0.219 A 
HETATM    7  O4  UNL     1      16.502  33.864  20.517  1.00  0.00    -0.257 OA
HETATM    8  C10 UNL     1      15.449  33.320  21.077  1.00  0.00     0.238 A 
HETATM    9  N9  UNL     1      14.990  33.813  22.226  1.00  0.00    -0.153 N 
ATOM     10  H9  UNL     1      14.172  33.401  22.674  1.00  0.00     0.188 HD
ENDROOT
BRANCH   1  11
HETATM   11  N2  UNL     1      14.079  34.813  24.535  1.00  0.00    -0.252 N 
HETATM   12  C4  UNL     1      13.796  34.954  25.909  1.00  0.00     0.279 C 
HETATM   13  O1  UNL     1      14.572  35.602  26.631  1.00  0.00    -0.267 OA
ATOM     14  H2  UNL     1      13.426  34.276  23.965  1.00  0.00     0.190 HD
BRANCH  12  15
HETATM   15  C3  UNL     1      12.588  34.334  26.481  1.00  0.00     0.279 A 
HETATM   16  N1  UNL     1      11.968  35.161  27.490  1.00  0.00    -0.362 N 
HETATM   17  C2  UNL     1      11.945  34.631  28.639  1.00  0.00     0.046 A 
ATOM     18  H1  UNL     1      11.584  36.086  27.294  1.00  0.00     0.162 HD
HETATM   19  C1  UNL     1      11.369  35.237  29.895  1.00  0.00     0.072 C 
HETATM   20  C11 UNL     1      12.575  33.323  28.545  1.00  0.00     0.119 A 
HETATM   21  N10 UNL     1      12.982  33.132  27.184  1.00  0.00    -0.346 N 
HETATM   22  N11 UNL     1      12.737  32.481  29.527  1.00  0.00    -0.384 N 
ATOM     23  H10 UNL     1      13.453  32.317  26.792  1.00  0.00     0.163 HD
ATOM     24 2H11 UNL     1      12.447  32.618  30.496  1.00  0.00     0.157 HD
ATOM     25 1H11 UNL     1      13.178  31.564  29.461  1.00  0.00     0.157 HD
ENDBRANCH  12  15
ENDBRANCH   1  11
BRANCH   6  26
HETATM   26  C7  UNL     1      18.318  35.448  20.353  1.00  0.00     0.217 A 
HETATM   27  N5  UNL     1      18.681  35.191  19.090  1.00  0.00    -0.274 N 
HETATM   28  N6  UNL     1      19.785  35.859  18.783  1.00  0.00    -0.273 N 
ATOM     29  H5  UNL     1      18.180  34.571  18.453  1.00  0.00     0.189 HD
HETATM   30  C8  UNL     1      20.113  36.555  19.907  1.00  0.00     0.230 A 
ATOM     31  H6  UNL     1      20.284  35.851  17.893  1.00  0.00     0.189 HD
HETATM   32  O3  UNL     1      19.209  36.276  20.812  1.00  0.00    -0.265 OA
BRANCH  30  33
HETATM   33  C9  UNL     1      21.261  37.446  20.069  1.00  0.00     0.307 C 
HETATM   34  N7  UNL     1      22.039  37.351  21.240  1.00  0.00    -0.054 NA
HETATM   35  O2  UNL     1      21.577  38.294  19.199  1.00  0.00    -0.267 OA
ENDBRANCH  30  33
ENDBRANCH   6  26
BRANCH   8  36
HETATM   36  N8  UNL     1      14.863  32.304  20.505  1.00  0.00    -0.364 N 
ATOM     37  H82 UNL     1      14.856  31.386  20.951  1.00  0.00     0.159 HD
ATOM     38  H81 UNL     1      14.407  32.425  19.600  1.00  0.00     0.159 HD
ENDBRANCH   8  36
TORSDOF 5
ENDMDL
MODEL 3
REMARK VINA RESULT: -7.325030036      5.369     10.230
REMARK  5 active torsions:
REMARK  status: ('A' for Active; 'I' for Inactive)
REMARK    1  A    between atoms: C3_5  and  C4_6 
REMARK       I    between atoms: C4_6  and  N2_8 
REMARK    2  A    between atoms: N2_8  and  N3_10 
REMARK    3  A    between atoms: C6_15  and  C7_16 
REMARK    4  A    between atoms: C8_21  and  C9_22 
REMARK    5  A    between atoms: C10_27  and  N8_28 
ROOT
HETATM    1  N3  UNL     1      21.130  37.854  19.851  1.00  0.00    -0.129 N 
ATOM      2  H3  UNL     1      20.284  38.425  19.871  1.00  0.00     0.205 HD
HETATM    3  C5  UNL     1      21.042  36.557  19.892  1.00  0.00     0.702 A 
HETATM    4  N4  UNL     1      19.820  35.982  19.960  1.00  0.00    -0.164 N 
ATOM      5  H4  UNL     1      18.979  36.559  19.980  1.00  0.00     0.186 HD
HETATM    6  C6  UNL     1      19.721  34.626  20.003  1.00  0.00     0.219 A 
HETATM    7  O4  UNL     1      20.833  33.934  19.976  1.00  0.00    -0.257 OA
HETATM    8  C10 UNL     1      22.027  34.470  19.910  1.00  0.00     0.238 A 
HETATM    9  N9  UNL     1      22.149  35.795  19.867  1.00  0.00    -0.153 N 
ATOM     10  H9  UNL     1      23.072  36.227  19.816  1.00  0.00     0.188 HD
ENDROOT
BRANCH   1  11
HETATM   11  N2  UNL     1      22.380  38.460  19.780  1.00  0.00    -0.252 N 
HETATM   12  C4  UNL     1      22.576  39.848  19.633  1.00  0.00     0.279 C 
HETATM   13  O1  UNL     1      21.591  40.602  19.558  1.00  0.00    -0.267 OA
ATOM     14  H2  UNL     1      23.205  37.864  19.838  1.00  0.00     0.190 HD
BRANCH  12  15
HETATM   15  C3  UNL     1      23.942  40.398  19.568  1.00  0.00     0.279 A 
HETATM   16  N1  UNL     1      24.952  39.365  19.545  1.00  0.00    -0.362 N 
HETATM   17  C2  UNL     1      25.730  39.392  20.542  1.00  0.00     0.046 A 
ATOM     18  H1  UNL     1      25.030  38.678  18.794  1.00  0.00     0.162 HD
HETATM   19  C1  UNL     1      26.881  38.453  20.808  1.00  0.00     0.072 C 
HETATM   20  C11 UNL     1      25.325  40.494  21.400  1.00  0.00     0.119 A 
HETATM   21  N10 UNL     1      24.196  41.132  20.788  1.00  0.00    -0.346 N 
HETATM   22  N11 UNL     1      25.892  40.836  22.524  1.00  0.00    -0.384 N 
ATOM     23  H10 UNL     1      23.678  41.936  21.141  1.00  0.00     0.163 HD
ATOM     24 2H11 UNL     1      26.695  40.382  22.959  1.00  0.00     0.157 HD
ATOM     25 1H11 UNL     1      25.608  41.609  23.126  1.00  0.00     0.157 HD
ENDBRANCH  12  15
ENDBRANCH   1  11
BRANCH   6  26
HETATM   26  C7  UNL     1      18.420  33.977  20.077  1.00  0.00     0.217 A 
HETATM   27  N5  UNL     1      17.255  34.548  19.746  1.00  0.00    -0.274 N 
HETATM   28  N6  UNL     1      16.256  33.695  19.925  1.00  0.00    -0.273 N 
ATOM     29  H5  UNL     1      17.151  35.504  19.405  1.00  0.00     0.189 HD
HETATM   30  C8  UNL     1      16.834  32.550  20.384  1.00  0.00     0.230 A 
ATOM     31  H6  UNL     1      15.264  33.861  19.754  1.00  0.00     0.189 HD
HETATM   32  O3  UNL     1      18.122  32.769  20.457  1.00  0.00    -0.265 OA
BRANCH  30  33
HETATM   33  C9  UNL     1      16.141  31.310  20.731  1.00  0.00     0.307 C 
HETATM   34  N7  UNL     1      14.777  31.175  20.401  1.00  0.00    -0.054 NA
HETATM   35  O2  UNL     1      16.720  30.361  21.313  1.00  0.00    -0.267 OA
ENDBRANCH  30  33
ENDBRANCH   6  26
BRANCH   8  36
HETATM   36  N8  UNL     1      23.082  33.700  19.887  1.00  0.00    -0.364 N 
ATOM     37  H82 UNL     1      23.052  32.788  19.433  1.00  0.00     0.159 HD
ATOM     38  H81 UNL     1      23.947  34.013  20.328  1.00  0.00     0.159 HD
ENDBRANCH   8  36
TORSDOF 5
ENDMDL
MODEL 4
REMARK VINA RESULT: -7.297950094      3.967     10.117
REMARK  5 active torsions:
REMARK  status: ('A' for Active; 'I' for Inactive)
REMARK    1  A    between atoms: C3_5  and  C4_6 
REMARK       I    between atoms: C4_6  and  N2_8 
REMARK    2  A    between atoms: N2_8  and  N3_10 
REMARK    3  A    between atoms: C6_15  and  C7_16 
REMARK    4  A    between atoms: C8_21  and  C9_22 
REMARK    5  A    between atoms: C10_27  and  N8_28 
ROOT
HETATM    1  N3  UNL     1      21.000  37.812  19.825  1.00  0.00    -0.129 N 
ATOM      2  H3  UNL     1      20.208  38.445  19.944  1.00  0.00     0.205 HD
HETATM    3  C5  UNL     1      20.811  36.525  19.823  1.00  0.00     0.702 A 
HETATM    4  N4  UNL     1      19.558  36.043  19.980  1.00  0.00    -0.164 N 
ATOM      5  H4  UNL     1      18.771  36.682  20.098  1.00  0.00     0.186 HD
HETATM    6  C6  UNL     1      19.355  34.699  19.979  1.00  0.00     0.219 A 
HETATM    7  O4  UNL     1      20.400  33.925  19.825  1.00  0.00    -0.257 OA
HETATM    8  C10 UNL     1      21.623  34.370  19.672  1.00  0.00     0.238 A 
HETATM    9  N9  UNL     1      21.848  35.683  19.669  1.00  0.00    -0.153 N 
ATOM     10  H9  UNL     1      22.794  36.044  19.551  1.00  0.00     0.188 HD
ENDROOT
BRANCH   1  11
HETATM   11  N2  UNL     1      22.284  38.323  19.665  1.00  0.00    -0.252 N 
HETATM   12  C4  UNL     1      22.585  39.700  19.623  1.00  0.00     0.279 C 
HETATM   13  O1  UNL     1      21.669  40.531  19.733  1.00  0.00    -0.267 OA
ATOM     14  H2  UNL     1      23.054  37.662  19.571  1.00  0.00     0.190 HD
BRANCH  12  15
HETATM   15  C3  UNL     1      23.979  40.145  19.450  1.00  0.00     0.279 A 
HETATM   16  N1  UNL     1      24.933  39.100  19.744  1.00  0.00    -0.362 N 
HETATM   17  C2  UNL     1      25.695  39.367  20.718  1.00  0.00     0.046 A 
ATOM     18  H1  UNL     1      24.986  38.229  19.216  1.00  0.00     0.162 HD
HETATM   19  C1  UNL     1      26.790  38.486  21.268  1.00  0.00     0.072 C 
HETATM   20  C11 UNL     1      25.335  40.682  21.225  1.00  0.00     0.119 A 
HETATM   21  N10 UNL     1      24.252  41.177  20.427  1.00  0.00    -0.346 N 
HETATM   22  N11 UNL     1      25.901  41.296  22.227  1.00  0.00    -0.384 N 
ATOM     23  H10 UNL     1      23.773  42.071  20.527  1.00  0.00     0.163 HD
ATOM     24 2H11 UNL     1      26.673  40.944  22.795  1.00  0.00     0.157 HD
ATOM     25 1H11 UNL     1      25.649  42.218  22.583  1.00  0.00     0.157 HD
ENDBRANCH  12  15
ENDBRANCH   1  11
BRANCH   6  26
HETATM   26  C7  UNL     1      18.017  34.148  20.145  1.00  0.00     0.217 A 
HETATM   27  N5  UNL     1      17.519  33.114  19.455  1.00  0.00    -0.274 N 
HETATM   28  N6  UNL     1      16.276  32.859  19.841  1.00  0.00    -0.273 N 
ATOM     29  H5  UNL     1      18.024  32.597  18.735  1.00  0.00     0.189 HD
HETATM   30  C8  UNL     1      16.000  33.775  20.810  1.00  0.00     0.230 A 
ATOM     31  H6  UNL     1      15.658  32.129  19.486  1.00  0.00     0.189 HD
HETATM   32  O3  UNL     1      17.068  34.519  20.954  1.00  0.00    -0.265 OA
BRANCH  30  33
HETATM   33  C9  UNL     1      14.745  33.901  21.549  1.00  0.00     0.307 C 
HETATM   34  N7  UNL     1      14.637  34.892  22.546  1.00  0.00    -0.054 NA
HETATM   35  O2  UNL     1      13.759  33.156  21.325  1.00  0.00    -0.267 OA
ENDBRANCH  30  33
ENDBRANCH   6  26
BRANCH   8  36
HETATM   36  N8  UNL     1      22.607  33.524  19.523  1.00  0.00    -0.364 N 
ATOM     37  H82 UNL     1      22.710  32.990  18.660  1.00  0.00     0.159 HD
ATOM     38  H81 UNL     1      23.280  33.392  20.278  1.00  0.00     0.159 HD
ENDBRANCH   8  36
TORSDOF 5
ENDMDL
MODEL 5
REMARK VINA RESULT: -7.246596203      1.337      1.626
REMARK  5 active torsions:
REMARK  status: ('A' for Active; 'I' for Inactive)
REMARK    1  A    between atoms: C3_5  and  C4_6 
REMARK       I    between atoms: C4_6  and  N2_8 
REMARK    2  A    between atoms: N2_8  and  N3_10 
REMARK    3  A    between atoms: C6_15  and  C7_16 
REMARK    4  A    between atoms: C8_21  and  C9_22 
REMARK    5  A    between atoms: C10_27  and  N8_28 
ROOT
HETATM    1  N3  UNL     1      16.869  34.602  25.502  1.00  0.00    -0.129 N 
ATOM      2  H3  UNL     1      17.823  34.786  25.815  1.00  0.00     0.205 HD
HETATM    3  C5  UNL     1      16.564  34.709  24.242  1.00  0.00     0.702 A 
HETATM    4  N4  UNL     1      17.524  35.065  23.360  1.00  0.00    -0.164 N 
ATOM      5  H4  UNL     1      18.475  35.248  23.680  1.00  0.00     0.186 HD
HETATM    6  C6  UNL     1      17.211  35.179  22.042  1.00  0.00     0.219 A 
HETATM    7  O4  UNL     1      15.975  34.934  21.687  1.00  0.00    -0.257 OA
HETATM    8  C10 UNL     1      15.028  34.587  22.523  1.00  0.00     0.238 A 
HETATM    9  N9  UNL     1      15.310  34.469  23.820  1.00  0.00    -0.153 N 
ATOM     10  H9  UNL     1      14.584  34.200  24.483  1.00  0.00     0.188 HD
ENDROOT
BRANCH   1  11
HETATM   11  N2  UNL     1      15.891  34.235  26.422  1.00  0.00    -0.252 N 
HETATM   12  C4  UNL     1      15.242  35.140  27.286  1.00  0.00     0.279 C 
HETATM   13  O1  UNL     1      15.542  36.345  27.248  1.00  0.00    -0.267 OA
ATOM     14  H2  UNL     1      15.627  33.251  26.473  1.00  0.00     0.190 HD
BRANCH  12  15
HETATM   15  C3  UNL     1      14.217  34.656  28.227  1.00  0.00     0.279 A 
HETATM   16  N1  UNL     1      14.141  33.213  28.266  1.00  0.00    -0.362 N 
HETATM   17  C2  UNL     1      13.025  32.752  27.889  1.00  0.00     0.046 A 
ATOM     18  H1  UNL     1      14.915  32.622  28.570  1.00  0.00     0.162 HD
HETATM   19  C1  UNL     1      12.633  31.297  27.817  1.00  0.00     0.072 C 
HETATM   20  C11 UNL     1      12.171  33.875  27.532  1.00  0.00     0.119 A 
HETATM   21  N10 UNL     1      12.920  35.078  27.744  1.00  0.00    -0.346 N 
HETATM   22  N11 UNL     1      10.944  33.793  27.097  1.00  0.00    -0.384 N 
ATOM     23  H10 UNL     1      12.605  36.035  27.587  1.00  0.00     0.163 HD
ATOM     24 2H11 UNL     1      10.411  32.936  26.946  1.00  0.00     0.157 HD
ATOM     25 1H11 UNL     1      10.345  34.580  26.847  1.00  0.00     0.157 HD
ENDBRANCH  12  15
ENDBRANCH   1  11
BRANCH   6  26
HETATM   26  C7  UNL     1      18.224  35.561  21.068  1.00  0.00     0.217 A 
HETATM   27  N5  UNL     1      18.187  35.263  19.763  1.00  0.00    -0.274 N 
HETATM   28  N6  UNL     1      19.254  35.754  19.148  1.00  0.00    -0.273 N 
ATOM     29  H5  UNL     1      17.443  34.734  19.306  1.00  0.00     0.189 HD
HETATM   30  C8  UNL     1      19.977  36.381  20.117  1.00  0.00     0.230 A 
ATOM     31  H6  UNL     1      19.486  35.677  18.157  1.00  0.00     0.189 HD
HETATM   32  O3  UNL     1      19.321  36.237  21.241  1.00  0.00    -0.265 OA
BRANCH  30  33
HETATM   33  C9  UNL     1      21.247  37.081  19.934  1.00  0.00     0.307 C 
HETATM   34  N7  UNL     1      22.344  36.731  20.747  1.00  0.00    -0.054 NA
HETATM   35  O2  UNL     1      21.394  37.985  19.075  1.00  0.00    -0.267 OA
ENDBRANCH  30  33
ENDBRANCH   6  26
BRANCH   8  36
HETATM   36  N8  UNL     1      13.822  34.361  22.079  1.00  0.00    -0.364 N 
ATOM     37  H82 UNL     1      13.557  33.439  21.732  1.00  0.00     0.159 HD
ATOM     38  H81 UNL     1      13.133  35.114  22.076  1.00  0.00     0.159 HD
ENDBRANCH   8  36
TORSDOF 5
ENDMDL
