MODEL 1
REMARK VINA RESULT: -6.397775793      0.000      0.000
REMARK  5 active torsions:
REMARK  status: ('A' for Active; 'I' for Inactive)
REMARK    1  A    between atoms: N1_1  and  C1_4 
REMARK    2  A    between atoms: C4_13  and  N5_14 
REMARK    3  A    between atoms: C4_13  and  C5_18 
REMARK       I    between atoms: C5_18  and  N6_20 
REMARK    4  A    between atoms: N6_20  and  C6_22 
REMARK    5  A    between atoms: C8_29  and  N10_30 
ROOT
HETATM    1  C1  UNL     1      19.832  27.975  18.120  1.00  0.00     0.690 A 
HETATM    2  N2  UNL     1      20.728  28.626  18.833  1.00  0.00    -0.189 N 
ATOM      3  H2  UNL     1      21.713  28.488  18.608  1.00  0.00     0.184 HD
HETATM    4  C2  UNL     1      20.412  29.481  19.865  1.00  0.00     0.094 A 
HETATM    5  C3  UNL     1      19.093  29.637  20.133  1.00  0.00     0.109 A 
HETATM    6  N3  UNL     1      18.207  28.931  19.356  1.00  0.00    -0.285 N 
ATOM      7  H3  UNL     1      17.212  29.042  19.552  1.00  0.00     0.187 HD
HETATM    8  N4  UNL     1      18.545  28.135  18.392  1.00  0.00    -0.132 N 
ATOM      9  H4  UNL     1      17.834  27.640  17.853  1.00  0.00     0.205 HD
HETATM   10  C4  UNL     1      18.463  30.478  21.161  1.00  0.00     0.305 C 
HETATM   11  S1  UNL     1      19.443  30.651  22.689  1.00  0.00    -0.039 SA
HETATM   12  S2  UNL     1      21.393  30.996  21.985  1.00  0.00    -0.056 SA
HETATM   13  C8  UNL     1      21.574  30.077  20.494  1.00  0.00     0.280 C 
ENDROOT
BRANCH  10  14
HETATM   14  N5  UNL     1      17.273  29.800  21.625  1.00  0.00    -0.045 N 
ATOM     15  H53 UNL     1      16.513  30.444  21.847  1.00  0.00     0.277 HD
ATOM     16  H52 UNL     1      16.800  29.281  20.885  1.00  0.00     0.277 HD
ATOM     17  H51 UNL     1      17.534  29.211  22.416  1.00  0.00     0.277 HD
ENDBRANCH  10  14
BRANCH  10  18
HETATM   18  C5  UNL     1      18.162  31.836  20.649  1.00  0.00     0.273 C 
HETATM   19  O1  UNL     1      17.165  32.002  19.907  1.00  0.00    -0.269 OA
HETATM   20  N6  UNL     1      18.973  32.925  20.983  1.00  0.00    -0.337 N 
ATOM     21  H6  UNL     1      19.776  32.754  21.589  1.00  0.00     0.164 HD
BRANCH  20  22
HETATM   22  C6  UNL     1      18.747  34.280  20.526  1.00  0.00     0.212 C 
HETATM   23  C7  UNL     1      20.034  35.036  20.688  1.00  0.00     0.175 C 
HETATM   24  N7  UNL     1      19.595  36.359  21.008  1.00  0.00    -0.127 NA
HETATM   25  N8  UNL     1      18.302  36.304  21.479  1.00  0.00    -0.038 NA
HETATM   26  N9  UNL     1      17.833  35.012  21.368  1.00  0.00    -0.103 NA
ENDBRANCH  20  22
ENDBRANCH  10  18
BRANCH  13  27
HETATM   27  N10 UNL     1      22.190  30.959  19.498  1.00  0.00    -0.133 N 
HETATM   28  O2  UNL     1      23.018  30.586  18.655  1.00  0.00    -0.535 OA
HETATM   29  O3  UNL     1      21.831  32.281  19.493  1.00  0.00    -0.535 OA
ENDBRANCH  13  27
BRANCH   1  30
HETATM   30  N1  UNL     1      20.143  27.166  17.143  1.00  0.00    -0.233 N 
ATOM     31  H12 UNL     1      21.127  27.101  16.884  1.00  0.00     0.174 HD
ATOM     32  H11 UNL     1      19.455  26.606  16.638  1.00  0.00     0.174 HD
ENDBRANCH   1  30
TORSDOF 5
ENDMDL
MODEL 2
REMARK VINA RESULT: -6.356839946      2.703      4.040
REMARK  5 active torsions:
REMARK  status: ('A' for Active; 'I' for Inactive)
REMARK    1  A    between atoms: N1_1  and  C1_4 
REMARK    2  A    between atoms: C4_13  and  N5_14 
REMARK    3  A    between atoms: C4_13  and  C5_18 
REMARK       I    between atoms: C5_18  and  N6_20 
REMARK    4  A    between atoms: N6_20  and  C6_22 
REMARK    5  A    between atoms: C8_29  and  N10_30 
ROOT
HETATM    1  C1  UNL     1      22.257  31.014  19.456  1.00  0.00     0.690 A 
HETATM    2  N2  UNL     1      21.924  32.236  19.817  1.00  0.00    -0.189 N 
ATOM      3  H2  UNL     1      22.513  33.006  19.503  1.00  0.00     0.184 HD
HETATM    4  C2  UNL     1      20.827  32.532  20.594  1.00  0.00     0.094 A 
HETATM    5  C3  UNL     1      20.069  31.481  20.990  1.00  0.00     0.109 A 
HETATM    6  N3  UNL     1      20.468  30.231  20.583  1.00  0.00    -0.285 N 
ATOM      7  H3  UNL     1      19.904  29.434  20.878  1.00  0.00     0.187 HD
HETATM    8  N4  UNL     1      21.510  29.993  19.850  1.00  0.00    -0.132 N 
ATOM      9  H4  UNL     1      21.749  29.038  19.583  1.00  0.00     0.205 HD
HETATM   10  C4  UNL     1      18.850  31.492  21.812  1.00  0.00     0.305 C 
HETATM   11  S1  UNL     1      18.809  32.810  23.070  1.00  0.00    -0.039 SA
HETATM   12  S2  UNL     1      19.483  34.506  22.028  1.00  0.00    -0.056 SA
HETATM   13  C8  UNL     1      20.672  33.951  20.853  1.00  0.00     0.280 C 
ENDROOT
BRANCH  10  14
HETATM   14  N5  UNL     1      18.843  30.289  22.616  1.00  0.00    -0.045 N 
ATOM     15  H53 UNL     1      19.690  29.732  22.499  1.00  0.00     0.277 HD
ATOM     16  H52 UNL     1      18.941  30.480  23.613  1.00  0.00     0.277 HD
ATOM     17  H51 UNL     1      17.994  29.768  22.394  1.00  0.00     0.277 HD
ENDBRANCH  10  14
BRANCH  10  18
HETATM   18  C5  UNL     1      17.629  31.609  20.980  1.00  0.00     0.273 C 
HETATM   19  O1  UNL     1      17.568  30.985  19.893  1.00  0.00    -0.269 OA
HETATM   20  N6  UNL     1      16.554  32.401  21.391  1.00  0.00    -0.337 N 
ATOM     21  H6  UNL     1      16.637  32.895  22.280  1.00  0.00     0.164 HD
BRANCH  20  22
HETATM   22  C6  UNL     1      15.329  32.567  20.638  1.00  0.00     0.212 C 
HETATM   23  C7  UNL     1      14.467  33.547  21.380  1.00  0.00     0.175 C 
HETATM   24  N7  UNL     1      13.142  33.079  21.115  1.00  0.00    -0.127 NA
HETATM   25  N8  UNL     1      13.198  31.758  20.730  1.00  0.00    -0.038 NA
HETATM   26  N9  UNL     1      14.517  31.375  20.615  1.00  0.00    -0.103 NA
ENDBRANCH  20  22
ENDBRANCH  10  18
BRANCH  13  27
HETATM   27  N10 UNL     1      20.361  34.585  19.569  1.00  0.00    -0.133 N 
HETATM   28  O2  UNL     1      19.212  34.807  19.162  1.00  0.00    -0.535 OA
HETATM   29  O3  UNL     1      21.404  34.961  18.763  1.00  0.00    -0.535 OA
ENDBRANCH  13  27
BRANCH   1  30
HETATM   30  N1  UNL     1      23.301  30.743  18.719  1.00  0.00    -0.233 N 
ATOM     31  H12 UNL     1      23.825  29.898  18.943  1.00  0.00     0.174 HD
ATOM     32  H11 UNL     1      23.607  31.331  17.944  1.00  0.00     0.174 HD
ENDBRANCH   1  30
TORSDOF 5
ENDMDL
MODEL 3
REMARK VINA RESULT: -6.293940983      2.040      2.953
REMARK  5 active torsions:
REMARK  status: ('A' for Active; 'I' for Inactive)
REMARK    1  A    between atoms: N1_1  and  C1_4 
REMARK    2  A    between atoms: C4_13  and  N5_14 
REMARK    3  A    between atoms: C4_13  and  C5_18 
REMARK       I    between atoms: C5_18  and  N6_20 
REMARK    4  A    between atoms: N6_20  and  C6_22 
REMARK    5  A    between atoms: C8_29  and  N10_30 
ROOT
HETATM    1  C1  UNL     1      18.271  29.949  20.204  1.00  0.00     0.690 A 
HETATM    2  N2  UNL     1      19.471  30.420  20.472  1.00  0.00    -0.189 N 
ATOM      3  H2  UNL     1      20.275  29.952  20.054  1.00  0.00     0.184 HD
HETATM    4  C2  UNL     1      19.704  31.507  21.285  1.00  0.00     0.094 A 
HETATM    5  C3  UNL     1      18.609  32.100  21.821  1.00  0.00     0.109 A 
HETATM    6  N3  UNL     1      17.386  31.563  21.505  1.00  0.00    -0.285 N 
ATOM      7  H3  UNL     1      16.558  32.003  21.905  1.00  0.00     0.187 HD
HETATM    8  N4  UNL     1      17.208  30.537  20.734  1.00  0.00    -0.132 N 
ATOM      9  H4  UNL     1      16.270  30.189  20.541  1.00  0.00     0.205 HD
HETATM   10  C4  UNL     1      18.549  33.268  22.711  1.00  0.00     0.305 C 
HETATM   11  S1  UNL     1      19.969  33.419  23.845  1.00  0.00    -0.039 SA
HETATM   12  S2  UNL     1      21.625  33.023  22.613  1.00  0.00    -0.056 SA
HETATM   13  C8  UNL     1      21.110  31.831  21.423  1.00  0.00     0.280 C 
ENDROOT
BRANCH  10  14
HETATM   14  N5  UNL     1      17.439  33.080  23.620  1.00  0.00    -0.045 N 
ATOM     15  H53 UNL     1      16.624  32.668  23.166  1.00  0.00     0.277 HD
ATOM     16  H52 UNL     1      17.607  32.338  24.299  1.00  0.00     0.277 HD
ATOM     17  H51 UNL     1      17.235  33.978  24.058  1.00  0.00     0.277 HD
ENDBRANCH  10  14
BRANCH  10  18
HETATM   18  C5  UNL     1      18.431  34.534  21.949  1.00  0.00     0.273 C 
HETATM   19  O1  UNL     1      17.308  35.087  21.852  1.00  0.00    -0.269 OA
HETATM   20  N6  UNL     1      19.548  35.113  21.341  1.00  0.00    -0.337 N 
ATOM     21  H6  UNL     1      20.445  34.636  21.439  1.00  0.00     0.164 HD
BRANCH  20  22
HETATM   22  C6  UNL     1      19.516  36.344  20.580  1.00  0.00     0.212 C 
HETATM   23  C7  UNL     1      19.213  35.991  19.153  1.00  0.00     0.175 C 
HETATM   24  N7  UNL     1      19.947  36.970  18.413  1.00  0.00    -0.127 NA
HETATM   25  N8  UNL     1      20.937  37.493  19.215  1.00  0.00    -0.038 NA
HETATM   26  N9  UNL     1      20.807  36.982  20.489  1.00  0.00    -0.103 NA
ENDBRANCH  20  22
ENDBRANCH  10  18
BRANCH  13  27
HETATM   27  N10 UNL     1      21.572  32.285  20.108  1.00  0.00    -0.133 N 
HETATM   28  O2  UNL     1      21.517  33.460  19.717  1.00  0.00    -0.535 OA
HETATM   29  O3  UNL     1      22.100  31.356  19.251  1.00  0.00    -0.535 OA
ENDBRANCH  13  27
BRANCH   1  30
HETATM   30  N1  UNL     1      18.061  28.916  19.432  1.00  0.00    -0.233 N 
ATOM     31  H12 UNL     1      17.498  28.156  19.811  1.00  0.00     0.174 HD
ATOM     32  H11 UNL     1      18.432  28.841  18.484  1.00  0.00     0.174 HD
ENDBRANCH   1  30
TORSDOF 5
ENDMDL
MODEL 4
REMARK VINA RESULT: -6.285561266      2.762      4.306
REMARK  5 active torsions:
REMARK  status: ('A' for Active; 'I' for Inactive)
REMARK    1  A    between atoms: N1_1  and  C1_4 
REMARK    2  A    between atoms: C4_13  and  N5_14 
REMARK    3  A    between atoms: C4_13  and  C5_18 
REMARK       I    between atoms: C5_18  and  N6_20 
REMARK    4  A    between atoms: N6_20  and  C6_22 
REMARK    5  A    between atoms: C8_29  and  N10_30 
ROOT
HETATM    1  C1  UNL     1      16.695  31.836  19.806  1.00  0.00     0.690 A 
HETATM    2  N2  UNL     1      17.816  31.553  20.437  1.00  0.00    -0.189 N 
ATOM      3  H2  UNL     1      18.120  30.580  20.463  1.00  0.00     0.184 HD
HETATM    4  C2  UNL     1      18.601  32.495  21.063  1.00  0.00     0.094 A 
HETATM    5  C3  UNL     1      18.163  33.776  21.005  1.00  0.00     0.109 A 
HETATM    6  N3  UNL     1      16.988  34.008  20.334  1.00  0.00    -0.285 N 
ATOM      7  H3  UNL     1      16.650  34.969  20.287  1.00  0.00     0.187 HD
HETATM    8  N4  UNL     1      16.276  33.092  19.756  1.00  0.00    -0.132 N 
ATOM      9  H4  UNL     1      15.411  33.334  19.274  1.00  0.00     0.205 HD
HETATM   10  C4  UNL     1      18.787  34.980  21.572  1.00  0.00     0.305 C 
HETATM   11  S1  UNL     1      19.695  34.692  23.126  1.00  0.00    -0.039 SA
HETATM   12  S2  UNL     1      20.778  32.932  22.744  1.00  0.00    -0.056 SA
HETATM   13  C8  UNL     1      19.785  31.935  21.685  1.00  0.00     0.280 C 
ENDROOT
BRANCH  10  14
HETATM   14  N5  UNL     1      17.731  35.878  21.985  1.00  0.00    -0.045 N 
ATOM     15  H53 UNL     1      18.075  36.810  22.220  1.00  0.00     0.277 HD
ATOM     16  H52 UNL     1      17.119  36.148  21.215  1.00  0.00     0.277 HD
ATOM     17  H51 UNL     1      17.227  35.438  22.755  1.00  0.00     0.277 HD
ENDBRANCH  10  14
BRANCH  10  18
HETATM   18  C5  UNL     1      19.714  35.622  20.609  1.00  0.00     0.273 C 
HETATM   19  O1  UNL     1      19.507  35.486  19.379  1.00  0.00    -0.269 OA
HETATM   20  N6  UNL     1      20.806  36.371  21.054  1.00  0.00    -0.337 N 
ATOM     21  H6  UNL     1      20.945  36.461  22.061  1.00  0.00     0.164 HD
BRANCH  20  22
HETATM   22  C6  UNL     1      21.755  37.028  20.180  1.00  0.00     0.212 C 
HETATM   23  C7  UNL     1      22.729  37.775  21.045  1.00  0.00     0.175 C 
HETATM   24  N7  UNL     1      23.046  38.926  20.257  1.00  0.00    -0.127 NA
HETATM   25  N8  UNL     1      22.053  39.120  19.323  1.00  0.00    -0.038 NA
HETATM   26  N9  UNL     1      21.157  38.074  19.387  1.00  0.00    -0.103 NA
ENDBRANCH  20  22
ENDBRANCH  10  18
BRANCH  13  27
HETATM   27  N10 UNL     1      20.642  31.444  20.602  1.00  0.00    -0.133 N 
HETATM   28  O2  UNL     1      20.721  30.256  20.260  1.00  0.00    -0.535 OA
HETATM   29  O3  UNL     1      21.407  32.353  19.918  1.00  0.00    -0.535 OA
ENDBRANCH  13  27
BRANCH   1  30
HETATM   30  N1  UNL     1      15.957  30.935  19.215  1.00  0.00    -0.233 N 
ATOM     31  H12 UNL     1      15.085  30.671  19.672  1.00  0.00     0.174 HD
ATOM     32  H11 UNL     1      16.213  30.491  18.332  1.00  0.00     0.174 HD
ENDBRANCH   1  30
TORSDOF 5
ENDMDL
MODEL 5
REMARK VINA RESULT: -6.113643833      3.609      5.702
REMARK  5 active torsions:
REMARK  status: ('A' for Active; 'I' for Inactive)
REMARK    1  A    between atoms: N1_1  and  C1_4 
REMARK    2  A    between atoms: C4_13  and  N5_14 
REMARK    3  A    between atoms: C4_13  and  C5_18 
REMARK       I    between atoms: C5_18  and  N6_20 
REMARK    4  A    between atoms: N6_20  and  C6_22 
REMARK    5  A    between atoms: C8_29  and  N10_30 
ROOT
HETATM    1  C1  UNL     1      15.564  34.704  23.213  1.00  0.00     0.690 A 
HETATM    2  N2  UNL     1      15.810  33.671  22.433  1.00  0.00    -0.189 N 
ATOM      3  H2  UNL     1      15.075  33.366  21.795  1.00  0.00     0.184 HD
HETATM    4  C2  UNL     1      17.000  32.980  22.430  1.00  0.00     0.094 A 
HETATM    5  C3  UNL     1      17.951  33.416  23.291  1.00  0.00     0.109 A 
HETATM    6  N3  UNL     1      17.635  34.496  24.079  1.00  0.00    -0.285 N 
ATOM      7  H3  UNL     1      18.345  34.830  24.731  1.00  0.00     0.187 HD
HETATM    8  N4  UNL     1      16.501  35.121  24.052  1.00  0.00    -0.132 N 
ATOM      9  H4  UNL     1      16.332  35.918  24.666  1.00  0.00     0.205 HD
HETATM   10  C4  UNL     1      19.304  32.884  23.503  1.00  0.00     0.305 C 
HETATM   11  S1  UNL     1      19.445  31.082  23.267  1.00  0.00    -0.039 SA
HETATM   12  S2  UNL     1      18.357  30.731  21.504  1.00  0.00    -0.056 SA
HETATM   13  C8  UNL     1      17.026  31.884  21.480  1.00  0.00     0.280 C 
ENDROOT
BRANCH  10  14
HETATM   14  N5  UNL     1      19.633  33.045  24.902  1.00  0.00    -0.045 N 
ATOM     15  H53 UNL     1      19.696  34.024  25.183  1.00  0.00     0.277 HD
ATOM     16  H52 UNL     1      18.869  32.774  25.521  1.00  0.00     0.277 HD
ATOM     17  H51 UNL     1      20.493  32.527  25.085  1.00  0.00     0.277 HD
ENDBRANCH  10  14
BRANCH  10  18
HETATM   18  C5  UNL     1      20.297  33.544  22.622  1.00  0.00     0.273 C 
HETATM   19  O1  UNL     1      21.520  33.352  22.827  1.00  0.00    -0.269 OA
HETATM   20  N6  UNL     1      19.887  34.372  21.572  1.00  0.00    -0.337 N 
ATOM     21  H6  UNL     1      18.885  34.506  21.434  1.00  0.00     0.164 HD
BRANCH  20  22
HETATM   22  C6  UNL     1      20.792  35.051  20.669  1.00  0.00     0.212 C 
HETATM   23  C7  UNL     1      20.080  36.260  20.136  1.00  0.00     0.175 C 
HETATM   24  N7  UNL     1      20.592  36.378  18.806  1.00  0.00    -0.127 NA
HETATM   25  N8  UNL     1      21.114  35.165  18.414  1.00  0.00    -0.038 NA
HETATM   26  N9  UNL     1      21.073  34.289  19.477  1.00  0.00    -0.103 NA
ENDBRANCH  20  22
ENDBRANCH  10  18
BRANCH  13  27
HETATM   27  N10 UNL     1      16.975  32.480  20.142  1.00  0.00    -0.133 N 
HETATM   28  O2  UNL     1      17.558  33.526  19.823  1.00  0.00    -0.535 OA
HETATM   29  O3  UNL     1      16.238  31.846  19.177  1.00  0.00    -0.535 OA
ENDBRANCH  13  27
BRANCH   1  30
HETATM   30  N1  UNL     1      14.431  35.353  23.209  1.00  0.00    -0.233 N 
ATOM     31  H12 UNL     1      13.902  35.365  22.337  1.00  0.00     0.174 HD
ATOM     32  H11 UNL     1      14.060  35.839  24.025  1.00  0.00     0.174 HD
ENDBRANCH   1  30
TORSDOF 5
ENDMDL
