MODEL 1
REMARK VINA RESULT: -7.074675416      0.000      0.000
REMARK  8 active torsions:
REMARK  status: ('A' for Active; 'I' for Inactive)
REMARK    1  A    between atoms: C1_4  and  N2_5 
REMARK    2  A    between atoms: C3_10  and  S1_11 
REMARK    3  A    between atoms: S1_11  and  C4_12 
REMARK    4  A    between atoms: C4_12  and  C5_13 
REMARK    5  A    between atoms: N6_18  and  C6_19 
REMARK    6  A    between atoms: C7_22  and  N8_23 
REMARK    7  A    between atoms: C8_28  and  N10_29 
REMARK    8  A    between atoms: C9_38  and  N14_39 
ROOT
HETATM    1  C5  UNL     1      20.538  35.314  19.646  1.00  0.00     0.123 A 
HETATM    2  N4  UNL     1      19.760  36.104  18.910  1.00  0.00    -0.271 N 
ATOM      3  H4  UNL     1      20.072  36.908  18.366  1.00  0.00     0.190 HD
HETATM    4  N5  UNL     1      18.507  35.668  19.001  1.00  0.00    -0.205 N 
ATOM      5  H5  UNL     1      17.708  36.093  18.532  1.00  0.00     0.211 HD
HETATM    6  N6  UNL     1      18.445  34.616  19.777  1.00  0.00    -0.003 N 
HETATM    7  N12 UNL     1      19.679  34.387  20.179  1.00  0.00    -0.250 N 
ATOM      8  H12 UNL     1      19.957  33.627  20.800  1.00  0.00     0.191 HD
ENDROOT
BRANCH   1   9
HETATM    9  C4  UNL     1      22.000  35.344  19.897  1.00  0.00     0.161 C 
BRANCH   9  10
HETATM   10  S1  UNL     1      22.375  36.431  21.250  1.00  0.00    -0.086 SA
BRANCH  10  11
HETATM   11  C3  UNL     1      22.846  38.082  20.788  1.00  0.00     0.163 A 
HETATM   12  N3  UNL     1      21.890  38.983  20.400  1.00  0.00    -0.287 N 
HETATM   13  C2  UNL     1      22.191  40.229  20.019  1.00  0.00     0.348 A 
ATOM     14  H3  UNL     1      20.913  38.692  20.401  1.00  0.00     0.172 HD
HETATM   15  N2  UNL     1      23.457  40.671  19.998  1.00  0.00    -0.093 N 
HETATM   16  O1  UNL     1      21.286  41.053  19.660  1.00  0.00    -0.245 OA
HETATM   17  C9  UNL     1      24.412  39.808  20.375  1.00  0.00     0.689 A 
HETATM   18  N13 UNL     1      24.109  38.532  20.764  1.00  0.00    -0.170 N 
ATOM     19  H13 UNL     1      24.864  37.906  21.044  1.00  0.00     0.186 HD
BRANCH  15  20
HETATM   20  C1  UNL     1      23.786  41.998  19.593  1.00  0.00     0.204 C 
HETATM   21  N1  UNL     1      23.516  42.392  18.416  1.00  0.00    -0.394 N 
ATOM     22  H12 UNL     1      23.063  41.745  17.770  1.00  0.00     0.156 HD
ATOM     23  H11 UNL     1      23.751  43.342  18.126  1.00  0.00     0.156 HD
ENDBRANCH  15  20
BRANCH  17  24
HETATM   24  N14 UNL     1      25.625  40.195  20.366  1.00  0.00    -0.234 N 
ATOM     25 2H14 UNL     1      26.026  40.586  19.513  1.00  0.00     0.174 HD
ATOM     26 1H14 UNL     1      26.174  40.106  21.220  1.00  0.00     0.174 HD
ENDBRANCH  17  24
ENDBRANCH  10  11
ENDBRANCH   9  10
ENDBRANCH   1   9
BRANCH   6  27
HETATM   27  C6  UNL     1      17.275  33.874  20.114  1.00  0.00     0.749 A 
HETATM   28  N7  UNL     1      16.261  34.407  20.818  1.00  0.00    -0.018 N 
HETATM   29  C7  UNL     1      15.172  33.682  21.121  1.00  0.00     0.705 A 
ATOM     30  H7  UNL     1      16.321  35.377  21.127  1.00  0.00     0.203 HD
HETATM   31  N9  UNL     1      15.035  32.406  20.744  1.00  0.00    -0.022 N 
HETATM   32  C8  UNL     1      16.033  31.844  20.039  1.00  0.00     0.705 A 
ATOM     33  H9  UNL     1      14.198  31.874  20.984  1.00  0.00     0.203 HD
HETATM   34  N11 UNL     1      17.120  32.581  19.741  1.00  0.00    -0.018 N 
ATOM     35  H11 UNL     1      17.868  32.141  19.206  1.00  0.00     0.203 HD
BRANCH  29  36
HETATM   36  N8  UNL     1      14.193  34.193  21.799  1.00  0.00    -0.234 N 
ATOM     37  H82 UNL     1      14.443  34.710  22.642  1.00  0.00     0.174 HD
ATOM     38  H81 UNL     1      13.225  34.079  21.497  1.00  0.00     0.174 HD
ENDBRANCH  29  36
BRANCH  32  39
HETATM   39  N10 UNL     1      15.913  30.615  19.671  1.00  0.00    -0.234 N 
ATOM     40 2H10 UNL     1      16.529  29.880  20.018  1.00  0.00     0.174 HD
ATOM     41 1H10 UNL     1      15.176  30.373  19.009  1.00  0.00     0.174 HD
ENDBRANCH  32  39
ENDBRANCH   6  27
TORSDOF 8
ENDMDL
MODEL 2
REMARK VINA RESULT: -7.054369395      0.026      1.570
REMARK  8 active torsions:
REMARK  status: ('A' for Active; 'I' for Inactive)
REMARK    1  A    between atoms: C1_4  and  N2_5 
REMARK    2  A    between atoms: C3_10  and  S1_11 
REMARK    3  A    between atoms: S1_11  and  C4_12 
REMARK    4  A    between atoms: C4_12  and  C5_13 
REMARK    5  A    between atoms: N6_18  and  C6_19 
REMARK    6  A    between atoms: C7_22  and  N8_23 
REMARK    7  A    between atoms: C8_28  and  N10_29 
REMARK    8  A    between atoms: C9_38  and  N14_39 
ROOT
HETATM    1  C5  UNL     1      20.540  35.310  19.650  1.00  0.00     0.123 A 
HETATM    2  N4  UNL     1      19.754  36.098  18.920  1.00  0.00    -0.271 N 
ATOM      3  H4  UNL     1      20.059  36.912  18.385  1.00  0.00     0.190 HD
HETATM    4  N5  UNL     1      18.507  35.647  19.004  1.00  0.00    -0.205 N 
ATOM      5  H5  UNL     1      17.703  36.068  18.538  1.00  0.00     0.211 HD
HETATM    6  N6  UNL     1      18.454  34.587  19.769  1.00  0.00    -0.003 N 
HETATM    7  N12 UNL     1      19.691  34.368  20.171  1.00  0.00    -0.250 N 
ATOM      8  H12 UNL     1      19.975  33.605  20.784  1.00  0.00     0.191 HD
ENDROOT
BRANCH   1   9
HETATM    9  C4  UNL     1      22.001  35.353  19.904  1.00  0.00     0.161 C 
BRANCH   9  10
HETATM   10  S1  UNL     1      22.362  36.449  21.254  1.00  0.00    -0.086 SA
BRANCH  10  11
HETATM   11  C3  UNL     1      22.837  38.098  20.786  1.00  0.00     0.163 A 
HETATM   12  N3  UNL     1      21.882  39.003  20.405  1.00  0.00    -0.287 N 
HETATM   13  C2  UNL     1      22.184  40.247  20.020  1.00  0.00     0.348 A 
ATOM     14  H3  UNL     1      20.903  38.716  20.415  1.00  0.00     0.172 HD
HETATM   15  N2  UNL     1      23.453  40.684  19.988  1.00  0.00    -0.093 N 
HETATM   16  O1  UNL     1      21.281  41.075  19.668  1.00  0.00    -0.245 OA
HETATM   17  C9  UNL     1      24.407  39.817  20.358  1.00  0.00     0.689 A 
HETATM   18  N13 UNL     1      24.101  38.542  20.751  1.00  0.00    -0.170 N 
ATOM     19  H13 UNL     1      24.856  37.913  21.025  1.00  0.00     0.186 HD
BRANCH  15  20
HETATM   20  C1  UNL     1      23.783  42.008  19.579  1.00  0.00     0.204 C 
HETATM   21  N1  UNL     1      23.527  42.395  18.396  1.00  0.00    -0.394 N 
ATOM     22  H12 UNL     1      23.083  41.743  17.749  1.00  0.00     0.156 HD
ATOM     23  H11 UNL     1      23.764  43.344  18.103  1.00  0.00     0.156 HD
ENDBRANCH  15  20
BRANCH  17  24
HETATM   24  N14 UNL     1      25.622  40.198  20.338  1.00  0.00    -0.234 N 
ATOM     25 2H14 UNL     1      26.020  40.664  21.154  1.00  0.00     0.174 HD
ATOM     26 1H14 UNL     1      26.175  40.028  19.499  1.00  0.00     0.174 HD
ENDBRANCH  17  24
ENDBRANCH  10  11
ENDBRANCH   9  10
ENDBRANCH   1   9
BRANCH   6  27
HETATM   27  C6  UNL     1      17.292  33.828  20.096  1.00  0.00     0.749 A 
HETATM   28  N7  UNL     1      17.142  32.544  19.725  1.00  0.00    -0.018 N 
HETATM   29  C7  UNL     1      16.035  31.856  20.048  1.00  0.00     0.705 A 
ATOM     30  H7  UNL     1      17.880  32.087  19.190  1.00  0.00     0.203 HD
HETATM   31  N9  UNL     1      15.033  32.400  20.748  1.00  0.00    -0.022 N 
HETATM   32  C8  UNL     1      15.154  33.683  21.132  1.00  0.00     0.705 A 
ATOM     33  H9  UNL     1      14.202  31.858  20.983  1.00  0.00     0.203 HD
HETATM   34  N11 UNL     1      16.269  34.363  20.803  1.00  0.00    -0.018 N 
ATOM     35  H11 UNL     1      16.346  35.335  21.102  1.00  0.00     0.203 HD
BRANCH  29  36
HETATM   36  N8  UNL     1      15.887  30.619  19.693  1.00  0.00    -0.234 N 
ATOM     37  H82 UNL     1      16.714  30.025  19.753  1.00  0.00     0.174 HD
ATOM     38  H81 UNL     1      14.986  30.266  19.370  1.00  0.00     0.174 HD
ENDBRANCH  29  36
BRANCH  32  39
HETATM   39  N10 UNL     1      14.195  34.218  21.807  1.00  0.00    -0.234 N 
ATOM     40 2H10 UNL     1      13.258  33.817  21.835  1.00  0.00     0.174 HD
ATOM     41 1H10 UNL     1      14.383  35.073  22.329  1.00  0.00     0.174 HD
ENDBRANCH  32  39
ENDBRANCH   6  27
TORSDOF 8
ENDMDL
MODEL 3
REMARK VINA RESULT: -7.035272513      4.233      6.487
REMARK  8 active torsions:
REMARK  status: ('A' for Active; 'I' for Inactive)
REMARK    1  A    between atoms: C1_4  and  N2_5 
REMARK    2  A    between atoms: C3_10  and  S1_11 
REMARK    3  A    between atoms: S1_11  and  C4_12 
REMARK    4  A    between atoms: C4_12  and  C5_13 
REMARK    5  A    between atoms: N6_18  and  C6_19 
REMARK    6  A    between atoms: C7_22  and  N8_23 
REMARK    7  A    between atoms: C8_28  and  N10_29 
REMARK    8  A    between atoms: C9_38  and  N14_39 
ROOT
HETATM    1  C5  UNL     1      15.116  34.357  22.171  1.00  0.00     0.123 A 
HETATM    2  N4  UNL     1      14.202  35.208  22.630  1.00  0.00    -0.271 N 
ATOM      3  H4  UNL     1      13.425  35.594  22.093  1.00  0.00     0.190 HD
HETATM    4  N5  UNL     1      14.470  35.472  23.905  1.00  0.00    -0.205 N 
ATOM      5  H5  UNL     1      13.924  36.096  24.498  1.00  0.00     0.211 HD
HETATM    6  N6  UNL     1      15.535  34.817  24.293  1.00  0.00    -0.003 N 
HETATM    7  N12 UNL     1      15.941  34.130  23.243  1.00  0.00    -0.250 N 
ATOM      8  H12 UNL     1      16.755  33.516  23.230  1.00  0.00     0.191 HD
ENDROOT
BRANCH   1   9
HETATM    9  C4  UNL     1      15.290  33.739  20.834  1.00  0.00     0.161 C 
BRANCH   9  10
HETATM   10  S1  UNL     1      16.912  33.031  20.685  1.00  0.00    -0.086 SA
BRANCH  10  11
HETATM   11  C3  UNL     1      18.236  34.203  20.494  1.00  0.00     0.163 A 
HETATM   12  N3  UNL     1      19.005  34.548  21.573  1.00  0.00    -0.287 N 
HETATM   13  C2  UNL     1      19.997  35.440  21.492  1.00  0.00     0.348 A 
ATOM     14  H3  UNL     1      18.815  34.106  22.472  1.00  0.00     0.172 HD
HETATM   15  N2  UNL     1      20.298  36.054  20.337  1.00  0.00    -0.093 N 
HETATM   16  O1  UNL     1      20.703  35.748  22.509  1.00  0.00    -0.245 OA
HETATM   17  C9  UNL     1      19.559  35.733  19.265  1.00  0.00     0.689 A 
HETATM   18  N13 UNL     1      18.543  34.820  19.344  1.00  0.00    -0.170 N 
ATOM     19  H13 UNL     1      18.005  34.603  18.505  1.00  0.00     0.186 HD
BRANCH  15  20
HETATM   20  C1  UNL     1      21.353  37.007  20.243  1.00  0.00     0.204 C 
HETATM   21  N1  UNL     1      22.557  36.649  20.439  1.00  0.00    -0.394 N 
ATOM     22  H12 UNL     1      22.752  35.673  20.663  1.00  0.00     0.156 HD
ATOM     23  H11 UNL     1      23.313  37.332  20.371  1.00  0.00     0.156 HD
ENDBRANCH  15  20
BRANCH  17  24
HETATM   24  N14 UNL     1      19.817  36.297  18.153  1.00  0.00    -0.234 N 
ATOM     25 2H14 UNL     1      20.545  37.011  18.104  1.00  0.00     0.174 HD
ATOM     26 1H14 UNL     1      19.286  36.020  17.328  1.00  0.00     0.174 HD
ENDBRANCH  17  24
ENDBRANCH  10  11
ENDBRANCH   9  10
ENDBRANCH   1   9
BRANCH   6  27
HETATM   27  C6  UNL     1      16.129  34.846  25.588  1.00  0.00     0.749 A 
HETATM   28  N7  UNL     1      16.187  35.966  26.330  1.00  0.00    -0.018 N 
HETATM   29  C7  UNL     1      16.753  35.961  27.548  1.00  0.00     0.705 A 
ATOM     30  H7  UNL     1      15.794  36.832  25.962  1.00  0.00     0.203 HD
HETATM   31  N9  UNL     1      17.285  34.857  28.085  1.00  0.00    -0.022 N 
HETATM   32  C8  UNL     1      17.243  33.721  27.367  1.00  0.00     0.705 A 
ATOM     33  H9  UNL     1      17.709  34.877  29.012  1.00  0.00     0.203 HD
HETATM   34  N11 UNL     1      16.672  33.738  26.147  1.00  0.00    -0.018 N 
ATOM     35  H11 UNL     1      16.648  32.868  25.615  1.00  0.00     0.203 HD
BRANCH  29  36
HETATM   36  N8  UNL     1      16.810  37.039  28.265  1.00  0.00    -0.234 N 
ATOM     37  H82 UNL     1      16.536  37.907  27.806  1.00  0.00     0.174 HD
ATOM     38  H81 UNL     1      17.116  37.010  29.238  1.00  0.00     0.174 HD
ENDBRANCH  29  36
BRANCH  32  39
HETATM   39  N10 UNL     1      17.752  32.651  27.874  1.00  0.00    -0.234 N 
ATOM     40 2H10 UNL     1      18.487  32.680  28.581  1.00  0.00     0.174 HD
ATOM     41 1H10 UNL     1      17.407  31.747  27.554  1.00  0.00     0.174 HD
ENDBRANCH  32  39
ENDBRANCH   6  27
TORSDOF 8
ENDMDL
MODEL 4
REMARK VINA RESULT: -7.014468175      4.476      7.240
REMARK  8 active torsions:
REMARK  status: ('A' for Active; 'I' for Inactive)
REMARK    1  A    between atoms: C1_4  and  N2_5 
REMARK    2  A    between atoms: C3_10  and  S1_11 
REMARK    3  A    between atoms: S1_11  and  C4_12 
REMARK    4  A    between atoms: C4_12  and  C5_13 
REMARK    5  A    between atoms: N6_18  and  C6_19 
REMARK    6  A    between atoms: C7_22  and  N8_23 
REMARK    7  A    between atoms: C8_28  and  N10_29 
REMARK    8  A    between atoms: C9_38  and  N14_39 
ROOT
HETATM    1  C5  UNL     1      20.556  34.935  19.478  1.00  0.00     0.123 A 
HETATM    2  N4  UNL     1      19.857  35.795  18.742  1.00  0.00    -0.271 N 
ATOM      3  H4  UNL     1      20.245  36.456  18.070  1.00  0.00     0.190 HD
HETATM    4  N5  UNL     1      18.567  35.649  19.030  1.00  0.00    -0.205 N 
ATOM      5  H5  UNL     1      17.812  36.187  18.606  1.00  0.00     0.211 HD
HETATM    6  N6  UNL     1      18.403  34.718  19.934  1.00  0.00    -0.003 N 
HETATM    7  N12 UNL     1      19.611  34.271  20.218  1.00  0.00    -0.250 N 
ATOM      8  H12 UNL     1      19.814  33.534  20.893  1.00  0.00     0.191 HD
ENDROOT
BRANCH   1   9
HETATM    9  C4  UNL     1      22.014  34.675  19.555  1.00  0.00     0.161 C 
BRANCH   9  10
HETATM   10  S1  UNL     1      22.339  33.260  20.577  1.00  0.00    -0.086 SA
BRANCH  10  11
HETATM   11  C3  UNL     1      22.163  31.685  19.772  1.00  0.00     0.163 A 
HETATM   12  N3  UNL     1      21.096  30.879  20.070  1.00  0.00    -0.287 N 
HETATM   13  C2  UNL     1      20.928  29.676  19.513  1.00  0.00     0.348 A 
ATOM     14  H3  UNL     1      20.405  31.211  20.742  1.00  0.00     0.172 HD
HETATM   15  N2  UNL     1      21.801  29.186  18.621  1.00  0.00    -0.093 N 
HETATM   16  O1  UNL     1      19.927  28.940  19.804  1.00  0.00    -0.245 OA
HETATM   17  C9  UNL     1      22.855  29.956  18.311  1.00  0.00     0.689 A 
HETATM   18  N13 UNL     1      23.031  31.188  18.879  1.00  0.00    -0.170 N 
ATOM     19  H13 UNL     1      23.846  31.743  18.617  1.00  0.00     0.186 HD
BRANCH  15  20
HETATM   20  C1  UNL     1      21.629  27.903  18.023  1.00  0.00     0.204 C 
HETATM   21  N1  UNL     1      20.552  27.624  17.408  1.00  0.00    -0.394 N 
ATOM     22  H12 UNL     1      19.818  28.331  17.351  1.00  0.00     0.156 HD
ATOM     23  H11 UNL     1      20.428  26.706  16.980  1.00  0.00     0.156 HD
ENDBRANCH  15  20
BRANCH  17  24
HETATM   24  N14 UNL     1      23.704  29.520  17.468  1.00  0.00    -0.234 N 
ATOM     25 2H14 UNL     1      24.350  28.777  17.737  1.00  0.00     0.174 HD
ATOM     26 1H14 UNL     1      23.720  29.927  16.534  1.00  0.00     0.174 HD
ENDBRANCH  17  24
ENDBRANCH  10  11
ENDBRANCH   9  10
ENDBRANCH   1   9
BRANCH   6  27
HETATM   27  C6  UNL     1      17.167  34.281  20.493  1.00  0.00     0.749 A 
HETATM   28  N7  UNL     1      16.551  33.156  20.090  1.00  0.00    -0.018 N 
HETATM   29  C7  UNL     1      15.386  32.770  20.636  1.00  0.00     0.705 A 
ATOM     30  H7  UNL     1      16.975  32.587  19.358  1.00  0.00     0.203 HD
HETATM   31  N9  UNL     1      14.781  33.474  21.600  1.00  0.00    -0.022 N 
HETATM   32  C8  UNL     1      15.372  34.604  22.024  1.00  0.00     0.705 A 
ATOM     33  H9  UNL     1      13.897  33.161  22.002  1.00  0.00     0.203 HD
HETATM   34  N11 UNL     1      16.540  34.980  21.469  1.00  0.00    -0.018 N 
ATOM     35  H11 UNL     1      16.977  35.841  21.802  1.00  0.00     0.203 HD
BRANCH  29  36
HETATM   36  N8  UNL     1      14.790  31.687  20.250  1.00  0.00    -0.234 N 
ATOM     37  H82 UNL     1      15.141  30.811  20.638  1.00  0.00     0.174 HD
ATOM     38  H81 UNL     1      14.012  31.718  19.592  1.00  0.00     0.174 HD
ENDBRANCH  29  36
BRANCH  32  39
HETATM   39  N10 UNL     1      14.799  35.291  22.952  1.00  0.00    -0.234 N 
ATOM     40 2H10 UNL     1      13.784  35.369  23.023  1.00  0.00     0.174 HD
ATOM     41 1H10 UNL     1      15.382  35.771  23.636  1.00  0.00     0.174 HD
ENDBRANCH  32  39
ENDBRANCH   6  27
TORSDOF 8
ENDMDL
MODEL 5
REMARK VINA RESULT: -7.001288756      4.452      7.050
REMARK  8 active torsions:
REMARK  status: ('A' for Active; 'I' for Inactive)
REMARK    1  A    between atoms: C1_4  and  N2_5 
REMARK    2  A    between atoms: C3_10  and  S1_11 
REMARK    3  A    between atoms: S1_11  and  C4_12 
REMARK    4  A    between atoms: C4_12  and  C5_13 
REMARK    5  A    between atoms: N6_18  and  C6_19 
REMARK    6  A    between atoms: C7_22  and  N8_23 
REMARK    7  A    between atoms: C8_28  and  N10_29 
REMARK    8  A    between atoms: C9_38  and  N14_39 
ROOT
HETATM    1  C5  UNL     1      20.511  35.022  19.482  1.00  0.00     0.123 A 
HETATM    2  N4  UNL     1      19.806  35.877  18.744  1.00  0.00    -0.271 N 
ATOM      3  H4  UNL     1      20.188  36.519  18.050  1.00  0.00     0.190 HD
HETATM    4  N5  UNL     1      18.522  35.752  19.063  1.00  0.00    -0.205 N 
ATOM      5  H5  UNL     1      17.764  36.290  18.645  1.00  0.00     0.211 HD
HETATM    6  N6  UNL     1      18.367  34.840  19.989  1.00  0.00    -0.003 N 
HETATM    7  N12 UNL     1      19.576  34.385  20.255  1.00  0.00    -0.250 N 
ATOM      8  H12 UNL     1      19.785  33.659  20.940  1.00  0.00     0.191 HD
ENDROOT
BRANCH   1   9
HETATM    9  C4  UNL     1      21.968  34.746  19.531  1.00  0.00     0.161 C 
BRANCH   9  10
HETATM   10  S1  UNL     1      22.299  33.348  20.574  1.00  0.00    -0.086 SA
BRANCH  10  11
HETATM   11  C3  UNL     1      22.132  31.761  19.792  1.00  0.00     0.163 A 
HETATM   12  N3  UNL     1      21.064  30.959  20.092  1.00  0.00    -0.287 N 
HETATM   13  C2  UNL     1      20.902  29.747  19.553  1.00  0.00     0.348 A 
ATOM     14  H3  UNL     1      20.365  31.300  20.752  1.00  0.00     0.172 HD
HETATM   15  N2  UNL     1      21.785  29.244  18.676  1.00  0.00    -0.093 N 
HETATM   16  O1  UNL     1      19.899  29.014  19.845  1.00  0.00    -0.245 OA
HETATM   17  C9  UNL     1      22.840  30.010  18.365  1.00  0.00     0.689 A 
HETATM   18  N13 UNL     1      23.010  31.251  18.916  1.00  0.00    -0.170 N 
ATOM     19  H13 UNL     1      23.827  31.802  18.653  1.00  0.00     0.186 HD
BRANCH  15  20
HETATM   20  C1  UNL     1      21.619  27.952  18.097  1.00  0.00     0.204 C 
HETATM   21  N1  UNL     1      20.559  27.670  17.454  1.00  0.00    -0.394 N 
ATOM     22  H12 UNL     1      19.834  28.383  17.362  1.00  0.00     0.156 HD
ATOM     23  H11 UNL     1      20.441  26.746  17.039  1.00  0.00     0.156 HD
ENDBRANCH  15  20
BRANCH  17  24
HETATM   24  N14 UNL     1      23.699  29.562  17.537  1.00  0.00    -0.234 N 
ATOM     25 2H14 UNL     1      23.387  29.151  16.657  1.00  0.00     0.174 HD
ATOM     26 1H14 UNL     1      24.688  29.626  17.775  1.00  0.00     0.174 HD
ENDBRANCH  17  24
ENDBRANCH  10  11
ENDBRANCH   9  10
ENDBRANCH   1   9
BRANCH   6  27
HETATM   27  C6  UNL     1      17.139  34.429  20.584  1.00  0.00     0.749 A 
HETATM   28  N7  UNL     1      16.546  35.127  21.568  1.00  0.00    -0.018 N 
HETATM   29  C7  UNL     1      15.388  34.714  22.110  1.00  0.00     0.705 A 
ATOM     30  H7  UNL     1      16.983  35.983  21.909  1.00  0.00     0.203 HD
HETATM   31  N9  UNL     1      14.767  33.600  21.705  1.00  0.00    -0.022 N 
HETATM   32  C8  UNL     1      15.336  32.880  20.722  1.00  0.00     0.705 A 
ATOM     33  H9  UNL     1      13.888  33.306  22.129  1.00  0.00     0.203 HD
HETATM   34  N11 UNL     1      16.497  33.305  20.187  1.00  0.00    -0.018 N 
ATOM     35  H11 UNL     1      16.916  32.748  19.442  1.00  0.00     0.203 HD
BRANCH  29  36
HETATM   36  N8  UNL     1      14.814  35.384  23.058  1.00  0.00    -0.234 N 
ATOM     37  H82 UNL     1      15.183  36.316  23.245  1.00  0.00     0.174 HD
ATOM     38  H81 UNL     1      14.035  34.991  23.586  1.00  0.00     0.174 HD
ENDBRANCH  29  36
BRANCH  32  39
HETATM   39  N10 UNL     1      14.748  31.805  20.324  1.00  0.00    -0.234 N 
ATOM     40 2H10 UNL     1      14.318  31.146  20.974  1.00  0.00     0.174 HD
ATOM     41 1H10 UNL     1      14.712  31.608  19.324  1.00  0.00     0.174 HD
ENDBRANCH  32  39
ENDBRANCH   6  27
TORSDOF 8
ENDMDL
