MODEL 1
REMARK VINA RESULT: -6.102856980      0.000      0.000
REMARK  9 active torsions:
REMARK  status: ('A' for Active; 'I' for Inactive)
REMARK    1  A    between atoms: N2_4  and  N3_6 
REMARK    2  A    between atoms: N4_9  and  N5_10 
REMARK    3  A    between atoms: C3_13  and  N6_14 
REMARK    4  A    between atoms: C6_21  and  S1_22 
REMARK    5  A    between atoms: S1_22  and  N8_23 
REMARK    6  A    between atoms: S1_22  and  S2_27 
REMARK    7  A    between atoms: S2_27  and  C7_28 
REMARK    8  A    between atoms: C7_28  and  C8_29 
REMARK    9  A    between atoms: C8_29  and  O3_33 
ROOT
HETATM    1  C1  UNL     1      18.251  35.075  22.324  1.00  0.00     0.176 C 
HETATM    2  N1  UNL     1      17.372  34.036  21.836  1.00  0.00    -0.180 N 
HETATM    3  C2  UNL     1      16.020  34.251  21.929  1.00  0.00     0.721 A 
HETATM    4  N2  UNL     1      15.665  35.364  22.466  1.00  0.00    -0.137 N 
ATOM      5  H2  UNL     1      16.385  36.012  22.787  1.00  0.00     0.205 HD
HETATM    6  N4  UNL     1      15.105  33.375  21.499  1.00  0.00    -0.072 N 
HETATM    7  C3  UNL     1      15.514  32.222  20.948  1.00  0.00     0.175 A 
HETATM    8  C4  UNL     1      16.866  32.000  20.853  1.00  0.00     0.152 A 
HETATM    9  O1  UNL     1      17.489  30.990  20.377  1.00  0.00    -0.288 OA
HETATM   10  C5  UNL     1      18.782  31.152  20.471  1.00  0.00     0.181 A 
HETATM   11  N7  UNL     1      19.788  30.209  20.033  1.00  0.00    -0.073 NA
HETATM   12  C6  UNL     1      19.100  32.369  21.059  1.00  0.00     0.127 A 
HETATM   13  C9  UNL     1      17.848  32.899  21.294  1.00  0.00     0.114 A 
ENDROOT
BRANCH  12  14
HETATM   14  S1  UNL     1      20.686  33.230  21.606  1.00  0.00     0.112 S 
HETATM   15  O2  UNL     1      21.468  32.443  19.779  1.00  0.00    -0.234 OA
BRANCH  14  16
HETATM   16  N8  UNL     1      20.904  32.618  23.105  1.00  0.00    -0.348 N 
ATOM     17  H82 UNL     1      20.687  31.681  23.443  1.00  0.00     0.166 HD
ATOM     18  H81 UNL     1      21.308  33.412  23.601  1.00  0.00     0.166 HD
ENDBRANCH  14  16
BRANCH  14  19
HETATM   19  S2  UNL     1      21.490  34.542  21.549  1.00  0.00    -0.045 SA
BRANCH  19  20
HETATM   20  C7  UNL     1      21.408  35.912  20.686  1.00  0.00     0.173 C 
BRANCH  20  21
HETATM   21  C8  UNL     1      20.928  35.737  19.292  1.00  0.00     0.119 C 
HETATM   22  N9  UNL     1      19.881  36.316  18.858  1.00  0.00    -0.383 N 
ATOM     23  H92 UNL     1      19.352  36.920  19.487  1.00  0.00     0.158 HD
ATOM     24  H91 UNL     1      19.552  36.196  17.900  1.00  0.00     0.158 HD
BRANCH  21  25
HETATM   25  O3  UNL     1      21.645  34.918  18.440  1.00  0.00    -0.349 OA
ATOM     26  H3  UNL     1      21.513  35.006  17.502  1.00  0.00     0.219 HD
ENDBRANCH  21  25
ENDBRANCH  20  21
ENDBRANCH  19  20
ENDBRANCH  14  19
ENDBRANCH  12  14
BRANCH   7  27
HETATM   27  N6  UNL     1      14.609  31.403  20.545  1.00  0.00    -0.381 N 
ATOM     28  H62 UNL     1      13.614  31.621  20.487  1.00  0.00     0.157 HD
ATOM     29  H61 UNL     1      14.909  30.470  20.264  1.00  0.00     0.157 HD
ENDBRANCH   7  27
BRANCH   4  30
HETATM   30  N3  UNL     1      14.335  35.706  22.620  1.00  0.00    -0.331 N 
ATOM     31  H32 UNL     1      13.665  34.960  22.805  1.00  0.00     0.177 HD
ATOM     32  H31 UNL     1      14.018  36.674  22.554  1.00  0.00     0.177 HD
ENDBRANCH   4  30
BRANCH   6  33
HETATM   33  N5  UNL     1      13.741  33.652  21.625  1.00  0.00    -0.322 N 
ATOM     34  H52 UNL     1      13.428  34.470  22.147  1.00  0.00     0.178 HD
ATOM     35  H51 UNL     1      13.046  33.042  21.194  1.00  0.00     0.178 HD
ENDBRANCH   6  33
TORSDOF 9
ENDMDL
MODEL 2
REMARK VINA RESULT: -5.894471913      1.261      1.332
REMARK  9 active torsions:
REMARK  status: ('A' for Active; 'I' for Inactive)
REMARK    1  A    between atoms: N2_4  and  N3_6 
REMARK    2  A    between atoms: N4_9  and  N5_10 
REMARK    3  A    between atoms: C3_13  and  N6_14 
REMARK    4  A    between atoms: C6_21  and  S1_22 
REMARK    5  A    between atoms: S1_22  and  N8_23 
REMARK    6  A    between atoms: S1_22  and  S2_27 
REMARK    7  A    between atoms: S2_27  and  C7_28 
REMARK    8  A    between atoms: C7_28  and  C8_29 
REMARK    9  A    between atoms: C8_29  and  O3_33 
ROOT
HETATM    1  C1  UNL     1      18.325  35.323  22.194  1.00  0.00     0.176 C 
HETATM    2  N1  UNL     1      17.595  34.161  21.737  1.00  0.00    -0.180 N 
HETATM    3  C2  UNL     1      16.226  34.198  21.817  1.00  0.00     0.721 A 
HETATM    4  N2  UNL     1      15.722  35.271  22.315  1.00  0.00    -0.137 N 
ATOM      5  H2  UNL     1      16.346  36.018  22.617  1.00  0.00     0.205 HD
HETATM    6  N4  UNL     1      15.439  33.195  21.413  1.00  0.00    -0.072 N 
HETATM    7  C3  UNL     1      16.001  32.089  20.902  1.00  0.00     0.175 A 
HETATM    8  C4  UNL     1      17.372  32.046  20.820  1.00  0.00     0.152 A 
HETATM    9  O1  UNL     1      18.127  31.113  20.380  1.00  0.00    -0.288 OA
HETATM   10  C5  UNL     1      19.387  31.448  20.475  1.00  0.00     0.181 A 
HETATM   11  N7  UNL     1      20.512  30.632  20.072  1.00  0.00    -0.073 NA
HETATM   12  C6  UNL     1      19.535  32.714  21.023  1.00  0.00     0.127 A 
HETATM   13  C9  UNL     1      18.222  33.080  21.235  1.00  0.00     0.114 A 
ENDROOT
BRANCH  12  14
HETATM   14  S1  UNL     1      20.988  33.795  21.549  1.00  0.00     0.112 S 
HETATM   15  O2  UNL     1      21.186  34.145  19.450  1.00  0.00    -0.234 OA
BRANCH  14  16
HETATM   16  N8  UNL     1      21.871  32.760  22.453  1.00  0.00    -0.348 N 
ATOM     17  H82 UNL     1      22.589  32.105  22.144  1.00  0.00     0.166 HD
ATOM     18  H81 UNL     1      21.517  32.943  23.391  1.00  0.00     0.166 HD
ENDBRANCH  14  16
BRANCH  14  19
HETATM   19  S2  UNL     1      21.414  35.214  21.968  1.00  0.00    -0.045 SA
BRANCH  19  20
HETATM   20  C7  UNL     1      22.531  36.280  21.474  1.00  0.00     0.173 C 
BRANCH  20  21
HETATM   21  C8  UNL     1      22.015  37.343  20.574  1.00  0.00     0.119 C 
HETATM   22  N9  UNL     1      21.481  37.077  19.450  1.00  0.00    -0.383 N 
ATOM     23  H92 UNL     1      21.405  36.104  19.154  1.00  0.00     0.158 HD
ATOM     24  H91 UNL     1      21.127  37.807  18.832  1.00  0.00     0.158 HD
BRANCH  21  25
HETATM   25  O3  UNL     1      22.118  38.661  20.974  1.00  0.00    -0.349 OA
ATOM     26  H3  UNL     1      22.904  39.147  20.751  1.00  0.00     0.219 HD
ENDBRANCH  21  25
ENDBRANCH  20  21
ENDBRANCH  19  20
ENDBRANCH  14  19
ENDBRANCH  12  14
BRANCH   7  27
HETATM   27  N6  UNL     1      15.216  31.145  20.522  1.00  0.00    -0.381 N 
ATOM     28  H62 UNL     1      14.953  30.344  21.095  1.00  0.00     0.157 HD
ATOM     29  H61 UNL     1      14.831  31.204  19.579  1.00  0.00     0.157 HD
ENDBRANCH   7  27
BRANCH   4  30
HETATM   30  N3  UNL     1      14.357  35.439  22.452  1.00  0.00    -0.331 N 
ATOM     31  H32 UNL     1      13.843  35.855  21.675  1.00  0.00     0.177 HD
ATOM     32  H31 UNL     1      13.863  35.159  23.300  1.00  0.00     0.177 HD
ENDBRANCH   4  30
BRANCH   6  33
HETATM   33  N5  UNL     1      14.048  33.293  21.522  1.00  0.00    -0.322 N 
ATOM     34  H52 UNL     1      13.609  34.195  21.702  1.00  0.00     0.178 HD
ATOM     35  H51 UNL     1      13.461  32.465  21.422  1.00  0.00     0.178 HD
ENDBRANCH   6  33
TORSDOF 9
ENDMDL
MODEL 3
REMARK VINA RESULT: -5.827167614      2.078      2.822
REMARK  9 active torsions:
REMARK  status: ('A' for Active; 'I' for Inactive)
REMARK    1  A    between atoms: N2_4  and  N3_6 
REMARK    2  A    between atoms: N4_9  and  N5_10 
REMARK    3  A    between atoms: C3_13  and  N6_14 
REMARK    4  A    between atoms: C6_21  and  S1_22 
REMARK    5  A    between atoms: S1_22  and  N8_23 
REMARK    6  A    between atoms: S1_22  and  S2_27 
REMARK    7  A    between atoms: S2_27  and  C7_28 
REMARK    8  A    between atoms: C7_28  and  C8_29 
REMARK    9  A    between atoms: C8_29  and  O3_33 
ROOT
HETATM    1  C1  UNL     1      18.782  34.733  20.954  1.00  0.00     0.176 C 
HETATM    2  N1  UNL     1      18.693  33.301  20.765  1.00  0.00    -0.180 N 
HETATM    3  C2  UNL     1      17.445  32.733  20.789  1.00  0.00     0.721 A 
HETATM    4  N2  UNL     1      16.466  33.539  20.998  1.00  0.00    -0.137 N 
ATOM      5  H2  UNL     1      16.660  34.531  21.133  1.00  0.00     0.205 HD
HETATM    6  N4  UNL     1      17.230  31.425  20.610  1.00  0.00    -0.072 N 
HETATM    7  C3  UNL     1      18.277  30.614  20.397  1.00  0.00     0.175 A 
HETATM    8  C4  UNL     1      19.530  31.177  20.374  1.00  0.00     0.152 A 
HETATM    9  O1  UNL     1      20.666  30.617  20.196  1.00  0.00    -0.288 OA
HETATM   10  C5  UNL     1      21.632  31.495  20.249  1.00  0.00     0.181 A 
HETATM   11  N7  UNL     1      23.043  31.211  20.090  1.00  0.00    -0.073 NA
HETATM   12  C6  UNL     1      21.145  32.773  20.482  1.00  0.00     0.127 A 
HETATM   13  C9  UNL     1      19.787  32.543  20.557  1.00  0.00     0.114 A 
ENDROOT
BRANCH  12  14
HETATM   14  S1  UNL     1      21.905  34.473  20.782  1.00  0.00     0.112 S 
HETATM   15  O2  UNL     1      21.485  34.768  18.707  1.00  0.00    -0.234 OA
BRANCH  14  16
HETATM   16  N8  UNL     1      23.349  34.088  21.440  1.00  0.00    -0.348 N 
ATOM     17  H82 UNL     1      24.074  33.479  21.062  1.00  0.00     0.166 HD
ATOM     18  H81 UNL     1      23.329  34.612  22.314  1.00  0.00     0.166 HD
ENDBRANCH  14  16
BRANCH  14  19
HETATM   19  S2  UNL     1      21.611  35.928  21.192  1.00  0.00    -0.045 SA
BRANCH  19  20
HETATM   20  C7  UNL     1      22.417  37.333  21.125  1.00  0.00     0.173 C 
BRANCH  20  21
HETATM   21  C8  UNL     1      21.939  38.270  20.077  1.00  0.00     0.119 C 
HETATM   22  N9  UNL     1      22.001  39.533  20.218  1.00  0.00    -0.383 N 
ATOM     23  H92 UNL     1      22.391  39.917  21.079  1.00  0.00     0.158 HD
ATOM     24  H91 UNL     1      21.674  40.176  19.498  1.00  0.00     0.158 HD
BRANCH  21  25
HETATM   25  O3  UNL     1      21.411  37.750  18.910  1.00  0.00    -0.349 OA
ATOM     26  H3  UNL     1      20.558  38.051  18.619  1.00  0.00     0.219 HD
ENDBRANCH  21  25
ENDBRANCH  20  21
ENDBRANCH  19  20
ENDBRANCH  14  19
ENDBRANCH  12  14
BRANCH   7  27
HETATM   27  N6  UNL     1      18.035  29.363  20.229  1.00  0.00    -0.381 N 
ATOM     28  H62 UNL     1      17.297  28.846  20.707  1.00  0.00     0.157 HD
ATOM     29  H61 UNL     1      18.624  28.854  19.570  1.00  0.00     0.157 HD
ENDBRANCH   7  27
BRANCH   4  30
HETATM   30  N3  UNL     1      15.157  33.098  21.046  1.00  0.00    -0.331 N 
ATOM     31  H32 UNL     1      14.495  33.484  20.372  1.00  0.00     0.177 HD
ATOM     32  H31 UNL     1      14.847  32.406  21.728  1.00  0.00     0.177 HD
ENDBRANCH   4  30
BRANCH   6  33
HETATM   33  N5  UNL     1      15.932  30.906  20.647  1.00  0.00    -0.322 N 
ATOM     34  H52 UNL     1      15.508  30.643  21.537  1.00  0.00     0.178 HD
ATOM     35  H51 UNL     1      15.396  30.787  19.788  1.00  0.00     0.178 HD
ENDBRANCH   6  33
TORSDOF 9
ENDMDL
MODEL 4
REMARK VINA RESULT: -5.736312584      2.577      4.164
REMARK  9 active torsions:
REMARK  status: ('A' for Active; 'I' for Inactive)
REMARK    1  A    between atoms: N2_4  and  N3_6 
REMARK    2  A    between atoms: N4_9  and  N5_10 
REMARK    3  A    between atoms: C3_13  and  N6_14 
REMARK    4  A    between atoms: C6_21  and  S1_22 
REMARK    5  A    between atoms: S1_22  and  N8_23 
REMARK    6  A    between atoms: S1_22  and  S2_27 
REMARK    7  A    between atoms: S2_27  and  C7_28 
REMARK    8  A    between atoms: C7_28  and  C8_29 
REMARK    9  A    between atoms: C8_29  and  O3_33 
ROOT
HETATM    1  C1  UNL     1      20.662  31.822  21.384  1.00  0.00     0.176 C 
HETATM    2  N1  UNL     1      19.304  32.188  21.047  1.00  0.00    -0.180 N 
HETATM    3  C2  UNL     1      18.332  31.231  21.189  1.00  0.00     0.721 A 
HETATM    4  N2  UNL     1      18.735  30.080  21.597  1.00  0.00    -0.137 N 
ATOM      5  H2  UNL     1      19.727  29.940  21.788  1.00  0.00     0.205 HD
HETATM    6  N4  UNL     1      17.039  31.451  20.926  1.00  0.00    -0.072 N 
HETATM    7  C3  UNL     1      16.657  32.664  20.499  1.00  0.00     0.175 A 
HETATM    8  C4  UNL     1      17.626  33.627  20.353  1.00  0.00     0.152 A 
HETATM    9  O1  UNL     1      17.510  34.839  19.962  1.00  0.00    -0.288 OA
HETATM   10  C5  UNL     1      18.670  35.439  19.951  1.00  0.00     0.181 A 
HETATM   11  N7  UNL     1      18.909  36.812  19.563  1.00  0.00    -0.073 NA
HETATM   12  C6  UNL     1      19.686  34.589  20.365  1.00  0.00     0.127 A 
HETATM   13  C9  UNL     1      18.987  33.426  20.621  1.00  0.00     0.114 A 
ENDROOT
BRANCH  12  14
HETATM   14  S1  UNL     1      21.563  34.696  20.504  1.00  0.00     0.112 S 
HETATM   15  O2  UNL     1      21.134  35.871  22.238  1.00  0.00    -0.234 OA
BRANCH  14  16
HETATM   16  N8  UNL     1      21.982  35.252  19.027  1.00  0.00    -0.348 N 
ATOM     17  H82 UNL     1      21.450  35.864  18.408  1.00  0.00     0.166 HD
ATOM     18  H81 UNL     1      22.900  34.830  18.895  1.00  0.00     0.166 HD
ENDBRANCH  14  16
BRANCH  14  19
HETATM   19  S2  UNL     1      22.822  34.032  21.094  1.00  0.00    -0.045 SA
BRANCH  19  20
HETATM   20  C7  UNL     1      24.222  33.475  20.497  1.00  0.00     0.173 C 
BRANCH  20  21
HETATM   21  C8  UNL     1      24.090  32.292  19.609  1.00  0.00     0.119 C 
HETATM   22  N9  UNL     1      24.909  31.319  19.652  1.00  0.00    -0.383 N 
ATOM     23  H92 UNL     1      25.683  31.351  20.315  1.00  0.00     0.158 HD
ATOM     24  H91 UNL     1      24.817  30.507  19.042  1.00  0.00     0.158 HD
BRANCH  21  25
HETATM   25  O3  UNL     1      23.041  32.249  18.711  1.00  0.00    -0.349 OA
ATOM     26  H3  UNL     1      22.746  31.404  18.392  1.00  0.00     0.219 HD
ENDBRANCH  21  25
ENDBRANCH  20  21
ENDBRANCH  19  20
ENDBRANCH  14  19
ENDBRANCH  12  14
BRANCH   7  27
HETATM   27  N6  UNL     1      15.408  32.841  20.256  1.00  0.00    -0.381 N 
ATOM     28  H62 UNL     1      14.791  32.139  19.848  1.00  0.00     0.157 HD
ATOM     29  H61 UNL     1      15.007  33.750  20.488  1.00  0.00     0.157 HD
ENDBRANCH   7  27
BRANCH   4  30
HETATM   30  N3  UNL     1      17.860  29.026  21.784  1.00  0.00    -0.331 N 
ATOM     31  H32 UNL     1      17.016  28.995  21.211  1.00  0.00     0.177 HD
ATOM     32  H31 UNL     1      18.039  28.294  22.470  1.00  0.00     0.177 HD
ENDBRANCH   4  30
BRANCH   6  33
HETATM   33  N5  UNL     1      16.097  30.431  21.089  1.00  0.00    -0.322 N 
ATOM     34  H52 UNL     1      16.376  29.528  21.472  1.00  0.00     0.178 HD
ATOM     35  H51 UNL     1      15.122  30.580  20.831  1.00  0.00     0.178 HD
ENDBRANCH   6  33
TORSDOF 9
ENDMDL
MODEL 5
REMARK VINA RESULT: -5.709087504      2.916      6.387
REMARK  9 active torsions:
REMARK  status: ('A' for Active; 'I' for Inactive)
REMARK    1  A    between atoms: N2_4  and  N3_6 
REMARK    2  A    between atoms: N4_9  and  N5_10 
REMARK    3  A    between atoms: C3_13  and  N6_14 
REMARK    4  A    between atoms: C6_21  and  S1_22 
REMARK    5  A    between atoms: S1_22  and  N8_23 
REMARK    6  A    between atoms: S1_22  and  S2_27 
REMARK    7  A    between atoms: S2_27  and  C7_28 
REMARK    8  A    between atoms: C7_28  and  C8_29 
REMARK    9  A    between atoms: C8_29  and  O3_33 
ROOT
HETATM    1  C1  UNL     1      19.333  34.460  23.684  1.00  0.00     0.176 C 
HETATM    2  N1  UNL     1      20.579  35.078  23.288  1.00  0.00    -0.180 N 
HETATM    3  C2  UNL     1      21.362  35.621  24.275  1.00  0.00     0.721 A 
HETATM    4  N2  UNL     1      20.895  35.540  25.469  1.00  0.00    -0.137 N 
ATOM      5  H2  UNL     1      19.991  35.091  25.619  1.00  0.00     0.205 HD
HETATM    6  N4  UNL     1      22.542  36.205  24.039  1.00  0.00    -0.072 N 
HETATM    7  C3  UNL     1      22.997  36.273  22.779  1.00  0.00     0.175 A 
HETATM    8  C4  UNL     1      22.216  35.733  21.785  1.00  0.00     0.152 A 
HETATM    9  O1  UNL     1      22.430  35.681  20.526  1.00  0.00    -0.288 OA
HETATM   10  C5  UNL     1      21.443  35.088  19.908  1.00  0.00     0.181 A 
HETATM   11  N7  UNL     1      21.354  34.858  18.482  1.00  0.00    -0.073 NA
HETATM   12  C6  UNL     1      20.455  34.690  20.797  1.00  0.00     0.127 A 
HETATM   13  C9  UNL     1      20.977  35.115  22.001  1.00  0.00     0.114 A 
ENDROOT
BRANCH  12  14
HETATM   14  S1  UNL     1      18.748  33.902  20.652  1.00  0.00     0.112 S 
HETATM   15  O2  UNL     1      19.850  32.071  20.648  1.00  0.00    -0.234 OA
BRANCH  14  16
HETATM   16  N8  UNL     1      18.129  34.671  19.351  1.00  0.00    -0.348 N 
ATOM     17  H82 UNL     1      18.344  34.520  18.365  1.00  0.00     0.166 HD
ATOM     18  H81 UNL     1      17.481  35.329  19.783  1.00  0.00     0.166 HD
ENDBRANCH  14  16
BRANCH  14  19
HETATM   19  S2  UNL     1      17.549  33.342  21.440  1.00  0.00    -0.045 SA
BRANCH  19  20
HETATM   20  C7  UNL     1      16.211  32.505  21.069  1.00  0.00     0.173 C 
BRANCH  20  21
HETATM   21  C8  UNL     1      16.453  31.095  20.673  1.00  0.00     0.119 C 
HETATM   22  N9  UNL     1      17.196  30.319  21.355  1.00  0.00    -0.383 N 
ATOM     23  H92 UNL     1      17.641  30.674  22.201  1.00  0.00     0.158 HD
ATOM     24  H91 UNL     1      17.362  29.350  21.083  1.00  0.00     0.158 HD
BRANCH  21  25
HETATM   25  O3  UNL     1      15.850  30.613  19.527  1.00  0.00    -0.349 OA
ATOM     26  H3  UNL     1      15.003  30.189  19.599  1.00  0.00     0.219 HD
ENDBRANCH  21  25
ENDBRANCH  20  21
ENDBRANCH  19  20
ENDBRANCH  14  19
ENDBRANCH  12  14
BRANCH   7  27
HETATM   27  N6  UNL     1      24.134  36.840  22.587  1.00  0.00    -0.381 N 
ATOM     28  H62 UNL     1      25.014  36.527  22.997  1.00  0.00     0.157 HD
ATOM     29  H61 UNL     1      24.155  37.662  21.983  1.00  0.00     0.157 HD
ENDBRANCH   7  27
BRANCH   4  30
HETATM   30  N3  UNL     1      21.582  36.045  26.557  1.00  0.00    -0.331 N 
ATOM     31  H32 UNL     1      21.453  37.030  26.792  1.00  0.00     0.177 HD
ATOM     32  H31 UNL     1      22.204  35.463  27.117  1.00  0.00     0.177 HD
ENDBRANCH   4  30
BRANCH   6  33
HETATM   33  N5  UNL     1      23.293  36.741  25.090  1.00  0.00    -0.322 N 
ATOM     34  H52 UNL     1      24.248  36.424  25.254  1.00  0.00     0.178 HD
ATOM     35  H51 UNL     1      22.896  37.455  25.699  1.00  0.00     0.178 HD
ENDBRANCH   6  33
TORSDOF 9
ENDMDL
