MODEL 1
REMARK VINA RESULT: -6.724365243      0.000      0.000
REMARK  5 active torsions:
REMARK  status: ('A' for Active; 'I' for Inactive)
REMARK    1  A    between atoms: C2_2  and  N1_3 
REMARK    2  A    between atoms: C2_2  and  C9_14 
REMARK    3  A    between atoms: N1_3  and  C3_5 
REMARK    4  A    between atoms: C3_5  and  C4_6 
REMARK       I    between atoms: C4_6  and  N2_8 
REMARK    5  A    between atoms: C9_14  and  C12_17 
ROOT
HETATM    1  N1  UNL     1      34.180  71.162  21.932  1.00  0.00    -0.409 N 
ATOM      2  H1  UNL     1      34.814  71.362  21.159  1.00  0.00     0.154 HD
ENDROOT
BRANCH   1   3
HETATM    3  C2  UNL     1      33.112  72.054  22.285  1.00  0.00     0.081 C 
HETATM    4  C1  UNL     1      32.691  71.923  23.718  1.00  0.00     0.032 C 
BRANCH   3   5
HETATM    5  C9  UNL     1      33.451  73.419  21.814  1.00  0.00    -0.021 C 
HETATM    6  C10 UNL     1      34.620  73.248  20.829  1.00  0.00     0.018 C 
HETATM    7  C11 UNL     1      34.001  74.291  22.923  1.00  0.00     0.018 C 
BRANCH   5   8
HETATM    8  C12 UNL     1      32.373  74.186  21.099  1.00  0.00    -0.043 C 
HETATM    9  C13 UNL     1      31.200  73.409  20.622  1.00  0.00     0.015 C 
HETATM   10  C14 UNL     1      32.922  74.934  19.896  1.00  0.00     0.015 C 
HETATM   11  C15 UNL     1      31.808  75.245  22.035  1.00  0.00     0.015 C 
ENDBRANCH   5   8
ENDBRANCH   3   5
ENDBRANCH   1   3
BRANCH   1  12
HETATM   12  C3  UNL     1      34.305  69.990  22.716  1.00  0.00     0.217 C 
BRANCH  12  13
HETATM   13  C4  UNL     1      35.517  69.247  22.287  1.00  0.00     0.237 C 
HETATM   14  O1  UNL     1      36.619  69.588  22.785  1.00  0.00    -0.272 OA
HETATM   15  N2  UNL     1      35.440  68.177  21.344  1.00  0.00    -0.347 N 
HETATM   16  C5  UNL     1      36.638  67.467  20.945  1.00  0.00     0.152 C 
HETATM   17  C8  UNL     1      34.193  67.754  20.750  1.00  0.00     0.152 C 
HETATM   18  C6  UNL     1      36.483  67.105  19.486  1.00  0.00     0.187 C 
HETATM   19  O2  UNL     1      35.400  66.309  19.221  1.00  0.00    -0.388 OA
HETATM   20  C7  UNL     1      34.336  66.428  20.079  1.00  0.00     0.187 C 
ENDBRANCH  12  13
ENDBRANCH   1  12
TORSDOF 5
ENDMDL
MODEL 2
REMARK VINA RESULT: -6.515969495      1.352      2.334
REMARK  5 active torsions:
REMARK  status: ('A' for Active; 'I' for Inactive)
REMARK    1  A    between atoms: C2_2  and  N1_3 
REMARK    2  A    between atoms: C2_2  and  C9_14 
REMARK    3  A    between atoms: N1_3  and  C3_5 
REMARK    4  A    between atoms: C3_5  and  C4_6 
REMARK       I    between atoms: C4_6  and  N2_8 
REMARK    5  A    between atoms: C9_14  and  C12_17 
ROOT
HETATM    1  N1  UNL     1      34.115  71.839  21.950  1.00  0.00    -0.409 N 
ATOM      2  H1  UNL     1      33.804  71.367  22.798  1.00  0.00     0.154 HD
ENDROOT
BRANCH   1   3
HETATM    3  C2  UNL     1      33.609  73.129  21.572  1.00  0.00     0.081 C 
HETATM    4  C1  UNL     1      33.575  73.331  20.088  1.00  0.00     0.032 C 
BRANCH   3   5
HETATM    5  C9  UNL     1      32.344  73.381  22.306  1.00  0.00    -0.021 C 
HETATM    6  C10 UNL     1      32.027  72.079  23.061  1.00  0.00     0.018 C 
HETATM    7  C11 UNL     1      31.169  73.588  21.375  1.00  0.00     0.018 C 
BRANCH   5   8
HETATM    8  C12 UNL     1      32.349  74.495  23.318  1.00  0.00    -0.043 C 
HETATM    9  C13 UNL     1      31.063  75.202  23.543  1.00  0.00     0.015 C 
HETATM   10  C14 UNL     1      33.380  75.556  22.978  1.00  0.00     0.015 C 
HETATM   11  C15 UNL     1      32.749  73.934  24.675  1.00  0.00     0.015 C 
ENDBRANCH   5   8
ENDBRANCH   3   5
ENDBRANCH   1   3
BRANCH   1  12
HETATM   12  C3  UNL     1      35.069  71.260  21.080  1.00  0.00     0.217 C 
BRANCH  12  13
HETATM   13  C4  UNL     1      35.586  70.009  21.691  1.00  0.00     0.237 C 
HETATM   14  O1  UNL     1      35.713  69.978  22.941  1.00  0.00    -0.272 OA
HETATM   15  N2  UNL     1      35.927  68.875  20.892  1.00  0.00    -0.347 N 
HETATM   16  C5  UNL     1      36.428  67.667  21.513  1.00  0.00     0.152 C 
HETATM   17  C8  UNL     1      35.795  68.872  19.453  1.00  0.00     0.152 C 
HETATM   18  C6  UNL     1      37.452  67.069  20.578  1.00  0.00     0.187 C 
HETATM   19  O2  UNL     1      36.957  66.746  19.341  1.00  0.00    -0.388 OA
HETATM   20  C7  UNL     1      35.888  67.486  18.905  1.00  0.00     0.187 C 
ENDBRANCH  12  13
ENDBRANCH   1  12
TORSDOF 5
ENDMDL
MODEL 3
REMARK VINA RESULT: -6.495888859      1.290      1.713
REMARK  5 active torsions:
REMARK  status: ('A' for Active; 'I' for Inactive)
REMARK    1  A    between atoms: C2_2  and  N1_3 
REMARK    2  A    between atoms: C2_2  and  C9_14 
REMARK    3  A    between atoms: N1_3  and  C3_5 
REMARK    4  A    between atoms: C3_5  and  C4_6 
REMARK       I    between atoms: C4_6  and  N2_8 
REMARK    5  A    between atoms: C9_14  and  C12_17 
ROOT
HETATM    1  N1  UNL     1      34.002  71.963  22.231  1.00  0.00    -0.409 N 
ATOM      2  H1  UNL     1      34.877  72.443  22.439  1.00  0.00     0.154 HD
ENDROOT
BRANCH   1   3
HETATM    3  C2  UNL     1      32.735  72.474  22.674  1.00  0.00     0.081 C 
HETATM    4  C1  UNL     1      31.922  71.456  23.416  1.00  0.00     0.032 C 
BRANCH   3   5
HETATM    5  C9  UNL     1      32.952  73.774  23.353  1.00  0.00    -0.021 C 
HETATM    6  C10 UNL     1      34.415  74.158  23.072  1.00  0.00     0.018 C 
HETATM    7  C11 UNL     1      32.863  73.659  24.860  1.00  0.00     0.018 C 
BRANCH   5   8
HETATM    8  C12 UNL     1      32.095  74.930  22.914  1.00  0.00    -0.043 C 
HETATM    9  C13 UNL     1      30.989  75.328  23.821  1.00  0.00     0.015 C 
HETATM   10  C14 UNL     1      31.477  74.681  21.550  1.00  0.00     0.015 C 
HETATM   11  C15 UNL     1      32.967  76.169  22.765  1.00  0.00     0.015 C 
ENDBRANCH   5   8
ENDBRANCH   3   5
ENDBRANCH   1   3
BRANCH   1  12
HETATM   12  C3  UNL     1      33.969  70.758  21.491  1.00  0.00     0.217 C 
BRANCH  12  13
HETATM   13  C4  UNL     1      35.036  69.853  21.990  1.00  0.00     0.237 C 
HETATM   14  O1  UNL     1      35.504  70.076  23.135  1.00  0.00    -0.272 OA
HETATM   15  N2  UNL     1      35.516  68.762  21.203  1.00  0.00    -0.347 N 
HETATM   16  C5  UNL     1      36.557  67.894  21.714  1.00  0.00     0.152 C 
HETATM   17  C8  UNL     1      35.004  68.473  19.883  1.00  0.00     0.152 C 
HETATM   18  C6  UNL     1      37.426  67.493  20.546  1.00  0.00     0.187 C 
HETATM   19  O2  UNL     1      36.755  66.827  19.554  1.00  0.00    -0.388 OA
HETATM   20  C7  UNL     1      35.419  67.112  19.429  1.00  0.00     0.187 C 
ENDBRANCH  12  13
ENDBRANCH   1  12
TORSDOF 5
ENDMDL
MODEL 4
REMARK VINA RESULT: -6.482850442      1.156      2.050
REMARK  5 active torsions:
REMARK  status: ('A' for Active; 'I' for Inactive)
REMARK    1  A    between atoms: C2_2  and  N1_3 
REMARK    2  A    between atoms: C2_2  and  C9_14 
REMARK    3  A    between atoms: N1_3  and  C3_5 
REMARK    4  A    between atoms: C3_5  and  C4_6 
REMARK       I    between atoms: C4_6  and  N2_8 
REMARK    5  A    between atoms: C9_14  and  C12_17 
ROOT
HETATM    1  N1  UNL     1      33.930  71.774  22.379  1.00  0.00    -0.409 N 
ATOM      2  H1  UNL     1      33.942  71.606  23.385  1.00  0.00     0.154 HD
ENDROOT
BRANCH   1   3
HETATM    3  C2  UNL     1      33.725  73.086  21.834  1.00  0.00     0.081 C 
HETATM    4  C1  UNL     1      34.010  73.159  20.364  1.00  0.00     0.032 C 
BRANCH   3   5
HETATM    5  C9  UNL     1      32.403  73.591  22.280  1.00  0.00    -0.021 C 
HETATM    6  C10 UNL     1      32.157  72.964  23.663  1.00  0.00     0.018 C 
HETATM    7  C11 UNL     1      31.270  73.081  21.414  1.00  0.00     0.018 C 
BRANCH   5   8
HETATM    8  C12 UNL     1      32.251  75.080  22.431  1.00  0.00    -0.043 C 
HETATM    9  C13 UNL     1      31.853  75.840  21.219  1.00  0.00     0.015 C 
HETATM   10  C14 UNL     1      33.525  75.721  22.952  1.00  0.00     0.015 C 
HETATM   11  C15 UNL     1      31.175  75.370  23.467  1.00  0.00     0.015 C 
ENDBRANCH   5   8
ENDBRANCH   3   5
ENDBRANCH   1   3
BRANCH   1  12
HETATM   12  C3  UNL     1      34.113  70.728  21.445  1.00  0.00     0.217 C 
BRANCH  12  13
HETATM   13  C4  UNL     1      35.154  69.799  21.954  1.00  0.00     0.237 C 
HETATM   14  O1  UNL     1      35.607  70.005  23.109  1.00  0.00    -0.272 OA
HETATM   15  N2  UNL     1      35.628  68.706  21.166  1.00  0.00    -0.347 N 
HETATM   16  C5  UNL     1      36.644  67.815  21.688  1.00  0.00     0.152 C 
HETATM   17  C8  UNL     1      35.133  68.437  19.836  1.00  0.00     0.152 C 
HETATM   18  C6  UNL     1      37.525  67.408  20.531  1.00  0.00     0.187 C 
HETATM   19  O2  UNL     1      36.859  66.762  19.522  1.00  0.00    -0.388 OA
HETATM   20  C7  UNL     1      35.531  67.072  19.378  1.00  0.00     0.187 C 
ENDBRANCH  12  13
ENDBRANCH   1  12
TORSDOF 5
ENDMDL
MODEL 5
REMARK VINA RESULT: -6.250394959      2.369      2.967
REMARK  5 active torsions:
REMARK  status: ('A' for Active; 'I' for Inactive)
REMARK    1  A    between atoms: C2_2  and  N1_3 
REMARK    2  A    between atoms: C2_2  and  C9_14 
REMARK    3  A    between atoms: N1_3  and  C3_5 
REMARK    4  A    between atoms: C3_5  and  C4_6 
REMARK       I    between atoms: C4_6  and  N2_8 
REMARK    5  A    between atoms: C9_14  and  C12_17 
ROOT
HETATM    1  N1  UNL     1      33.915  72.221  22.090  1.00  0.00    -0.409 N 
ATOM      2  H1  UNL     1      34.729  72.833  22.045  1.00  0.00     0.154 HD
ENDROOT
BRANCH   1   3
HETATM    3  C2  UNL     1      32.661  72.668  22.627  1.00  0.00     0.081 C 
HETATM    4  C1  UNL     1      31.918  71.587  23.352  1.00  0.00     0.032 C 
BRANCH   3   5
HETATM    5  C9  UNL     1      32.880  73.935  23.368  1.00  0.00    -0.021 C 
HETATM    6  C10 UNL     1      34.353  74.311  23.134  1.00  0.00     0.018 C 
HETATM    7  C11 UNL     1      32.756  73.756  24.866  1.00  0.00     0.018 C 
BRANCH   5   8
HETATM    8  C12 UNL     1      32.047  75.120  22.961  1.00  0.00    -0.043 C 
HETATM    9  C13 UNL     1      30.941  75.507  23.873  1.00  0.00     0.015 C 
HETATM   10  C14 UNL     1      31.436  74.929  21.585  1.00  0.00     0.015 C 
HETATM   11  C15 UNL     1      32.942  76.348  22.861  1.00  0.00     0.015 C 
ENDBRANCH   5   8
ENDBRANCH   3   5
ENDBRANCH   1   3
BRANCH   1  12
HETATM   12  C3  UNL     1      33.959  70.886  21.626  1.00  0.00     0.217 C 
BRANCH  12  13
HETATM   13  C4  UNL     1      35.367  70.414  21.638  1.00  0.00     0.237 C 
HETATM   14  O1  UNL     1      35.776  69.821  22.668  1.00  0.00    -0.272 OA
HETATM   15  N2  UNL     1      36.232  70.619  20.520  1.00  0.00    -0.347 N 
HETATM   16  C5  UNL     1      37.601  70.147  20.558  1.00  0.00     0.152 C 
HETATM   17  C8  UNL     1      35.800  71.295  19.318  1.00  0.00     0.152 C 
HETATM   18  C6  UNL     1      38.446  71.150  19.809  1.00  0.00     0.187 C 
HETATM   19  O2  UNL     1      38.082  71.318  18.498  1.00  0.00    -0.388 OA
HETATM   20  C7  UNL     1      36.765  71.079  18.200  1.00  0.00     0.187 C 
ENDBRANCH  12  13
ENDBRANCH   1  12
TORSDOF 5
ENDMDL
