MODEL 1
REMARK VINA RESULT: -6.314044492      0.000      0.000
REMARK  6 active torsions:
REMARK  status: ('A' for Active; 'I' for Inactive)
REMARK    1  A    between atoms: C2_2  and  C3_3 
REMARK    2  A    between atoms: C3_3  and  C4_4 
REMARK    3  A    between atoms: C4_4  and  C5_5 
REMARK    4  A    between atoms: C5_5  and  N1_6 
REMARK    5  A    between atoms: N1_6  and  C6_8 
REMARK    6  A    between atoms: C6_8  and  N2_10 
ROOT
HETATM    1  N2  UNL     1      32.675  74.554  23.691  1.00  0.00    -0.353 N 
HETATM    2  C7  UNL     1      32.481  73.817  24.917  1.00  0.00     0.131 C 
HETATM    3  C8  UNL     1      33.590  72.838  25.185  1.00  0.00     0.078 C 
HETATM    4  C9  UNL     1      33.604  71.881  24.009  1.00  0.00     0.025 A 
HETATM    5  N3  UNL     1      33.648  70.591  24.039  1.00  0.00    -0.362 N 
ATOM      6  H3  UNL     1      33.676  70.103  24.934  1.00  0.00     0.165 HD
HETATM    7  C10 UNL     1      33.655  69.901  22.908  1.00  0.00     0.138 A 
HETATM    8  S2  UNL     1      33.596  71.137  21.731  1.00  0.00    -0.086 SA
HETATM    9  C11 UNL     1      33.566  72.490  22.775  1.00  0.00     0.024 A 
HETATM   10  C12 UNL     1      33.512  73.990  22.644  1.00  0.00     0.173 C 
ENDROOT
BRANCH   1  11
HETATM   11  C6  UNL     1      32.081  75.815  23.451  1.00  0.00     0.170 C 
HETATM   12  S1  UNL     1      30.708  76.273  24.203  1.00  0.00    -0.041 SA
BRANCH  11  13
HETATM   13  N1  UNL     1      32.661  76.734  22.542  1.00  0.00    -0.367 N 
ATOM     14  H1  UNL     1      33.602  76.555  22.193  1.00  0.00     0.161 HD
BRANCH  13  15
HETATM   15  C5  UNL     1      31.956  77.927  22.090  1.00  0.00     0.122 C 
BRANCH  15  16
HETATM   16  C4  UNL     1      31.706  77.803  20.608  1.00  0.00     0.020 C 
BRANCH  16  17
HETATM   17  C3  UNL     1      32.060  76.455  20.066  1.00  0.00     0.001 C 
BRANCH  17  18
HETATM   18  C2  UNL     1      31.320  76.276  18.753  1.00  0.00    -0.004 C 
HETATM   19  C1  UNL     1      30.990  77.618  18.126  1.00  0.00     0.005 C 
ENDBRANCH  17  18
ENDBRANCH  16  17
ENDBRANCH  15  16
ENDBRANCH  13  15
ENDBRANCH  11  13
ENDBRANCH   1  11
TORSDOF 6
ENDMDL
MODEL 2
REMARK VINA RESULT: -6.200706195      2.295      3.036
REMARK  6 active torsions:
REMARK  status: ('A' for Active; 'I' for Inactive)
REMARK    1  A    between atoms: C2_2  and  C3_3 
REMARK    2  A    between atoms: C3_3  and  C4_4 
REMARK    3  A    between atoms: C4_4  and  C5_5 
REMARK    4  A    between atoms: C5_5  and  N1_6 
REMARK    5  A    between atoms: N1_6  and  C6_8 
REMARK    6  A    between atoms: C6_8  and  N2_10 
ROOT
HETATM    1  N2  UNL     1      33.576  72.689  22.331  1.00  0.00    -0.353 N 
HETATM    2  C7  UNL     1      32.937  72.088  23.477  1.00  0.00     0.131 C 
HETATM    3  C8  UNL     1      33.735  70.954  24.055  1.00  0.00     0.078 C 
HETATM    4  C9  UNL     1      33.875  69.926  22.948  1.00  0.00     0.025 A 
HETATM    5  N3  UNL     1      33.667  68.653  23.019  1.00  0.00    -0.362 N 
ATOM      6  H3  UNL     1      33.371  68.234  23.900  1.00  0.00     0.165 HD
HETATM    7  C10 UNL     1      33.839  67.893  21.949  1.00  0.00     0.138 A 
HETATM    8  S2  UNL     1      34.319  69.032  20.770  1.00  0.00    -0.086 SA
HETATM    9  C11 UNL     1      34.272  70.442  21.736  1.00  0.00     0.024 A 
HETATM   10  C12 UNL     1      34.536  71.914  21.560  1.00  0.00     0.173 C 
ENDROOT
BRANCH   1  11
HETATM   11  C6  UNL     1      33.311  74.014  21.910  1.00  0.00     0.170 C 
HETATM   12  S1  UNL     1      32.896  74.358  20.371  1.00  0.00    -0.041 SA
BRANCH  11  13
HETATM   13  N1  UNL     1      33.396  75.099  22.817  1.00  0.00    -0.367 N 
ATOM     14  H1  UNL     1      34.289  75.292  23.272  1.00  0.00     0.161 HD
BRANCH  13  15
HETATM   15  C5  UNL     1      32.252  75.949  23.121  1.00  0.00     0.122 C 
BRANCH  15  16
HETATM   16  C4  UNL     1      32.671  77.389  22.966  1.00  0.00     0.020 C 
BRANCH  16  17
HETATM   17  C3  UNL     1      31.816  78.146  22.002  1.00  0.00     0.001 C 
BRANCH  17  18
HETATM   18  C2  UNL     1      31.049  79.195  22.788  1.00  0.00    -0.004 C 
HETATM   19  C1  UNL     1      31.777  80.526  22.772  1.00  0.00     0.005 C 
ENDBRANCH  17  18
ENDBRANCH  16  17
ENDBRANCH  15  16
ENDBRANCH  13  15
ENDBRANCH  11  13
ENDBRANCH   1  11
TORSDOF 6
ENDMDL
MODEL 3
REMARK VINA RESULT: -6.156285483      2.502      3.628
REMARK  6 active torsions:
REMARK  status: ('A' for Active; 'I' for Inactive)
REMARK    1  A    between atoms: C2_2  and  C3_3 
REMARK    2  A    between atoms: C3_3  and  C4_4 
REMARK    3  A    between atoms: C4_4  and  C5_5 
REMARK    4  A    between atoms: C5_5  and  N1_6 
REMARK    5  A    between atoms: N1_6  and  C6_8 
REMARK    6  A    between atoms: C6_8  and  N2_10 
ROOT
HETATM    1  N2  UNL     1      33.897  72.991  22.233  1.00  0.00    -0.353 N 
HETATM    2  C7  UNL     1      34.470  73.387  20.969  1.00  0.00     0.131 C 
HETATM    3  C8  UNL     1      34.370  72.309  19.926  1.00  0.00     0.078 C 
HETATM    4  C9  UNL     1      35.123  71.115  20.478  1.00  0.00     0.025 A 
HETATM    5  N3  UNL     1      36.008  70.390  19.877  1.00  0.00    -0.362 N 
ATOM      6  H3  UNL     1      36.271  70.602  18.914  1.00  0.00     0.165 HD
HETATM    7  C10 UNL     1      36.572  69.373  20.509  1.00  0.00     0.138 A 
HETATM    8  S2  UNL     1      35.818  69.436  22.040  1.00  0.00    -0.086 SA
HETATM    9  C11 UNL     1      34.805  70.787  21.776  1.00  0.00     0.024 A 
HETATM   10  C12 UNL     1      33.786  71.576  22.555  1.00  0.00     0.173 C 
ENDROOT
BRANCH   1  11
HETATM   11  C6  UNL     1      33.434  73.922  23.192  1.00  0.00     0.170 C 
HETATM   12  S1  UNL     1      32.937  73.452  24.673  1.00  0.00    -0.041 SA
BRANCH  11  13
HETATM   13  N1  UNL     1      33.383  75.307  22.901  1.00  0.00    -0.367 N 
ATOM     14  H1  UNL     1      34.223  75.769  22.551  1.00  0.00     0.161 HD
BRANCH  13  15
HETATM   15  C5  UNL     1      32.170  76.095  23.083  1.00  0.00     0.122 C 
BRANCH  15  16
HETATM   16  C4  UNL     1      32.532  77.556  23.002  1.00  0.00     0.020 C 
BRANCH  16  17
HETATM   17  C3  UNL     1      31.751  78.296  21.964  1.00  0.00     0.001 C 
BRANCH  17  18
HETATM   18  C2  UNL     1      30.919  79.349  22.674  1.00  0.00    -0.004 C 
HETATM   19  C1  UNL     1      31.756  80.570  23.007  1.00  0.00     0.005 C 
ENDBRANCH  17  18
ENDBRANCH  16  17
ENDBRANCH  15  16
ENDBRANCH  13  15
ENDBRANCH  11  13
ENDBRANCH   1  11
TORSDOF 6
ENDMDL
MODEL 4
REMARK VINA RESULT: -6.113370570      1.183      2.205
REMARK  6 active torsions:
REMARK  status: ('A' for Active; 'I' for Inactive)
REMARK    1  A    between atoms: C2_2  and  C3_3 
REMARK    2  A    between atoms: C3_3  and  C4_4 
REMARK    3  A    between atoms: C4_4  and  C5_5 
REMARK    4  A    between atoms: C5_5  and  N1_6 
REMARK    5  A    between atoms: N1_6  and  C6_8 
REMARK    6  A    between atoms: C6_8  and  N2_10 
ROOT
HETATM    1  N2  UNL     1      32.725  74.419  23.711  1.00  0.00    -0.353 N 
HETATM    2  C7  UNL     1      32.556  73.699  24.950  1.00  0.00     0.131 C 
HETATM    3  C8  UNL     1      33.663  72.715  25.204  1.00  0.00     0.078 C 
HETATM    4  C9  UNL     1      33.642  71.744  24.040  1.00  0.00     0.025 A 
HETATM    5  N3  UNL     1      33.677  70.453  24.085  1.00  0.00    -0.362 N 
ATOM      6  H3  UNL     1      33.723  69.977  24.985  1.00  0.00     0.165 HD
HETATM    7  C10 UNL     1      33.652  69.749  22.964  1.00  0.00     0.138 A 
HETATM    8  S2  UNL     1      33.575  70.971  21.773  1.00  0.00    -0.086 SA
HETATM    9  C11 UNL     1      33.579  72.337  22.800  1.00  0.00     0.024 A 
HETATM   10  C12 UNL     1      33.534  73.835  22.651  1.00  0.00     0.173 C 
ENDROOT
BRANCH   1  11
HETATM   11  C6  UNL     1      32.136  75.682  23.469  1.00  0.00     0.170 C 
HETATM   12  S1  UNL     1      30.767  76.148  24.225  1.00  0.00    -0.041 SA
BRANCH  11  13
HETATM   13  N1  UNL     1      32.715  76.596  22.554  1.00  0.00    -0.367 N 
ATOM     14  H1  UNL     1      33.646  76.964  22.749  1.00  0.00     0.161 HD
BRANCH  13  15
HETATM   15  C5  UNL     1      32.024  77.027  21.346  1.00  0.00     0.122 C 
BRANCH  15  16
HETATM   16  C4  UNL     1      31.735  78.502  21.460  1.00  0.00     0.020 C 
BRANCH  16  17
HETATM   17  C3  UNL     1      32.430  79.147  22.616  1.00  0.00     0.001 C 
BRANCH  17  18
HETATM   18  C2  UNL     1      31.607  80.352  23.037  1.00  0.00    -0.004 C 
HETATM   19  C1  UNL     1      30.127  80.018  23.062  1.00  0.00     0.005 C 
ENDBRANCH  17  18
ENDBRANCH  16  17
ENDBRANCH  15  16
ENDBRANCH  13  15
ENDBRANCH  11  13
ENDBRANCH   1  11
TORSDOF 6
ENDMDL
MODEL 5
REMARK VINA RESULT: -5.991719531      2.319      3.049
REMARK  6 active torsions:
REMARK  status: ('A' for Active; 'I' for Inactive)
REMARK    1  A    between atoms: C2_2  and  C3_3 
REMARK    2  A    between atoms: C3_3  and  C4_4 
REMARK    3  A    between atoms: C4_4  and  C5_5 
REMARK    4  A    between atoms: C5_5  and  N1_6 
REMARK    5  A    between atoms: N1_6  and  C6_8 
REMARK    6  A    between atoms: C6_8  and  N2_10 
ROOT
HETATM    1  N2  UNL     1      33.529  72.900  22.374  1.00  0.00    -0.353 N 
HETATM    2  C7  UNL     1      34.372  73.537  21.390  1.00  0.00     0.131 C 
HETATM    3  C8  UNL     1      34.619  72.666  20.190  1.00  0.00     0.078 C 
HETATM    4  C9  UNL     1      35.296  71.412  20.709  1.00  0.00     0.025 A 
HETATM    5  N3  UNL     1      36.355  70.834  20.247  1.00  0.00    -0.362 N 
ATOM      6  H3  UNL     1      36.836  71.226  19.438  1.00  0.00     0.165 HD
HETATM    7  C10 UNL     1      36.815  69.735  20.823  1.00  0.00     0.138 A 
HETATM    8  S2  UNL     1      35.696  69.496  22.091  1.00  0.00    -0.086 SA
HETATM    9  C11 UNL     1      34.684  70.843  21.803  1.00  0.00     0.024 A 
HETATM   10  C12 UNL     1      33.446  71.448  22.410  1.00  0.00     0.173 C 
ENDROOT
BRANCH   1  11
HETATM   11  C6  UNL     1      32.770  73.627  23.321  1.00  0.00     0.170 C 
HETATM   12  S1  UNL     1      32.985  73.428  24.926  1.00  0.00    -0.041 SA
BRANCH  11  13
HETATM   13  N1  UNL     1      31.788  74.561  22.909  1.00  0.00    -0.367 N 
ATOM     14  H1  UNL     1      31.107  74.280  22.203  1.00  0.00     0.161 HD
BRANCH  13  15
HETATM   15  C5  UNL     1      31.718  75.908  23.460  1.00  0.00     0.122 C 
BRANCH  15  16
HETATM   16  C4  UNL     1      32.356  76.859  22.480  1.00  0.00     0.020 C 
BRANCH  16  17
HETATM   17  C3  UNL     1      32.106  76.486  21.055  1.00  0.00     0.001 C 
BRANCH  17  18
HETATM   18  C2  UNL     1      31.775  77.759  20.295  1.00  0.00    -0.004 C 
HETATM   19  C1  UNL     1      31.264  77.442  18.901  1.00  0.00     0.005 C 
ENDBRANCH  17  18
ENDBRANCH  16  17
ENDBRANCH  15  16
ENDBRANCH  13  15
ENDBRANCH  11  13
ENDBRANCH   1  11
TORSDOF 6
ENDMDL
