MODEL 1
REMARK VINA RESULT: -6.448019180      0.000      0.000
REMARK  6 active torsions:
REMARK  status: ('A' for Active; 'I' for Inactive)
REMARK    1  A    between atoms: N1_2  and  C3_4 
REMARK    2  A    between atoms: C3_4  and  N2_5 
REMARK    3  A    between atoms: C3_4  and  C10_15 
REMARK    4  A    between atoms: N2_5  and  C4_7 
REMARK    5  A    between atoms: C4_7  and  C5_9 
REMARK    6  A    between atoms: C5_9  and  C6_10 
ROOT
HETATM    1  C3  UNL     1      32.150  74.790  20.849  1.00  0.00     0.094 C 
ENDROOT
BRANCH   1   2
HETATM    2  N1  UNL     1      32.897  73.627  20.469  1.00  0.00    -0.277 NA
HETATM    3  C1  UNL     1      34.258  73.543  20.830  1.00  0.00     0.118 C 
HETATM    4  C2  UNL     1      32.252  72.380  20.891  1.00  0.00     0.118 C 
ENDBRANCH   1   2
BRANCH   1   5
HETATM    5  N2  UNL     1      32.536  75.407  22.071  1.00  0.00    -0.340 N 
ATOM      6  H2  UNL     1      33.351  76.015  21.995  1.00  0.00     0.167 HD
BRANCH   5   7
HETATM    7  C4  UNL     1      31.997  75.328  23.354  1.00  0.00     0.084 C 
HETATM    8  S1  UNL     1      32.454  74.077  24.333  1.00  0.00    -0.065 SA
BRANCH   7   9
HETATM    9  C5  UNL     1      31.040  76.275  23.922  1.00  0.00     0.134 C 
BRANCH   9  10
HETATM   10  C6  UNL     1      31.294  77.678  23.469  1.00  0.00     0.059 A 
HETATM   11  C7  UNL     1      30.412  78.680  23.174  1.00  0.00     0.035 A 
HETATM   12  C8  UNL     1      31.158  79.798  22.800  1.00  0.00     0.027 A 
HETATM   13  C9  UNL     1      32.470  79.390  22.895  1.00  0.00     0.142 A 
HETATM   14  O1  UNL     1      32.498  78.160  23.285  1.00  0.00    -0.327 OA
ENDBRANCH   9  10
ENDBRANCH   7   9
ENDBRANCH   5   7
ENDBRANCH   1   5
BRANCH   1  15
HETATM   15  C10 UNL     1      31.733  75.676  19.753  1.00  0.00     0.018 A 
HETATM   16  C11 UNL     1      31.705  77.070  19.924  1.00  0.00     0.017 A 
HETATM   17  C12 UNL     1      31.283  77.904  18.914  1.00  0.00     0.018 A 
HETATM   18  C13 UNL     1      30.874  77.397  17.701  1.00  0.00     0.087 A 
HETATM   19  N3  UNL     1      30.904  76.067  17.545  1.00  0.00    -0.374 N 
HETATM   20  C14 UNL     1      31.319  75.216  18.535  1.00  0.00     0.102 A 
ATOM     21  H3  UNL     1      30.607  75.672  16.652  1.00  0.00     0.164 HD
ENDBRANCH   1  15
TORSDOF 6
ENDMDL
MODEL 2
REMARK VINA RESULT: -6.252249764      1.167      1.266
REMARK  6 active torsions:
REMARK  status: ('A' for Active; 'I' for Inactive)
REMARK    1  A    between atoms: N1_2  and  C3_4 
REMARK    2  A    between atoms: C3_4  and  N2_5 
REMARK    3  A    between atoms: C3_4  and  C10_15 
REMARK    4  A    between atoms: N2_5  and  C4_7 
REMARK    5  A    between atoms: C4_7  and  C5_9 
REMARK    6  A    between atoms: C5_9  and  C6_10 
ROOT
HETATM    1  C3  UNL     1      31.785  75.041  20.135  1.00  0.00     0.094 C 
ENDROOT
BRANCH   1   2
HETATM    2  N1  UNL     1      32.035  73.644  19.928  1.00  0.00    -0.277 NA
HETATM    3  C1  UNL     1      33.306  73.125  20.245  1.00  0.00     0.118 C 
HETATM    4  C2  UNL     1      31.036  72.791  20.581  1.00  0.00     0.118 C 
ENDBRANCH   1   2
BRANCH   1   5
HETATM    5  N2  UNL     1      32.652  75.701  21.049  1.00  0.00    -0.340 N 
ATOM      6  H2  UNL     1      33.568  75.931  20.666  1.00  0.00     0.167 HD
BRANCH   5   7
HETATM    7  C4  UNL     1      32.470  76.089  22.375  1.00  0.00     0.084 C 
HETATM    8  S1  UNL     1      31.458  75.200  23.333  1.00  0.00    -0.065 SA
BRANCH   7   9
HETATM    9  C5  UNL     1      33.111  77.241  23.007  1.00  0.00     0.134 C 
BRANCH   9  10
HETATM   10  C6  UNL     1      32.282  78.481  22.898  1.00  0.00     0.059 A 
HETATM   11  C7  UNL     1      31.058  78.672  22.318  1.00  0.00     0.035 A 
HETATM   12  C8  UNL     1      30.719  80.014  22.488  1.00  0.00     0.027 A 
HETATM   13  C9  UNL     1      31.782  80.559  23.174  1.00  0.00     0.142 A 
HETATM   14  O1  UNL     1      32.659  79.636  23.388  1.00  0.00    -0.327 OA
ENDBRANCH   9  10
ENDBRANCH   7   9
ENDBRANCH   5   7
ENDBRANCH   1   5
BRANCH   1  15
HETATM   15  C10 UNL     1      31.352  75.800  18.954  1.00  0.00     0.018 A 
HETATM   16  C11 UNL     1      31.283  77.203  18.984  1.00  0.00     0.017 A 
HETATM   17  C12 UNL     1      30.846  77.919  17.893  1.00  0.00     0.018 A 
HETATM   18  C13 UNL     1      30.461  77.282  16.735  1.00  0.00     0.087 A 
HETATM   19  N3  UNL     1      30.529  75.944  16.713  1.00  0.00    -0.374 N 
HETATM   20  C14 UNL     1      30.960  75.208  17.786  1.00  0.00     0.102 A 
ATOM     21  H3  UNL     1      30.250  75.453  15.863  1.00  0.00     0.164 HD
ENDBRANCH   1  15
TORSDOF 6
ENDMDL
MODEL 3
REMARK VINA RESULT: -6.039607932      2.084      4.455
REMARK  6 active torsions:
REMARK  status: ('A' for Active; 'I' for Inactive)
REMARK    1  A    between atoms: N1_2  and  C3_4 
REMARK    2  A    between atoms: C3_4  and  N2_5 
REMARK    3  A    between atoms: C3_4  and  C10_15 
REMARK    4  A    between atoms: N2_5  and  C4_7 
REMARK    5  A    between atoms: C4_7  and  C5_9 
REMARK    6  A    between atoms: C5_9  and  C6_10 
ROOT
HETATM    1  C3  UNL     1      32.373  73.689  21.683  1.00  0.00     0.094 C 
ENDROOT
BRANCH   1   2
HETATM    2  N1  UNL     1      32.185  73.653  20.263  1.00  0.00    -0.277 NA
HETATM    3  C1  UNL     1      31.029  73.034  19.744  1.00  0.00     0.118 C 
HETATM    4  C2  UNL     1      32.288  74.980  19.647  1.00  0.00     0.118 C 
ENDBRANCH   1   2
BRANCH   1   5
HETATM    5  N2  UNL     1      31.494  74.540  22.408  1.00  0.00    -0.340 N 
ATOM      6  H2  UNL     1      30.519  74.242  22.396  1.00  0.00     0.167 HD
BRANCH   5   7
HETATM    7  C4  UNL     1      31.729  75.708  23.130  1.00  0.00     0.084 C 
HETATM    8  S1  UNL     1      30.693  76.107  24.354  1.00  0.00    -0.065 SA
BRANCH   7   9
HETATM    9  C5  UNL     1      32.838  76.631  22.895  1.00  0.00     0.134 C 
BRANCH   9  10
HETATM   10  C6  UNL     1      32.373  78.042  22.722  1.00  0.00     0.059 A 
HETATM   11  C7  UNL     1      31.526  78.580  21.793  1.00  0.00     0.035 A 
HETATM   12  C8  UNL     1      31.417  79.944  22.066  1.00  0.00     0.027 A 
HETATM   13  C9  UNL     1      32.222  80.145  23.164  1.00  0.00     0.142 A 
HETATM   14  O1  UNL     1      32.752  79.019  23.507  1.00  0.00    -0.327 OA
ENDBRANCH   9  10
ENDBRANCH   7   9
ENDBRANCH   5   7
ENDBRANCH   1   5
BRANCH   1  15
HETATM   15  C10 UNL     1      32.748  72.417  22.316  1.00  0.00     0.018 A 
HETATM   16  C11 UNL     1      33.885  71.708  21.892  1.00  0.00     0.017 A 
HETATM   17  C12 UNL     1      34.224  70.499  22.457  1.00  0.00     0.018 A 
HETATM   18  C13 UNL     1      33.457  69.944  23.455  1.00  0.00     0.087 A 
HETATM   19  N3  UNL     1      32.374  70.625  23.855  1.00  0.00    -0.374 N 
HETATM   20  C14 UNL     1      32.015  71.829  23.309  1.00  0.00     0.102 A 
ATOM     21  H3  UNL     1      31.793  70.231  24.595  1.00  0.00     0.164 HD
ENDBRANCH   1  15
TORSDOF 6
ENDMDL
MODEL 4
REMARK VINA RESULT: -5.900766747      2.504      4.755
REMARK  6 active torsions:
REMARK  status: ('A' for Active; 'I' for Inactive)
REMARK    1  A    between atoms: N1_2  and  C3_4 
REMARK    2  A    between atoms: C3_4  and  N2_5 
REMARK    3  A    between atoms: C3_4  and  C10_15 
REMARK    4  A    between atoms: N2_5  and  C4_7 
REMARK    5  A    between atoms: C4_7  and  C5_9 
REMARK    6  A    between atoms: C5_9  and  C6_10 
ROOT
HETATM    1  C3  UNL     1      32.652  73.674  21.781  1.00  0.00     0.094 C 
ENDROOT
BRANCH   1   2
HETATM    2  N1  UNL     1      32.186  72.960  20.629  1.00  0.00    -0.277 NA
HETATM    3  C1  UNL     1      30.813  73.000  20.310  1.00  0.00     0.118 C 
HETATM    4  C2  UNL     1      32.931  73.305  19.414  1.00  0.00     0.118 C 
ENDBRANCH   1   2
BRANCH   1   5
HETATM    5  N2  UNL     1      31.941  74.862  22.108  1.00  0.00    -0.340 N 
ATOM      6  H2  UNL     1      31.052  74.701  22.582  1.00  0.00     0.167 HD
BRANCH   5   7
HETATM    7  C4  UNL     1      32.244  76.205  21.896  1.00  0.00     0.084 C 
HETATM    8  S1  UNL     1      31.955  76.860  20.406  1.00  0.00    -0.065 SA
BRANCH   7   9
HETATM    9  C5  UNL     1      32.808  77.107  22.899  1.00  0.00     0.134 C 
BRANCH   9  10
HETATM   10  C6  UNL     1      32.073  78.407  22.969  1.00  0.00     0.059 A 
HETATM   11  C7  UNL     1      32.529  79.685  22.801  1.00  0.00     0.035 A 
HETATM   12  C8  UNL     1      31.442  80.544  22.968  1.00  0.00     0.027 A 
HETATM   13  C9  UNL     1      30.378  79.712  23.231  1.00  0.00     0.142 A 
HETATM   14  O1  UNL     1      30.790  78.488  23.222  1.00  0.00    -0.327 OA
ENDBRANCH   9  10
ENDBRANCH   7   9
ENDBRANCH   5   7
ENDBRANCH   1   5
BRANCH   1  15
HETATM   15  C10 UNL     1      33.133  72.851  22.899  1.00  0.00     0.018 A 
HETATM   16  C11 UNL     1      33.489  71.506  22.703  1.00  0.00     0.017 A 
HETATM   17  C12 UNL     1      33.908  70.718  23.752  1.00  0.00     0.018 A 
HETATM   18  C13 UNL     1      33.990  71.225  25.029  1.00  0.00     0.087 A 
HETATM   19  N3  UNL     1      33.649  72.508  25.209  1.00  0.00    -0.374 N 
HETATM   20  C14 UNL     1      33.229  73.312  24.182  1.00  0.00     0.102 A 
ATOM     21  H3  UNL     1      33.706  72.903  26.148  1.00  0.00     0.164 HD
ENDBRANCH   1  15
TORSDOF 6
ENDMDL
MODEL 5
REMARK VINA RESULT: -5.879440204      2.243      3.031
REMARK  6 active torsions:
REMARK  status: ('A' for Active; 'I' for Inactive)
REMARK    1  A    between atoms: N1_2  and  C3_4 
REMARK    2  A    between atoms: C3_4  and  N2_5 
REMARK    3  A    between atoms: C3_4  and  C10_15 
REMARK    4  A    between atoms: N2_5  and  C4_7 
REMARK    5  A    between atoms: C4_7  and  C5_9 
REMARK    6  A    between atoms: C5_9  and  C6_10 
ROOT
HETATM    1  C3  UNL     1      32.623  73.549  23.206  1.00  0.00     0.094 C 
ENDROOT
BRANCH   1   2
HETATM    2  N1  UNL     1      33.584  72.684  23.825  1.00  0.00    -0.277 NA
HETATM    3  C1  UNL     1      33.832  72.819  25.206  1.00  0.00     0.118 C 
HETATM    4  C2  UNL     1      33.319  71.266  23.561  1.00  0.00     0.118 C 
ENDBRANCH   1   2
BRANCH   1   5
HETATM    5  N2  UNL     1      32.617  74.898  23.655  1.00  0.00    -0.340 N 
ATOM      6  H2  UNL     1      33.339  75.114  24.342  1.00  0.00     0.167 HD
BRANCH   5   7
HETATM    7  C4  UNL     1      31.799  75.976  23.323  1.00  0.00     0.084 C 
HETATM    8  S1  UNL     1      30.566  76.384  24.346  1.00  0.00    -0.065 SA
BRANCH   7   9
HETATM    9  C5  UNL     1      31.938  76.796  22.121  1.00  0.00     0.134 C 
BRANCH   9  10
HETATM   10  C6  UNL     1      31.883  78.260  22.424  1.00  0.00     0.059 A 
HETATM   11  C7  UNL     1      31.051  79.228  21.933  1.00  0.00     0.035 A 
HETATM   12  C8  UNL     1      31.411  80.434  22.536  1.00  0.00     0.027 A 
HETATM   13  C9  UNL     1      32.459  80.109  23.368  1.00  0.00     0.142 A 
HETATM   14  O1  UNL     1      32.696  78.844  23.269  1.00  0.00    -0.327 OA
ENDBRANCH   9  10
ENDBRANCH   7   9
ENDBRANCH   5   7
ENDBRANCH   1   5
BRANCH   1  15
HETATM   15  C10 UNL     1      32.375  73.317  21.776  1.00  0.00     0.018 A 
HETATM   16  C11 UNL     1      33.385  73.533  20.825  1.00  0.00     0.017 A 
HETATM   17  C12 UNL     1      33.151  73.350  19.480  1.00  0.00     0.018 A 
HETATM   18  C13 UNL     1      31.915  72.950  19.025  1.00  0.00     0.087 A 
HETATM   19  N3  UNL     1      30.955  72.745  19.938  1.00  0.00    -0.374 N 
HETATM   20  C14 UNL     1      31.164  72.921  21.281  1.00  0.00     0.102 A 
ATOM     21  H3  UNL     1      30.033  72.447  19.621  1.00  0.00     0.164 HD
ENDBRANCH   1  15
TORSDOF 6
ENDMDL
