MODEL 1
REMARK VINA RESULT: -7.989519425      0.000      0.000
REMARK  4 active torsions:
REMARK  status: ('A' for Active; 'I' for Inactive)
REMARK    1  A    between atoms: C4_6  and  C5_7 
REMARK    2  A    between atoms: C5_7  and  C6_8 
REMARK    3  A    between atoms: N2_12  and  C10_13 
REMARK    4  A    between atoms: C10_13  and  C11_14 
ROOT
HETATM    1  C1  UNL     1      31.330  76.880  17.733  1.00  0.00     0.068 C 
HETATM    2  C2  UNL     1      31.515  76.171  19.043  1.00  0.00     0.012 A 
HETATM    3  N1  UNL     1      31.820  76.900  20.115  1.00  0.00    -0.357 N 
ATOM      4  H1  UNL     1      31.918  77.911  20.023  1.00  0.00     0.166 HD
HETATM    5  C3  UNL     1      31.997  76.330  21.301  1.00  0.00     0.068 A 
HETATM    6  C4  UNL     1      32.298  76.862  22.534  1.00  0.00    -0.013 A 
HETATM    7  C9  UNL     1      32.338  75.788  23.379  1.00  0.00     0.101 A 
HETATM    8  N2  UNL     1      32.068  74.627  22.677  1.00  0.00    -0.346 N 
HETATM    9  C12 UNL     1      31.856  74.934  21.407  1.00  0.00     0.069 A 
HETATM   10  C13 UNL     1      31.541  74.169  20.309  1.00  0.00    -0.025 A 
HETATM   11  C14 UNL     1      31.352  72.712  20.334  1.00  0.00     0.051 C 
HETATM   12  C15 UNL     1      31.367  74.823  19.091  1.00  0.00    -0.032 A 
HETATM   13  C16 UNL     1      31.030  74.060  17.878  1.00  0.00     0.050 C 
ENDROOT
BRANCH   6  14
HETATM   14  C5  UNL     1      32.543  78.273  22.880  1.00  0.00     0.046 C 
BRANCH  14  15
HETATM   15  C6  UNL     1      31.446  79.211  22.560  1.00  0.00    -0.018 C 
HETATM   16  C7  UNL     1      31.953  80.609  22.988  1.00  0.00     0.010 C 
HETATM   17  C8  UNL     1      30.155  79.000  23.302  1.00  0.00     0.010 C 
ENDBRANCH  14  15
ENDBRANCH   6  14
BRANCH   8  18
HETATM   18  C10 UNL     1      32.070  73.323  23.308  1.00  0.00     0.228 C 
BRANCH  18  19
HETATM   19  C11 UNL     1      33.479  72.979  23.635  1.00  0.00     0.249 C 
HETATM   20  N3  UNL     1      33.931  72.738  24.958  1.00  0.00    -0.061 NA
HETATM   21  O1  UNL     1      34.313  72.898  22.705  1.00  0.00    -0.275 OA
ENDBRANCH  18  19
ENDBRANCH   8  18
TORSDOF 4
ENDMDL
MODEL 2
REMARK VINA RESULT: -7.877682031      1.244      1.287
REMARK  4 active torsions:
REMARK  status: ('A' for Active; 'I' for Inactive)
REMARK    1  A    between atoms: C4_6  and  C5_7 
REMARK    2  A    between atoms: C5_7  and  C6_8 
REMARK    3  A    between atoms: N2_12  and  C10_13 
REMARK    4  A    between atoms: C10_13  and  C11_14 
ROOT
HETATM    1  C1  UNL     1      30.882  77.933  17.417  1.00  0.00     0.068 C 
HETATM    2  C2  UNL     1      31.220  76.976  18.522  1.00  0.00     0.012 A 
HETATM    3  N1  UNL     1      31.570  77.479  19.704  1.00  0.00    -0.357 N 
ATOM      4  H1  UNL     1      31.598  78.490  19.831  1.00  0.00     0.166 HD
HETATM    5  C3  UNL     1      31.882  76.683  20.721  1.00  0.00     0.068 A 
HETATM    6  C4  UNL     1      32.253  76.959  22.017  1.00  0.00    -0.013 A 
HETATM    7  C9  UNL     1      32.430  75.735  22.600  1.00  0.00     0.101 A 
HETATM    8  N2  UNL     1      32.173  74.735  21.679  1.00  0.00    -0.346 N 
HETATM    9  C12 UNL     1      31.836  75.290  20.526  1.00  0.00     0.069 A 
HETATM   10  C13 UNL     1      31.476  74.756  19.311  1.00  0.00    -0.025 A 
HETATM   11  C14 UNL     1      31.379  73.319  19.027  1.00  0.00     0.051 C 
HETATM   12  C15 UNL     1      31.160  75.642  18.282  1.00  0.00    -0.032 A 
HETATM   13  C16 UNL     1      30.769  75.133  16.957  1.00  0.00     0.050 C 
ENDROOT
BRANCH   6  14
HETATM   14  C5  UNL     1      32.439  78.278  22.647  1.00  0.00     0.046 C 
BRANCH  14  15
HETATM   15  C6  UNL     1      31.306  79.218  22.515  1.00  0.00    -0.018 C 
HETATM   16  C7  UNL     1      31.832  80.582  23.022  1.00  0.00     0.010 C 
HETATM   17  C8  UNL     1      30.091  78.914  23.348  1.00  0.00     0.010 C 
ENDBRANCH  14  15
ENDBRANCH   6  14
BRANCH   8  18
HETATM   18  C10 UNL     1      32.308  73.330  22.005  1.00  0.00     0.228 C 
BRANCH  18  19
HETATM   19  C11 UNL     1      33.757  73.042  22.178  1.00  0.00     0.249 C 
HETATM   20  N3  UNL     1      34.697  73.127  21.119  1.00  0.00    -0.061 NA
HETATM   21  O1  UNL     1      34.175  72.705  23.309  1.00  0.00    -0.275 OA
ENDBRANCH  18  19
ENDBRANCH   8  18
TORSDOF 4
ENDMDL
MODEL 3
REMARK VINA RESULT: -7.876948057      2.426      5.271
REMARK  4 active torsions:
REMARK  status: ('A' for Active; 'I' for Inactive)
REMARK    1  A    between atoms: C4_6  and  C5_7 
REMARK    2  A    between atoms: C5_7  and  C6_8 
REMARK    3  A    between atoms: N2_12  and  C10_13 
REMARK    4  A    between atoms: C10_13  and  C11_14 
ROOT
HETATM    1  C1  UNL     1      33.163  72.545  21.746  1.00  0.00     0.068 C 
HETATM    2  C2  UNL     1      32.668  73.955  21.876  1.00  0.00     0.012 A 
HETATM    3  N1  UNL     1      32.697  74.734  20.797  1.00  0.00    -0.357 N 
ATOM      4  H1  UNL     1      33.050  74.359  19.916  1.00  0.00     0.166 HD
HETATM    5  C3  UNL     1      32.274  75.992  20.849  1.00  0.00     0.068 A 
HETATM    6  C4  UNL     1      32.193  76.970  19.884  1.00  0.00    -0.013 A 
HETATM    7  C9  UNL     1      31.663  78.054  20.526  1.00  0.00     0.101 A 
HETATM    8  N2  UNL     1      31.426  77.744  21.854  1.00  0.00    -0.346 N 
HETATM    9  C12 UNL     1      31.791  76.491  22.072  1.00  0.00     0.069 A 
HETATM   10  C13 UNL     1      31.753  75.698  23.195  1.00  0.00    -0.025 A 
HETATM   11  C14 UNL     1      31.244  76.128  24.504  1.00  0.00     0.051 C 
HETATM   12  C15 UNL     1      32.212  74.386  23.079  1.00  0.00    -0.032 A 
HETATM   13  C16 UNL     1      32.200  73.488  24.245  1.00  0.00     0.050 C 
ENDROOT
BRANCH   6  14
HETATM   14  C5  UNL     1      32.601  76.887  18.470  1.00  0.00     0.046 C 
BRANCH  14  15
HETATM   15  C6  UNL     1      31.996  77.889  17.568  1.00  0.00    -0.018 C 
HETATM   16  C7  UNL     1      30.745  77.208  16.966  1.00  0.00     0.010 C 
HETATM   17  C8  UNL     1      32.833  78.317  16.394  1.00  0.00     0.010 C 
ENDBRANCH  14  15
ENDBRANCH   6  14
BRANCH   8  18
HETATM   18  C10 UNL     1      30.891  78.711  22.790  1.00  0.00     0.228 C 
BRANCH  18  19
HETATM   19  C11 UNL     1      31.873  79.822  22.906  1.00  0.00     0.249 C 
HETATM   20  N3  UNL     1      31.671  81.098  22.321  1.00  0.00    -0.061 NA
HETATM   21  O1  UNL     1      32.930  79.629  23.547  1.00  0.00    -0.275 OA
ENDBRANCH  18  19
ENDBRANCH   8  18
TORSDOF 4
ENDMDL
MODEL 4
REMARK VINA RESULT: -7.587366740      2.362      4.660
REMARK  4 active torsions:
REMARK  status: ('A' for Active; 'I' for Inactive)
REMARK    1  A    between atoms: C4_6  and  C5_7 
REMARK    2  A    between atoms: C5_7  and  C6_8 
REMARK    3  A    between atoms: N2_12  and  C10_13 
REMARK    4  A    between atoms: C10_13  and  C11_14 
ROOT
HETATM    1  C1  UNL     1      32.244  73.148  18.090  1.00  0.00     0.068 C 
HETATM    2  C2  UNL     1      32.122  74.395  18.915  1.00  0.00     0.012 A 
HETATM    3  N1  UNL     1      32.541  74.357  20.178  1.00  0.00    -0.357 N 
ATOM      4  H1  UNL     1      32.933  73.493  20.552  1.00  0.00     0.166 HD
HETATM    5  C3  UNL     1      32.458  75.429  20.959  1.00  0.00     0.068 A 
HETATM    6  C4  UNL     1      32.830  75.637  22.267  1.00  0.00    -0.013 A 
HETATM    7  C9  UNL     1      32.512  76.943  22.519  1.00  0.00     0.101 A 
HETATM    8  N2  UNL     1      31.957  77.517  21.389  1.00  0.00    -0.346 N 
HETATM    9  C12 UNL     1      31.916  76.612  20.425  1.00  0.00     0.069 A 
HETATM   10  C13 UNL     1      31.480  76.666  19.121  1.00  0.00    -0.025 A 
HETATM   11  C14 UNL     1      30.924  77.863  18.477  1.00  0.00     0.051 C 
HETATM   12  C15 UNL     1      31.592  75.510  18.351  1.00  0.00    -0.032 A 
HETATM   13  C16 UNL     1      31.142  75.503  16.950  1.00  0.00     0.050 C 
ENDROOT
BRANCH   6  14
HETATM   14  C5  UNL     1      33.425  74.671  23.207  1.00  0.00     0.046 C 
BRANCH  14  15
HETATM   15  C6  UNL     1      32.481  73.721  23.834  1.00  0.00    -0.018 C 
HETATM   16  C7  UNL     1      33.094  73.368  25.210  1.00  0.00     0.010 C 
HETATM   17  C8  UNL     1      32.290  72.409  23.124  1.00  0.00     0.010 C 
ENDBRANCH  14  15
ENDBRANCH   6  14
BRANCH   8  18
HETATM   18  C10 UNL     1      31.496  78.890  21.367  1.00  0.00     0.228 C 
BRANCH  18  19
HETATM   19  C11 UNL     1      31.387  79.355  22.775  1.00  0.00     0.249 C 
HETATM   20  N3  UNL     1      32.286  80.287  23.355  1.00  0.00    -0.061 NA
HETATM   21  O1  UNL     1      30.462  78.907  23.489  1.00  0.00    -0.275 OA
ENDBRANCH  18  19
ENDBRANCH   8  18
TORSDOF 4
ENDMDL
MODEL 5
REMARK VINA RESULT: -7.329306469      2.413      4.479
REMARK  4 active torsions:
REMARK  status: ('A' for Active; 'I' for Inactive)
REMARK    1  A    between atoms: C4_6  and  C5_7 
REMARK    2  A    between atoms: C5_7  and  C6_8 
REMARK    3  A    between atoms: N2_12  and  C10_13 
REMARK    4  A    between atoms: C10_13  and  C11_14 
ROOT
HETATM    1  C1  UNL     1      32.958  71.604  19.252  1.00  0.00     0.068 C 
HETATM    2  C2  UNL     1      32.858  72.916  19.974  1.00  0.00     0.012 A 
HETATM    3  N1  UNL     1      32.285  73.939  19.344  1.00  0.00    -0.357 N 
ATOM      4  H1  UNL     1      31.929  73.810  18.397  1.00  0.00     0.166 HD
HETATM    5  C3  UNL     1      32.168  75.125  19.930  1.00  0.00     0.068 A 
HETATM    6  C4  UNL     1      31.613  76.308  19.497  1.00  0.00    -0.013 A 
HETATM    7  C9  UNL     1      31.775  77.174  20.542  1.00  0.00     0.101 A 
HETATM    8  N2  UNL     1      32.415  76.534  21.588  1.00  0.00    -0.346 N 
HETATM    9  C12 UNL     1      32.663  75.283  21.237  1.00  0.00     0.069 A 
HETATM   10  C13 UNL     1      33.257  74.235  21.902  1.00  0.00    -0.025 A 
HETATM   11  C14 UNL     1      33.779  74.305  23.273  1.00  0.00     0.051 C 
HETATM   12  C15 UNL     1      33.351  73.015  21.234  1.00  0.00    -0.032 A 
HETATM   13  C16 UNL     1      33.977  71.855  21.890  1.00  0.00     0.050 C 
ENDROOT
BRANCH   6  14
HETATM   14  C5  UNL     1      30.993  76.596  18.192  1.00  0.00     0.046 C 
BRANCH  14  15
HETATM   15  C6  UNL     1      31.301  77.922  17.615  1.00  0.00    -0.018 C 
HETATM   16  C7  UNL     1      30.428  78.038  16.343  1.00  0.00     0.010 C 
HETATM   17  C8  UNL     1      32.718  78.134  17.158  1.00  0.00     0.010 C 
ENDBRANCH  14  15
ENDBRANCH   6  14
BRANCH   8  18
HETATM   18  C10 UNL     1      32.748  77.214  22.823  1.00  0.00     0.228 C 
BRANCH  18  19
HETATM   19  C11 UNL     1      31.515  77.280  23.652  1.00  0.00     0.249 C 
HETATM   20  N3  UNL     1      31.128  76.251  24.548  1.00  0.00    -0.061 NA
HETATM   21  O1  UNL     1      30.778  78.288  23.559  1.00  0.00    -0.275 OA
ENDBRANCH  18  19
ENDBRANCH   8  18
TORSDOF 4
ENDMDL
