MODEL 1
REMARK VINA RESULT: -7.838618910      0.000      0.000
REMARK  5 active torsions:
REMARK  status: ('A' for Active; 'I' for Inactive)
REMARK    1  A    between atoms: C2_2  and  C10_15 
REMARK       I    between atoms: N1_3  and  C3_5 
REMARK       I    between atoms: C3_5  and  N2_7 
REMARK    2  A    between atoms: N2_7  and  C4_9 
REMARK    3  A    between atoms: C4_9  and  C5_10 
REMARK    4  A    between atoms: C5_10  and  C6_11 
REMARK    5  A    between atoms: C10_15  and  C11_17 
ROOT
HETATM    1  C1  UNL     1      34.057  74.320  22.932  1.00  0.00     0.072 C 
HETATM    2  C2  UNL     1      32.847  74.523  23.719  1.00  0.00     0.062 C 
HETATM    3  N1  UNL     1      32.452  73.563  24.527  1.00  0.00    -0.309 N 
ATOM      4  H1  UNL     1      31.611  73.671  25.092  1.00  0.00     0.170 HD
HETATM    5  C3  UNL     1      33.219  72.382  24.593  1.00  0.00     0.320 C 
HETATM    6  O1  UNL     1      34.161  72.379  25.417  1.00  0.00    -0.247 OA
HETATM    7  N2  UNL     1      32.904  71.286  23.755  1.00  0.00    -0.343 N 
ATOM      8  H2  UNL     1      32.121  71.378  23.107  1.00  0.00     0.164 HD
ENDROOT
BRANCH   2   9
HETATM    9  C10 UNL     1      32.050  75.751  23.649  1.00  0.00     0.220 C 
HETATM   10  O2  UNL     1      31.499  76.157  24.681  1.00  0.00    -0.284 OA
BRANCH   9  11
HETATM   11  C11 UNL     1      31.907  76.474  22.406  1.00  0.00     0.084 A 
HETATM   12  C12 UNL     1      31.779  77.870  22.455  1.00  0.00     0.034 A 
HETATM   13  C13 UNL     1      31.640  78.615  21.311  1.00  0.00     0.004 A 
HETATM   14  C14 UNL     1      31.623  78.008  20.066  1.00  0.00     0.017 A 
HETATM   15  C15 UNL     1      31.752  76.633  20.033  1.00  0.00     0.088 A 
HETATM   16  N3  UNL     1      31.884  75.956  21.181  1.00  0.00    -0.363 N 
ATOM     17  H3  UNL     1      31.976  74.943  21.109  1.00  0.00     0.165 HD
ENDBRANCH   9  11
ENDBRANCH   2   9
BRANCH   7  18
HETATM   18  C4  UNL     1      33.638  70.048  23.774  1.00  0.00     0.125 C 
BRANCH  18  19
HETATM   19  C5  UNL     1      34.758  70.096  22.799  1.00  0.00     0.028 C 
BRANCH  19  20
HETATM   20  C6  UNL     1      34.798  68.884  21.887  1.00  0.00    -0.050 C 
HETATM   21  C7  UNL     1      36.157  68.258  21.901  1.00  0.00     0.014 C 
HETATM   22  C8  UNL     1      33.760  67.862  22.268  1.00  0.00     0.014 C 
HETATM   23  C9  UNL     1      34.434  69.392  20.492  1.00  0.00     0.014 C 
ENDBRANCH  19  20
ENDBRANCH  18  19
ENDBRANCH   7  18
TORSDOF 5
ENDMDL
MODEL 2
REMARK VINA RESULT: -7.752785702      0.586      1.045
REMARK  5 active torsions:
REMARK  status: ('A' for Active; 'I' for Inactive)
REMARK    1  A    between atoms: C2_2  and  C10_15 
REMARK       I    between atoms: N1_3  and  C3_5 
REMARK       I    between atoms: C3_5  and  N2_7 
REMARK    2  A    between atoms: N2_7  and  C4_9 
REMARK    3  A    between atoms: C4_9  and  C5_10 
REMARK    4  A    between atoms: C5_10  and  C6_11 
REMARK    5  A    between atoms: C10_15  and  C11_17 
ROOT
HETATM    1  C1  UNL     1      34.030  74.378  22.950  1.00  0.00     0.072 C 
HETATM    2  C2  UNL     1      32.820  74.570  23.740  1.00  0.00     0.062 C 
HETATM    3  N1  UNL     1      32.431  73.603  24.541  1.00  0.00    -0.309 N 
ATOM      4  H1  UNL     1      31.590  73.703  25.109  1.00  0.00     0.170 HD
HETATM    5  C3  UNL     1      33.203  72.425  24.598  1.00  0.00     0.320 C 
HETATM    6  O1  UNL     1      34.146  72.419  25.420  1.00  0.00    -0.247 OA
HETATM    7  N2  UNL     1      32.891  71.333  23.752  1.00  0.00    -0.343 N 
ATOM      8  H2  UNL     1      32.107  71.427  23.106  1.00  0.00     0.164 HD
ENDROOT
BRANCH   2   9
HETATM    9  C10 UNL     1      32.018  75.795  23.680  1.00  0.00     0.220 C 
HETATM   10  O2  UNL     1      31.446  76.177  24.710  1.00  0.00    -0.284 OA
BRANCH   9  11
HETATM   11  C11 UNL     1      31.895  76.543  22.449  1.00  0.00     0.084 A 
HETATM   12  C12 UNL     1      31.899  75.840  21.235  1.00  0.00     0.034 A 
HETATM   13  C13 UNL     1      31.787  76.492  20.033  1.00  0.00     0.004 A 
HETATM   14  C14 UNL     1      31.663  77.871  19.981  1.00  0.00     0.017 A 
HETATM   15  C15 UNL     1      31.660  78.549  21.184  1.00  0.00     0.088 A 
HETATM   16  N3  UNL     1      31.773  77.862  22.328  1.00  0.00    -0.363 N 
ATOM     17  H3  UNL     1      31.766  78.404  23.192  1.00  0.00     0.165 HD
ENDBRANCH   9  11
ENDBRANCH   2   9
BRANCH   7  18
HETATM   18  C4  UNL     1      33.630  70.099  23.760  1.00  0.00     0.125 C 
BRANCH  18  19
HETATM   19  C5  UNL     1      34.723  70.143  22.754  1.00  0.00     0.028 C 
BRANCH  19  20
HETATM   20  C6  UNL     1      34.789  68.890  21.901  1.00  0.00    -0.050 C 
HETATM   21  C7  UNL     1      36.158  68.285  21.958  1.00  0.00     0.014 C 
HETATM   22  C8  UNL     1      33.763  67.871  22.321  1.00  0.00     0.014 C 
HETATM   23  C9  UNL     1      34.432  69.325  20.481  1.00  0.00     0.014 C 
ENDBRANCH  19  20
ENDBRANCH  18  19
ENDBRANCH   7  18
TORSDOF 5
ENDMDL
MODEL 3
REMARK VINA RESULT: -7.735884774      1.346      7.706
REMARK  5 active torsions:
REMARK  status: ('A' for Active; 'I' for Inactive)
REMARK    1  A    between atoms: C2_2  and  C10_15 
REMARK       I    between atoms: N1_3  and  C3_5 
REMARK       I    between atoms: C3_5  and  N2_7 
REMARK    2  A    between atoms: N2_7  and  C4_9 
REMARK    3  A    between atoms: C4_9  and  C5_10 
REMARK    4  A    between atoms: C5_10  and  C6_11 
REMARK    5  A    between atoms: C10_15  and  C11_17 
ROOT
HETATM    1  C1  UNL     1      31.832  72.109  23.049  1.00  0.00     0.072 C 
HETATM    2  C2  UNL     1      33.120  72.215  23.725  1.00  0.00     0.062 C 
HETATM    3  N1  UNL     1      33.574  73.410  24.032  1.00  0.00    -0.309 N 
ATOM      4  H1  UNL     1      34.470  73.521  24.505  1.00  0.00     0.170 HD
HETATM    5  C3  UNL     1      32.793  74.534  23.692  1.00  0.00     0.320 C 
HETATM    6  O1  UNL     1      31.939  74.891  24.534  1.00  0.00    -0.247 OA
HETATM    7  N2  UNL     1      33.000  75.190  22.454  1.00  0.00    -0.343 N 
ATOM      8  H2  UNL     1      33.716  74.827  21.825  1.00  0.00     0.164 HD
ENDROOT
BRANCH   2   9
HETATM    9  C10 UNL     1      33.931  71.047  24.078  1.00  0.00     0.220 C 
HETATM   10  O2  UNL     1      34.428  70.993  25.210  1.00  0.00    -0.284 OA
BRANCH   9  11
HETATM   11  C11 UNL     1      34.147  69.978  23.128  1.00  0.00     0.084 A 
HETATM   12  C12 UNL     1      35.031  70.200  22.062  1.00  0.00     0.034 A 
HETATM   13  C13 UNL     1      35.279  69.227  21.127  1.00  0.00     0.004 A 
HETATM   14  C14 UNL     1      34.663  67.989  21.208  1.00  0.00     0.017 A 
HETATM   15  C15 UNL     1      33.796  67.785  22.264  1.00  0.00     0.088 A 
HETATM   16  N3  UNL     1      33.590  68.770  23.148  1.00  0.00    -0.363 N 
ATOM     17  H3  UNL     1      32.942  68.576  23.911  1.00  0.00     0.165 HD
ENDBRANCH   9  11
ENDBRANCH   2   9
BRANCH   7  18
HETATM   18  C4  UNL     1      32.246  76.346  22.045  1.00  0.00     0.125 C 
BRANCH  18  19
HETATM   19  C5  UNL     1      32.620  77.525  22.868  1.00  0.00     0.028 C 
BRANCH  19  20
HETATM   20  C6  UNL     1      31.692  78.707  22.658  1.00  0.00    -0.050 C 
HETATM   21  C7  UNL     1      30.416  78.518  23.417  1.00  0.00     0.014 C 
HETATM   22  C8  UNL     1      32.339  80.006  23.062  1.00  0.00     0.014 C 
HETATM   23  C9  UNL     1      31.438  78.784  21.153  1.00  0.00     0.014 C 
ENDBRANCH  19  20
ENDBRANCH  18  19
ENDBRANCH   7  18
TORSDOF 5
ENDMDL
MODEL 4
REMARK VINA RESULT: -7.566092446      2.290      7.843
REMARK  5 active torsions:
REMARK  status: ('A' for Active; 'I' for Inactive)
REMARK    1  A    between atoms: C2_2  and  C10_15 
REMARK       I    between atoms: N1_3  and  C3_5 
REMARK       I    between atoms: C3_5  and  N2_7 
REMARK    2  A    between atoms: N2_7  and  C4_9 
REMARK    3  A    between atoms: C4_9  and  C5_10 
REMARK    4  A    between atoms: C5_10  and  C6_11 
REMARK    5  A    between atoms: C10_15  and  C11_17 
ROOT
HETATM    1  C1  UNL     1      34.754  71.676  21.109  1.00  0.00     0.072 C 
HETATM    2  C2  UNL     1      34.789  70.657  22.151  1.00  0.00     0.062 C 
HETATM    3  N1  UNL     1      34.007  70.800  23.198  1.00  0.00    -0.309 N 
ATOM      4  H1  UNL     1      34.005  70.106  23.946  1.00  0.00     0.170 HD
HETATM    5  C3  UNL     1      33.170  71.933  23.263  1.00  0.00     0.320 C 
HETATM    6  O1  UNL     1      32.047  71.824  22.723  1.00  0.00    -0.247 OA
HETATM    7  N2  UNL     1      33.619  73.106  23.916  1.00  0.00    -0.343 N 
ATOM      8  H2  UNL     1      34.554  73.108  24.325  1.00  0.00     0.164 HD
ENDROOT
BRANCH   2   9
HETATM    9  C10 UNL     1      35.660  69.480  22.083  1.00  0.00     0.220 C 
HETATM   10  O2  UNL     1      36.622  69.411  22.859  1.00  0.00    -0.284 OA
BRANCH   9  11
HETATM   11  C11 UNL     1      35.405  68.422  21.131  1.00  0.00     0.084 A 
HETATM   12  C12 UNL     1      36.272  68.282  20.038  1.00  0.00     0.034 A 
HETATM   13  C13 UNL     1      36.085  67.298  19.100  1.00  0.00     0.004 A 
HETATM   14  C14 UNL     1      35.029  66.408  19.205  1.00  0.00     0.017 A 
HETATM   15  C15 UNL     1      34.184  66.557  20.287  1.00  0.00     0.088 A 
HETATM   16  N3  UNL     1      34.414  67.536  21.172  1.00  0.00    -0.363 N 
ATOM     17  H3  UNL     1      33.764  67.609  21.956  1.00  0.00     0.165 HD
ENDBRANCH   9  11
ENDBRANCH   2   9
BRANCH   7  18
HETATM   18  C4  UNL     1      32.817  74.296  24.027  1.00  0.00     0.125 C 
BRANCH  18  19
HETATM   19  C5  UNL     1      33.257  75.311  23.035  1.00  0.00     0.028 C 
BRANCH  19  20
HETATM   20  C6  UNL     1      32.204  76.371  22.770  1.00  0.00    -0.050 C 
HETATM   21  C7  UNL     1      31.016  76.168  23.658  1.00  0.00     0.014 C 
HETATM   22  C8  UNL     1      32.749  77.762  22.956  1.00  0.00     0.014 C 
HETATM   23  C9  UNL     1      31.826  76.233  21.295  1.00  0.00     0.014 C 
ENDBRANCH  19  20
ENDBRANCH  18  19
ENDBRANCH   7  18
TORSDOF 5
ENDMDL
MODEL 5
REMARK VINA RESULT: -7.563875017      2.387      7.829
REMARK  5 active torsions:
REMARK  status: ('A' for Active; 'I' for Inactive)
REMARK    1  A    between atoms: C2_2  and  C10_15 
REMARK       I    between atoms: N1_3  and  C3_5 
REMARK       I    between atoms: C3_5  and  N2_7 
REMARK    2  A    between atoms: N2_7  and  C4_9 
REMARK    3  A    between atoms: C4_9  and  C5_10 
REMARK    4  A    between atoms: C5_10  and  C6_11 
REMARK    5  A    between atoms: C10_15  and  C11_17 
ROOT
HETATM    1  C1  UNL     1      34.738  71.683  21.094  1.00  0.00     0.072 C 
HETATM    2  C2  UNL     1      34.783  70.680  22.151  1.00  0.00     0.062 C 
HETATM    3  N1  UNL     1      33.997  70.828  23.193  1.00  0.00    -0.309 N 
ATOM      4  H1  UNL     1      34.002  70.146  23.951  1.00  0.00     0.170 HD
HETATM    5  C3  UNL     1      33.147  71.952  23.241  1.00  0.00     0.320 C 
HETATM    6  O1  UNL     1      32.026  71.822  22.699  1.00  0.00    -0.247 OA
HETATM    7  N2  UNL     1      33.580  73.141  23.876  1.00  0.00    -0.343 N 
ATOM      8  H2  UNL     1      34.514  73.160  24.288  1.00  0.00     0.164 HD
ENDROOT
BRANCH   2   9
HETATM    9  C10 UNL     1      35.667  69.512  22.101  1.00  0.00     0.220 C 
HETATM   10  O2  UNL     1      36.575  69.424  22.938  1.00  0.00    -0.284 OA
BRANCH   9  11
HETATM   11  C11 UNL     1      35.488  68.486  21.099  1.00  0.00     0.084 A 
HETATM   12  C12 UNL     1      34.246  67.839  21.019  1.00  0.00     0.034 A 
HETATM   13  C13 UNL     1      34.012  66.856  20.091  1.00  0.00     0.004 A 
HETATM   14  C14 UNL     1      34.999  66.471  19.199  1.00  0.00     0.017 A 
HETATM   15  C15 UNL     1      36.217  67.117  19.289  1.00  0.00     0.088 A 
HETATM   16  N3  UNL     1      36.390  68.069  20.215  1.00  0.00    -0.363 N 
ATOM     17  H3  UNL     1      37.305  68.520  20.246  1.00  0.00     0.165 HD
ENDBRANCH   9  11
ENDBRANCH   2   9
BRANCH   7  18
HETATM   18  C4  UNL     1      32.764  74.323  23.969  1.00  0.00     0.125 C 
BRANCH  18  19
HETATM   19  C5  UNL     1      33.248  75.360  23.022  1.00  0.00     0.028 C 
BRANCH  19  20
HETATM   20  C6  UNL     1      32.222  76.448  22.766  1.00  0.00    -0.050 C 
HETATM   21  C7  UNL     1      31.021  76.257  23.639  1.00  0.00     0.014 C 
HETATM   22  C8  UNL     1      32.797  77.823  22.983  1.00  0.00     0.014 C 
HETATM   23  C9  UNL     1      31.857  76.346  21.286  1.00  0.00     0.014 C 
ENDBRANCH  19  20
ENDBRANCH  18  19
ENDBRANCH   7  18
TORSDOF 5
ENDMDL
