MODEL 1
REMARK VINA RESULT: -7.387815453      0.000      0.000
REMARK  13 active torsions:
REMARK  status: ('A' for Active; 'I' for Inactive)
REMARK    1  A    between atoms: S1_2  and  C2_3 
REMARK    2  A    between atoms: C3_6  and  S2_7 
REMARK    3  A    between atoms: S2_7  and  C4_8 
REMARK    4  A    between atoms: C4_8  and  C5_9 
REMARK    5  A    between atoms: C5_9  and  N2_10 
REMARK    6  A    between atoms: C5_9  and  N4_15 
REMARK    7  A    between atoms: N2_10  and  N3_12 
REMARK    8  A    between atoms: N3_12  and  O1_13 
REMARK    9  A    between atoms: N4_15  and  N5_17 
REMARK   10  A    between atoms: N5_17  and  C6_19 
REMARK   11  A    between atoms: C9_27  and  N8_28 
REMARK   12  A    between atoms: C11_34  and  N10_35 
REMARK   13  A    between atoms: C12_38  and  N11_39 
ROOT
HETATM    1  C5  UNL     1      25.557 -34.664   6.943  1.00  0.00     0.119 C 
ENDROOT
BRANCH   1   2
HETATM    2  C4  UNL     1      24.579 -34.200   7.957  1.00  0.00     0.161 C 
BRANCH   2   3
HETATM    3  S2  UNL     1      24.782 -32.419   8.133  1.00  0.00    -0.086 SA
BRANCH   3   4
HETATM    4  C3  UNL     1      25.428 -31.979   9.749  1.00  0.00     0.147 A 
HETATM    5  N1  UNL     1      24.869 -32.525  10.844  1.00  0.00    -0.329 N 
HETATM    6  C2  UNL     1      25.297 -32.247  12.102  1.00  0.00     0.108 A 
ATOM      7  H1  UNL     1      24.092 -33.174  10.723  1.00  0.00     0.168 HD
HETATM    8  C12 UNL     1      26.345 -31.370  12.260  1.00  0.00     0.179 A 
HETATM    9  C11 UNL     1      26.924 -30.805  11.138  1.00  0.00     0.137 A 
HETATM   10  N9  UNL     1      26.448 -31.126   9.901  1.00  0.00    -0.321 N 
ATOM     11  H9  UNL     1      26.877 -30.707   9.076  1.00  0.00     0.169 HD
BRANCH   6  12
HETATM   12  S1  UNL     1      24.541 -32.982  13.544  1.00  0.00    -0.114 SA
HETATM   13  C1  UNL     1      23.128 -31.906  13.997  1.00  0.00     0.097 C 
ENDBRANCH   6  12
BRANCH   8  14
HETATM   14  N11 UNL     1      26.791 -31.081  13.567  1.00  0.00    -0.109 N 
HETATM   15  O4  UNL     1      26.285 -30.161  14.214  1.00  0.00    -0.532 OA
HETATM   16  O5  UNL     1      27.791 -31.829  14.114  1.00  0.00    -0.532 OA
ENDBRANCH   8  14
BRANCH   9  17
HETATM   17  N10 UNL     1      27.894 -29.995  11.295  1.00  0.00    -0.383 N 
ATOM     18 2H10 UNL     1      28.316 -29.910  12.220  1.00  0.00     0.157 HD
ATOM     19 1H10 UNL     1      28.257 -29.435  10.523  1.00  0.00     0.157 HD
ENDBRANCH   9  17
ENDBRANCH   3   4
ENDBRANCH   2   3
ENDBRANCH   1   2
BRANCH   1  20
HETATM   20  N2  UNL     1      25.275 -34.466   5.703  1.00  0.00    -0.265 N 
ATOM     21  H2  UNL     1      24.352 -34.740   5.368  1.00  0.00     0.186 HD
BRANCH  20  22
HETATM   22  N3  UNL     1      26.166 -33.895   4.795  1.00  0.00     0.020 NA
BRANCH  22  23
HETATM   23  O1  UNL     1      26.855 -34.935   4.217  1.00  0.00    -0.277 OA
ATOM     24  H1  UNL     1      27.469 -35.248   4.870  1.00  0.00     0.240 HD
ENDBRANCH  22  23
ENDBRANCH  20  22
ENDBRANCH   1  20
BRANCH   1  25
HETATM   25  N4  UNL     1      26.763 -35.300   7.308  1.00  0.00    -0.287 N 
ATOM     26  H4  UNL     1      26.826 -36.318   7.302  1.00  0.00     0.188 HD
BRANCH  25  27
HETATM   27  N5  UNL     1      27.864 -34.537   7.677  1.00  0.00    -0.298 N 
ATOM     28  H5  UNL     1      28.401 -34.086   6.937  1.00  0.00     0.187 HD
BRANCH  27  29
HETATM   29  C6  UNL     1      28.287 -34.346   9.014  1.00  0.00     0.066 A 
HETATM   30  C7  UNL     1      27.968 -35.241  10.012  1.00  0.00     0.120 A 
HETATM   31  N6  UNL     1      28.376 -35.051  11.288  1.00  0.00    -0.348 N 
HETATM   32  C8  UNL     1      29.119 -33.980  11.657  1.00  0.00     0.132 A 
ATOM     33  H6  UNL     1      28.116 -35.738  11.995  1.00  0.00     0.167 HD
HETATM   34  N7  UNL     1      29.484 -33.847  12.892  1.00  0.00    -0.383 N 
HETATM   35  C9  UNL     1      29.462 -33.062  10.694  1.00  0.00     0.148 A 
ATOM     36  H72 UNL     1      29.229 -34.528  13.607  1.00  0.00     0.157 HD
ATOM     37  H71 UNL     1      30.042 -33.041  13.170  1.00  0.00     0.157 HD
HETATM   38  C10 UNL     1      29.044 -33.258   9.399  1.00  0.00     0.072 A 
BRANCH  35  39
HETATM   39  N8  UNL     1      30.232 -31.923  11.002  1.00  0.00    -0.112 N 
HETATM   40  O2  UNL     1      30.498 -31.598  12.171  1.00  0.00    -0.532 OA
HETATM   41  O3  UNL     1      30.710 -31.137   9.986  1.00  0.00    -0.532 OA
ENDBRANCH  35  39
ENDBRANCH  27  29
ENDBRANCH  25  27
ENDBRANCH   1  25
TORSDOF 13
ENDMDL
MODEL 2
REMARK VINA RESULT: -6.813971070      3.087      7.234
REMARK  13 active torsions:
REMARK  status: ('A' for Active; 'I' for Inactive)
REMARK    1  A    between atoms: S1_2  and  C2_3 
REMARK    2  A    between atoms: C3_6  and  S2_7 
REMARK    3  A    between atoms: S2_7  and  C4_8 
REMARK    4  A    between atoms: C4_8  and  C5_9 
REMARK    5  A    between atoms: C5_9  and  N2_10 
REMARK    6  A    between atoms: C5_9  and  N4_15 
REMARK    7  A    between atoms: N2_10  and  N3_12 
REMARK    8  A    between atoms: N3_12  and  O1_13 
REMARK    9  A    between atoms: N4_15  and  N5_17 
REMARK   10  A    between atoms: N5_17  and  C6_19 
REMARK   11  A    between atoms: C9_27  and  N8_28 
REMARK   12  A    between atoms: C11_34  and  N10_35 
REMARK   13  A    between atoms: C12_38  and  N11_39 
ROOT
HETATM    1  C5  UNL     1      28.885 -32.168  12.934  1.00  0.00     0.119 C 
ENDROOT
BRANCH   1   2
HETATM    2  C4  UNL     1      29.896 -31.707  11.952  1.00  0.00     0.161 C 
BRANCH   2   3
HETATM    3  S2  UNL     1      29.079 -31.575  10.352  1.00  0.00    -0.086 SA
BRANCH   3   4
HETATM    4  C3  UNL     1      28.428 -33.157   9.804  1.00  0.00     0.147 A 
HETATM    5  N1  UNL     1      27.376 -33.171   8.967  1.00  0.00    -0.329 N 
HETATM    6  C2  UNL     1      26.823 -34.323   8.506  1.00  0.00     0.108 A 
ATOM      7  H1  UNL     1      26.977 -32.283   8.667  1.00  0.00     0.168 HD
HETATM    8  C12 UNL     1      27.364 -35.520   8.913  1.00  0.00     0.179 A 
HETATM    9  C11 UNL     1      28.445 -35.511   9.774  1.00  0.00     0.137 A 
HETATM   10  N9  UNL     1      28.955 -34.321  10.202  1.00  0.00    -0.321 N 
ATOM     11  H9  UNL     1      29.753 -34.318  10.837  1.00  0.00     0.169 HD
BRANCH   6  12
HETATM   12  S1  UNL     1      25.425 -34.323   7.393  1.00  0.00    -0.114 SA
HETATM   13  C1  UNL     1      26.094 -34.011   5.715  1.00  0.00     0.097 C 
ENDBRANCH   6  12
BRANCH   8  14
HETATM   14  N11 UNL     1      26.790 -36.717   8.434  1.00  0.00    -0.109 N 
HETATM   15  O4  UNL     1      25.574 -36.906   8.510  1.00  0.00    -0.532 OA
HETATM   16  O5  UNL     1      27.594 -37.670   7.881  1.00  0.00    -0.532 OA
ENDBRANCH   8  14
BRANCH   9  17
HETATM   17  N10 UNL     1      28.939 -36.625  10.146  1.00  0.00    -0.383 N 
ATOM     18 2H10 UNL     1      28.822 -36.912  11.118  1.00  0.00     0.157 HD
ATOM     19 1H10 UNL     1      29.444 -37.232   9.499  1.00  0.00     0.157 HD
ENDBRANCH   9  17
ENDBRANCH   3   4
ENDBRANCH   2   3
ENDBRANCH   1   2
BRANCH   1  20
HETATM   20  N2  UNL     1      29.280 -32.937  13.886  1.00  0.00    -0.265 N 
ATOM     21  H2  UNL     1      30.047 -32.619  14.477  1.00  0.00     0.186 HD
BRANCH  20  22
HETATM   22  N3  UNL     1      28.713 -34.182  14.152  1.00  0.00     0.020 NA
BRANCH  22  23
HETATM   23  O1  UNL     1      28.667 -34.856  12.954  1.00  0.00    -0.277 OA
ATOM     24  H1  UNL     1      29.417 -35.438  12.943  1.00  0.00     0.240 HD
ENDBRANCH  22  23
ENDBRANCH  20  22
ENDBRANCH   1  20
BRANCH   1  25
HETATM   25  N4  UNL     1      27.529 -31.782  12.842  1.00  0.00    -0.287 N 
ATOM     26  H4  UNL     1      27.280 -30.794  12.809  1.00  0.00     0.188 HD
BRANCH  25  27
HETATM   27  N5  UNL     1      26.535 -32.751  12.798  1.00  0.00    -0.298 N 
ATOM     28  H5  UNL     1      26.743 -33.626  12.316  1.00  0.00     0.187 HD
BRANCH  27  29
HETATM   29  C6  UNL     1      25.253 -32.603  13.380  1.00  0.00     0.066 A 
HETATM   30  C7  UNL     1      24.586 -31.398  13.370  1.00  0.00     0.120 A 
HETATM   31  N6  UNL     1      23.361 -31.265  13.928  1.00  0.00    -0.348 N 
HETATM   32  C8  UNL     1      22.721 -32.300  14.523  1.00  0.00     0.132 A 
ATOM     33  H6  UNL     1      22.903 -30.354  13.899  1.00  0.00     0.167 HD
HETATM   34  N7  UNL     1      21.549 -32.117  15.041  1.00  0.00    -0.383 N 
HETATM   35  C9  UNL     1      23.349 -33.522  14.554  1.00  0.00     0.148 A 
ATOM     36  H72 UNL     1      21.083 -31.211  15.017  1.00  0.00     0.157 HD
ATOM     37  H71 UNL     1      21.068 -32.897  15.489  1.00  0.00     0.157 HD
HETATM   38  C10 UNL     1      24.595 -33.652  13.987  1.00  0.00     0.072 A 
BRANCH  35  39
HETATM   39  N8  UNL     1      22.747 -34.645  15.157  1.00  0.00    -0.112 N 
HETATM   40  O2  UNL     1      21.547 -34.920  14.996  1.00  0.00    -0.532 OA
HETATM   41  O3  UNL     1      23.501 -35.471  15.948  1.00  0.00    -0.532 OA
ENDBRANCH  35  39
ENDBRANCH  27  29
ENDBRANCH  25  27
ENDBRANCH   1  25
TORSDOF 13
ENDMDL
MODEL 3
REMARK VINA RESULT: -6.791404127      2.171      4.703
REMARK  13 active torsions:
REMARK  status: ('A' for Active; 'I' for Inactive)
REMARK    1  A    between atoms: S1_2  and  C2_3 
REMARK    2  A    between atoms: C3_6  and  S2_7 
REMARK    3  A    between atoms: S2_7  and  C4_8 
REMARK    4  A    between atoms: C4_8  and  C5_9 
REMARK    5  A    between atoms: C5_9  and  N2_10 
REMARK    6  A    between atoms: C5_9  and  N4_15 
REMARK    7  A    between atoms: N2_10  and  N3_12 
REMARK    8  A    between atoms: N3_12  and  O1_13 
REMARK    9  A    between atoms: N4_15  and  N5_17 
REMARK   10  A    between atoms: N5_17  and  C6_19 
REMARK   11  A    between atoms: C9_27  and  N8_28 
REMARK   12  A    between atoms: C11_34  and  N10_35 
REMARK   13  A    between atoms: C12_38  and  N11_39 
ROOT
HETATM    1  C5  UNL     1      25.321 -33.394   7.289  1.00  0.00     0.119 C 
ENDROOT
BRANCH   1   2
HETATM    2  C4  UNL     1      25.709 -34.759   7.719  1.00  0.00     0.161 C 
BRANCH   2   3
HETATM    3  S2  UNL     1      27.509 -34.837   7.719  1.00  0.00    -0.086 SA
BRANCH   3   4
HETATM    4  C3  UNL     1      28.202 -34.222   9.257  1.00  0.00     0.147 A 
HETATM    5  N1  UNL     1      28.907 -33.077   9.240  1.00  0.00    -0.329 N 
HETATM    6  C2  UNL     1      29.465 -32.544  10.358  1.00  0.00     0.108 A 
ATOM      7  H1  UNL     1      29.028 -32.590   8.353  1.00  0.00     0.168 HD
HETATM    8  C12 UNL     1      29.299 -33.204  11.553  1.00  0.00     0.179 A 
HETATM    9  C11 UNL     1      28.576 -34.382  11.576  1.00  0.00     0.137 A 
HETATM   10  N9  UNL     1      28.041 -34.866  10.419  1.00  0.00    -0.321 N 
ATOM     11  H9  UNL     1      27.508 -35.736  10.440  1.00  0.00     0.169 HD
BRANCH   6  12
HETATM   12  S1  UNL     1      30.398 -31.021  10.317  1.00  0.00    -0.114 SA
HETATM   13  C1  UNL     1      29.246 -29.690  10.828  1.00  0.00     0.097 C 
ENDBRANCH   6  12
BRANCH   8  14
HETATM   14  N11 UNL     1      29.878 -32.650  12.715  1.00  0.00    -0.109 N 
HETATM   15  O4  UNL     1      31.077 -32.809  12.958  1.00  0.00    -0.532 OA
HETATM   16  O5  UNL     1      29.099 -31.933  13.574  1.00  0.00    -0.532 OA
ENDBRANCH   8  14
BRANCH   9  17
HETATM   17  N10 UNL     1      28.428 -34.986  12.688  1.00  0.00    -0.383 N 
ATOM     18 2H10 UNL     1      27.801 -35.790  12.728  1.00  0.00     0.157 HD
ATOM     19 1H10 UNL     1      28.920 -34.689  13.531  1.00  0.00     0.157 HD
ENDBRANCH   9  17
ENDBRANCH   3   4
ENDBRANCH   2   3
ENDBRANCH   1   2
BRANCH   1  20
HETATM   20  N2  UNL     1      25.638 -33.027   6.098  1.00  0.00    -0.265 N 
ATOM     21  H2  UNL     1      25.723 -32.029   5.906  1.00  0.00     0.186 HD
BRANCH  20  22
HETATM   22  N3  UNL     1      25.872 -33.923   5.056  1.00  0.00     0.020 NA
BRANCH  22  23
HETATM   23  O1  UNL     1      25.835 -33.189   3.894  1.00  0.00    -0.277 OA
ATOM     24  H1  UNL     1      25.596 -32.304   4.141  1.00  0.00     0.240 HD
ENDBRANCH  22  23
ENDBRANCH  20  22
ENDBRANCH   1  20
BRANCH   1  25
HETATM   25  N4  UNL     1      24.623 -32.514   8.146  1.00  0.00    -0.287 N 
ATOM     26  H4  UNL     1      24.397 -31.570   7.835  1.00  0.00     0.188 HD
BRANCH  25  27
HETATM   27  N5  UNL     1      24.244 -32.938   9.414  1.00  0.00    -0.298 N 
ATOM     28  H5  UNL     1      23.537 -33.669   9.480  1.00  0.00     0.187 HD
BRANCH  27  29
HETATM   29  C6  UNL     1      24.777 -32.419  10.618  1.00  0.00     0.066 A 
HETATM   30  C7  UNL     1      25.972 -31.735  10.648  1.00  0.00     0.120 A 
HETATM   31  N6  UNL     1      26.475 -31.242  11.803  1.00  0.00    -0.348 N 
HETATM   32  C8  UNL     1      25.838 -31.388  12.989  1.00  0.00     0.132 A 
ATOM     33  H6  UNL     1      27.365 -30.744  11.780  1.00  0.00     0.167 HD
HETATM   34  N7  UNL     1      26.363 -30.897  14.065  1.00  0.00    -0.383 N 
HETATM   35  C9  UNL     1      24.641 -32.063  13.006  1.00  0.00     0.148 A 
ATOM     36  H72 UNL     1      27.252 -30.396  14.053  1.00  0.00     0.157 HD
ATOM     37  H71 UNL     1      25.883 -31.007  14.958  1.00  0.00     0.157 HD
HETATM   38  C10 UNL     1      24.134 -32.564  11.830  1.00  0.00     0.072 A 
BRANCH  35  39
HETATM   39  N8  UNL     1      23.921 -32.256  14.202  1.00  0.00    -0.112 N 
HETATM   40  O2  UNL     1      23.699 -31.331  15.000  1.00  0.00    -0.532 OA
HETATM   41  O3  UNL     1      23.441 -33.503  14.506  1.00  0.00    -0.532 OA
ENDBRANCH  35  39
ENDBRANCH  27  29
ENDBRANCH  25  27
ENDBRANCH   1  25
TORSDOF 13
ENDMDL
MODEL 4
REMARK VINA RESULT: -6.780771570      4.319      6.893
REMARK  13 active torsions:
REMARK  status: ('A' for Active; 'I' for Inactive)
REMARK    1  A    between atoms: S1_2  and  C2_3 
REMARK    2  A    between atoms: C3_6  and  S2_7 
REMARK    3  A    between atoms: S2_7  and  C4_8 
REMARK    4  A    between atoms: C4_8  and  C5_9 
REMARK    5  A    between atoms: C5_9  and  N2_10 
REMARK    6  A    between atoms: C5_9  and  N4_15 
REMARK    7  A    between atoms: N2_10  and  N3_12 
REMARK    8  A    between atoms: N3_12  and  O1_13 
REMARK    9  A    between atoms: N4_15  and  N5_17 
REMARK   10  A    between atoms: N5_17  and  C6_19 
REMARK   11  A    between atoms: C9_27  and  N8_28 
REMARK   12  A    between atoms: C11_34  and  N10_35 
REMARK   13  A    between atoms: C12_38  and  N11_39 
ROOT
HETATM    1  C5  UNL     1      27.297 -32.102  10.351  1.00  0.00     0.119 C 
ENDROOT
BRANCH   1   2
HETATM    2  C4  UNL     1      28.730 -32.360  10.071  1.00  0.00     0.161 C 
BRANCH   2   3
HETATM    3  S2  UNL     1      29.696 -31.433  11.276  1.00  0.00    -0.086 SA
BRANCH   3   4
HETATM    4  C3  UNL     1      30.081 -29.780  10.691  1.00  0.00     0.147 A 
HETATM    5  N1  UNL     1      29.262 -28.766  11.022  1.00  0.00    -0.329 N 
HETATM    6  C2  UNL     1      29.481 -27.487  10.621  1.00  0.00     0.108 A 
ATOM      7  H1  UNL     1      28.444 -28.966  11.596  1.00  0.00     0.168 HD
HETATM    8  C12 UNL     1      30.586 -27.221   9.846  1.00  0.00     0.179 A 
HETATM    9  C11 UNL     1      31.430 -28.260   9.502  1.00  0.00     0.137 A 
HETATM   10  N9  UNL     1      31.156 -29.524   9.936  1.00  0.00    -0.321 N 
ATOM     11  H9  UNL     1      31.782 -30.287   9.681  1.00  0.00     0.169 HD
BRANCH   6  12
HETATM   12  S1  UNL     1      28.382 -26.152  11.071  1.00  0.00    -0.114 SA
HETATM   13  C1  UNL     1      28.981 -25.502  12.676  1.00  0.00     0.097 C 
ENDBRANCH   6  12
BRANCH   8  14
HETATM   14  N11 UNL     1      30.814 -25.893   9.429  1.00  0.00    -0.109 N 
HETATM   15  O4  UNL     1      30.276 -25.452   8.411  1.00  0.00    -0.532 OA
HETATM   16  O5  UNL     1      31.637 -25.093  10.165  1.00  0.00    -0.532 OA
ENDBRANCH   8  14
BRANCH   9  17
HETATM   17  N10 UNL     1      32.452 -28.005   8.784  1.00  0.00    -0.383 N 
ATOM     18 2H10 UNL     1      33.214 -27.465   9.193  1.00  0.00     0.157 HD
ATOM     19 1H10 UNL     1      32.523 -28.326   7.818  1.00  0.00     0.157 HD
ENDBRANCH   9  17
ENDBRANCH   3   4
ENDBRANCH   2   3
ENDBRANCH   1   2
BRANCH   1  20
HETATM   20  N2  UNL     1      26.462 -32.240   9.383  1.00  0.00    -0.265 N 
ATOM     21  H2  UNL     1      26.537 -31.608   8.586  1.00  0.00     0.186 HD
BRANCH  20  22
HETATM   22  N3  UNL     1      25.460 -33.209   9.366  1.00  0.00     0.020 NA
BRANCH  22  23
HETATM   23  O1  UNL     1      24.337 -32.620   9.897  1.00  0.00    -0.277 OA
ATOM     24  H1  UNL     1      24.085 -33.147  10.647  1.00  0.00     0.240 HD
ENDBRANCH  22  23
ENDBRANCH  20  22
ENDBRANCH   1  20
BRANCH   1  25
HETATM   25  N4  UNL     1      26.847 -31.718  11.634  1.00  0.00    -0.287 N 
ATOM     26  H4  UNL     1      26.902 -30.742  11.924  1.00  0.00     0.188 HD
BRANCH  25  27
HETATM   27  N5  UNL     1      26.330 -32.673  12.500  1.00  0.00    -0.298 N 
ATOM     28  H5  UNL     1      26.877 -33.518  12.659  1.00  0.00     0.187 HD
BRANCH  27  29
HETATM   29  C6  UNL     1      25.093 -32.547  13.176  1.00  0.00     0.066 A 
HETATM   30  C7  UNL     1      24.387 -31.364  13.185  1.00  0.00     0.120 A 
HETATM   31  N6  UNL     1      23.205 -31.251  13.833  1.00  0.00    -0.348 N 
HETATM   32  C8  UNL     1      22.648 -32.287  14.505  1.00  0.00     0.132 A 
ATOM     33  H6  UNL     1      22.717 -30.356  13.815  1.00  0.00     0.167 HD
HETATM   34  N7  UNL     1      21.514 -32.125  15.108  1.00  0.00    -0.383 N 
HETATM   35  C9  UNL     1      23.317 -33.487  14.521  1.00  0.00     0.148 A 
ATOM     36  H72 UNL     1      21.018 -31.235  15.096  1.00  0.00     0.157 HD
ATOM     37  H71 UNL     1      21.095 -32.905  15.614  1.00  0.00     0.157 HD
HETATM   38  C10 UNL     1      24.519 -33.597  13.862  1.00  0.00     0.072 A 
BRANCH  35  39
HETATM   39  N8  UNL     1      22.800 -34.609  15.200  1.00  0.00    -0.112 N 
HETATM   40  O2  UNL     1      23.502 -35.320  15.938  1.00  0.00    -0.532 OA
HETATM   41  O3  UNL     1      21.479 -34.938  15.050  1.00  0.00    -0.532 OA
ENDBRANCH  35  39
ENDBRANCH  27  29
ENDBRANCH  25  27
ENDBRANCH   1  25
TORSDOF 13
ENDMDL
MODEL 5
REMARK VINA RESULT: -6.774978931      3.459      6.169
REMARK  13 active torsions:
REMARK  status: ('A' for Active; 'I' for Inactive)
REMARK    1  A    between atoms: S1_2  and  C2_3 
REMARK    2  A    between atoms: C3_6  and  S2_7 
REMARK    3  A    between atoms: S2_7  and  C4_8 
REMARK    4  A    between atoms: C4_8  and  C5_9 
REMARK    5  A    between atoms: C5_9  and  N2_10 
REMARK    6  A    between atoms: C5_9  and  N4_15 
REMARK    7  A    between atoms: N2_10  and  N3_12 
REMARK    8  A    between atoms: N3_12  and  O1_13 
REMARK    9  A    between atoms: N4_15  and  N5_17 
REMARK   10  A    between atoms: N5_17  and  C6_19 
REMARK   11  A    between atoms: C9_27  and  N8_28 
REMARK   12  A    between atoms: C11_34  and  N10_35 
REMARK   13  A    between atoms: C12_38  and  N11_39 
ROOT
HETATM    1  C5  UNL     1      28.385 -32.713  13.317  1.00  0.00     0.119 C 
ENDROOT
BRANCH   1   2
HETATM    2  C4  UNL     1      27.527 -31.507  13.406  1.00  0.00     0.161 C 
BRANCH   2   3
HETATM    3  S2  UNL     1      27.212 -30.939  11.725  1.00  0.00    -0.086 SA
BRANCH   3   4
HETATM    4  C3  UNL     1      28.418 -29.719  11.197  1.00  0.00     0.147 A 
HETATM    5  N1  UNL     1      28.161 -28.416  11.411  1.00  0.00    -0.329 N 
HETATM    6  C2  UNL     1      29.018 -27.430  11.043  1.00  0.00     0.108 A 
ATOM      7  H1  UNL     1      27.286 -28.159  11.866  1.00  0.00     0.168 HD
HETATM    8  C12 UNL     1      30.198 -27.781  10.428  1.00  0.00     0.179 A 
HETATM    9  C11 UNL     1      30.467 -29.118  10.205  1.00  0.00     0.137 A 
HETATM   10  N9  UNL     1      29.565 -30.062  10.599  1.00  0.00    -0.321 N 
ATOM     11  H9  UNL     1      29.767 -31.047  10.433  1.00  0.00     0.169 HD
BRANCH   6  12
HETATM   12  S1  UNL     1      28.660 -25.704  11.335  1.00  0.00    -0.114 SA
HETATM   13  C1  UNL     1      29.306 -25.313  13.005  1.00  0.00     0.097 C 
ENDBRANCH   6  12
BRANCH   8  14
HETATM   14  N11 UNL     1      31.090 -26.756  10.046  1.00  0.00    -0.109 N 
HETATM   15  O4  UNL     1      31.953 -26.350  10.827  1.00  0.00    -0.532 OA
HETATM   16  O5  UNL     1      30.991 -26.214   8.799  1.00  0.00    -0.532 OA
ENDBRANCH   8  14
BRANCH   9  17
HETATM   17  N10 UNL     1      31.563 -29.434   9.635  1.00  0.00    -0.383 N 
ATOM     18 2H10 UNL     1      32.439 -29.131  10.060  1.00  0.00     0.157 HD
ATOM     19 1H10 UNL     1      31.582 -29.978   8.773  1.00  0.00     0.157 HD
ENDBRANCH   9  17
ENDBRANCH   3   4
ENDBRANCH   2   3
ENDBRANCH   1   2
BRANCH   1  20
HETATM   20  N2  UNL     1      29.632 -32.585  13.605  1.00  0.00    -0.265 N 
ATOM     21  H2  UNL     1      29.950 -32.897  14.522  1.00  0.00     0.186 HD
BRANCH  20  22
HETATM   22  N3  UNL     1      30.570 -32.042  12.729  1.00  0.00     0.020 NA
BRANCH  22  23
HETATM   23  O1  UNL     1      30.390 -32.675  11.521  1.00  0.00    -0.277 OA
ATOM     24  H1  UNL     1      30.531 -32.019  10.849  1.00  0.00     0.240 HD
ENDBRANCH  22  23
ENDBRANCH  20  22
ENDBRANCH   1  20
BRANCH   1  25
HETATM   25  N4  UNL     1      27.865 -33.969  12.933  1.00  0.00    -0.287 N 
ATOM     26  H4  UNL     1      27.093 -34.383  13.454  1.00  0.00     0.188 HD
BRANCH  25  27
HETATM   27  N5  UNL     1      28.409 -34.639  11.844  1.00  0.00    -0.298 N 
ATOM     28  H5  UNL     1      29.280 -35.151  11.985  1.00  0.00     0.187 HD
BRANCH  27  29
HETATM   29  C6  UNL     1      27.831 -34.658  10.552  1.00  0.00     0.066 A 
HETATM   30  C7  UNL     1      28.384 -35.384   9.521  1.00  0.00     0.120 A 
HETATM   31  N6  UNL     1      27.826 -35.397   8.288  1.00  0.00    -0.348 N 
HETATM   32  C8  UNL     1      26.699 -34.704   7.998  1.00  0.00     0.132 A 
ATOM     33  H6  UNL     1      28.269 -35.948   7.553  1.00  0.00     0.167 HD
HETATM   34  N7  UNL     1      26.206 -34.752   6.802  1.00  0.00    -0.383 N 
HETATM   35  C9  UNL     1      26.113 -33.966   8.998  1.00  0.00     0.148 A 
ATOM     36  H72 UNL     1      26.641 -35.299   6.059  1.00  0.00     0.157 HD
ATOM     37  H71 UNL     1      25.358 -34.229   6.583  1.00  0.00     0.157 HD
HETATM   38  C10 UNL     1      26.684 -33.955  10.249  1.00  0.00     0.072 A 
BRANCH  35  39
HETATM   39  N8  UNL     1      24.940 -33.218   8.771  1.00  0.00    -0.112 N 
HETATM   40  O2  UNL     1      23.966 -33.682   8.156  1.00  0.00    -0.532 OA
HETATM   41  O3  UNL     1      24.858 -31.934   9.242  1.00  0.00    -0.532 OA
ENDBRANCH  35  39
ENDBRANCH  27  29
ENDBRANCH  25  27
ENDBRANCH   1  25
TORSDOF 13
ENDMDL
