MODEL 1
REMARK VINA RESULT: -8.279544469      0.000      0.000
REMARK  16 active torsions:
REMARK  status: ('A' for Active; 'I' for Inactive)
REMARK    1  A    between atoms: N1_2  and  N2_4 
REMARK    2  A    between atoms: N2_4  and  C2_6 
REMARK    3  A    between atoms: C2_6  and  N3_7 
REMARK    4  A    between atoms: C2_6  and  C3_11 
REMARK    5  A    between atoms: N3_7  and  O1_9 
REMARK    6  A    between atoms: C4_16  and  N6_17 
REMARK    7  A    between atoms: N6_17  and  N7_19 
REMARK    8  A    between atoms: N7_19  and  C5_21 
REMARK    9  A    between atoms: C5_21  and  C6_22 
REMARK   10  A    between atoms: C6_22  and  O2_23 
REMARK   11  A    between atoms: C6_22  and  C8_25 
REMARK   12  A    between atoms: C10_29  and  N9_30 
REMARK   13  A    between atoms: N9_30  and  N10_32 
REMARK   14  A    between atoms: N10_32  and  C11_34 
REMARK   15  A    between atoms: C11_34  and  C12_35 
REMARK   16  A    between atoms: C16_43  and  O5_44 
ROOT
HETATM    1  N6  UNL     1      29.152 -34.910  11.326  1.00  0.00    -0.131 N 
ATOM      2  H6  UNL     1      30.104 -35.266  11.246  1.00  0.00     0.205 HD
ENDROOT
BRANCH   1   3
HETATM    3  C4  UNL     1      28.442 -34.777  10.255  1.00  0.00     0.713 A 
HETATM    4  N5  UNL     1      28.302 -33.613   9.595  1.00  0.00    -0.130 N 
HETATM    5  N4  UNL     1      27.560 -33.518   8.494  1.00  0.00    -0.279 N 
ATOM      6  H5  UNL     1      28.776 -32.782   9.947  1.00  0.00     0.205 HD
HETATM    7  C3  UNL     1      26.902 -34.566   7.965  1.00  0.00     0.147 A 
ATOM      8  H4  UNL     1      27.488 -32.612   8.031  1.00  0.00     0.188 HD
HETATM    9  C16 UNL     1      27.034 -35.770   8.631  1.00  0.00     0.187 A 
HETATM   10  N11 UNL     1      27.795 -35.844   9.751  1.00  0.00    -0.166 N 
ATOM     11  H11 UNL     1      27.880 -36.741  10.229  1.00  0.00     0.186 HD
BRANCH   7  12
HETATM   12  C2  UNL     1      26.086 -34.480   6.763  1.00  0.00     0.172 C 
BRANCH  12  13
HETATM   13  N2  UNL     1      26.665 -34.435   5.466  1.00  0.00    -0.283 N 
ATOM     14  H2  UNL     1      27.646 -34.680   5.328  1.00  0.00     0.188 HD
BRANCH  13  15
HETATM   15  N1  UNL     1      25.880 -34.053   4.393  1.00  0.00    -0.320 N 
HETATM   16  C1  UNL     1      25.999 -32.941   3.772  1.00  0.00     0.139 C 
ATOM     17  H1  UNL     1      25.158 -34.701   4.076  1.00  0.00     0.185 HD
ENDBRANCH  13  15
ENDBRANCH  12  13
BRANCH  12  18
HETATM   18  N3  UNL     1      24.801 -34.441   6.829  1.00  0.00    -0.250 N 
ATOM     19  H3  UNL     1      24.362 -33.613   7.230  1.00  0.00     0.196 HD
BRANCH  18  20
HETATM   20  O1  UNL     1      23.994 -35.456   6.388  1.00  0.00    -0.288 OA
ATOM     21  H1  UNL     1      23.162 -35.309   5.952  1.00  0.00     0.244 HD
ENDBRANCH  18  20
ENDBRANCH  12  18
ENDBRANCH   7  12
BRANCH   9  22
HETATM   22  O5  UNL     1      26.377 -36.872   8.127  1.00  0.00    -0.344 OA
ATOM     23  H5  UNL     1      25.943 -37.457   8.736  1.00  0.00     0.219 HD
ENDBRANCH   9  22
ENDBRANCH   1   3
BRANCH   1  24
HETATM   24  N7  UNL     1      28.661 -34.582  12.578  1.00  0.00    -0.298 N 
ATOM     25  H7  UNL     1      27.939 -35.156  13.015  1.00  0.00     0.186 HD
BRANCH  24  26
HETATM   26  C5  UNL     1      29.119 -33.554  13.181  1.00  0.00     0.119 C 
BRANCH  26  27
HETATM   27  C6  UNL     1      28.561 -32.215  12.920  1.00  0.00     0.219 C 
BRANCH  27  28
HETATM   28  O2  UNL     1      28.991 -31.679  11.710  1.00  0.00    -0.379 OA
HETATM   29  C7  UNL     1      30.359 -31.488  11.649  1.00  0.00     0.202 C 
ENDBRANCH  27  28
BRANCH  27  30
HETATM   30  C8  UNL     1      27.080 -32.216  12.935  1.00  0.00     0.106 A 
HETATM   31  C9  UNL     1      26.281 -31.679  11.940  1.00  0.00     0.127 A 
HETATM   32  N8  UNL     1      25.017 -31.866  12.301  1.00  0.00    -0.328 N 
HETATM   33  C10 UNL     1      25.003 -32.501  13.485  1.00  0.00     0.243 A 
ATOM     34  H8  UNL     1      24.197 -31.577  11.770  1.00  0.00     0.168 HD
HETATM   35  O4  UNL     1      26.254 -32.693  13.832  1.00  0.00    -0.278 OA
BRANCH  33  36
HETATM   36  N9  UNL     1      23.965 -32.871  14.183  1.00  0.00    -0.265 N 
ATOM     37  H9  UNL     1      24.066 -33.528  14.957  1.00  0.00     0.190 HD
BRANCH  36  38
HETATM   38  N10 UNL     1      22.717 -32.350  13.850  1.00  0.00    -0.306 N 
ATOM     39  H10 UNL     1      22.598 -31.768  13.021  1.00  0.00     0.186 HD
BRANCH  38  40
HETATM   40  C11 UNL     1      21.721 -32.618  14.608  1.00  0.00     0.144 C 
BRANCH  40  41
HETATM   41  C12 UNL     1      21.810 -32.514  16.061  1.00  0.00     0.091 A 
HETATM   42  C13 UNL     1      21.112 -33.267  16.978  1.00  0.00     0.040 A 
HETATM   43  C14 UNL     1      21.525 -32.810  18.218  1.00  0.00     0.027 A 
HETATM   44  C15 UNL     1      22.448 -31.811  18.008  1.00  0.00     0.142 A 
HETATM   45  O3  UNL     1      22.590 -31.664  16.714  1.00  0.00    -0.321 OA
ENDBRANCH  40  41
ENDBRANCH  38  40
ENDBRANCH  36  38
ENDBRANCH  33  36
ENDBRANCH  27  30
ENDBRANCH  26  27
ENDBRANCH  24  26
ENDBRANCH   1  24
TORSDOF 16
ENDMDL
MODEL 2
REMARK VINA RESULT: -8.218467235      2.691      5.828
REMARK  16 active torsions:
REMARK  status: ('A' for Active; 'I' for Inactive)
REMARK    1  A    between atoms: N1_2  and  N2_4 
REMARK    2  A    between atoms: N2_4  and  C2_6 
REMARK    3  A    between atoms: C2_6  and  N3_7 
REMARK    4  A    between atoms: C2_6  and  C3_11 
REMARK    5  A    between atoms: N3_7  and  O1_9 
REMARK    6  A    between atoms: C4_16  and  N6_17 
REMARK    7  A    between atoms: N6_17  and  N7_19 
REMARK    8  A    between atoms: N7_19  and  C5_21 
REMARK    9  A    between atoms: C5_21  and  C6_22 
REMARK   10  A    between atoms: C6_22  and  O2_23 
REMARK   11  A    between atoms: C6_22  and  C8_25 
REMARK   12  A    between atoms: C10_29  and  N9_30 
REMARK   13  A    between atoms: N9_30  and  N10_32 
REMARK   14  A    between atoms: N10_32  and  C11_34 
REMARK   15  A    between atoms: C11_34  and  C12_35 
REMARK   16  A    between atoms: C16_43  and  O5_44 
ROOT
HETATM    1  N6  UNL     1      29.073 -34.897  11.795  1.00  0.00    -0.131 N 
ATOM      2  H6  UNL     1      29.516 -35.377  12.579  1.00  0.00     0.205 HD
ENDROOT
BRANCH   1   3
HETATM    3  C4  UNL     1      29.335 -33.648  11.597  1.00  0.00     0.713 A 
HETATM    4  N5  UNL     1      30.377 -33.009  12.159  1.00  0.00    -0.130 N 
HETATM    5  N4  UNL     1      30.614 -31.720  11.929  1.00  0.00    -0.279 N 
ATOM      6  H5  UNL     1      31.003 -33.526  12.776  1.00  0.00     0.205 HD
HETATM    7  C3  UNL     1      29.837 -30.967  11.129  1.00  0.00     0.147 A 
ATOM      8  H4  UNL     1      31.418 -31.283  12.380  1.00  0.00     0.188 HD
HETATM    9  C16 UNL     1      28.760 -31.607  10.544  1.00  0.00     0.187 A 
HETATM   10  N11 UNL     1      28.539 -32.922  10.791  1.00  0.00    -0.166 N 
ATOM     11  H11 UNL     1      27.739 -33.377  10.351  1.00  0.00     0.186 HD
BRANCH   7  12
HETATM   12  C2  UNL     1      30.080 -29.556  10.867  1.00  0.00     0.172 C 
BRANCH  12  13
HETATM   13  N2  UNL     1      29.026 -28.662  10.539  1.00  0.00    -0.283 N 
ATOM     14  H2  UNL     1      28.170 -29.008  10.103  1.00  0.00     0.188 HD
BRANCH  13  15
HETATM   15  N1  UNL     1      29.177 -27.315  10.817  1.00  0.00    -0.320 N 
HETATM   16  C1  UNL     1      28.408 -26.649  11.593  1.00  0.00     0.139 C 
ATOM     17  H1  UNL     1      29.952 -26.821  10.375  1.00  0.00     0.185 HD
ENDBRANCH  13  15
ENDBRANCH  12  13
BRANCH  12  18
HETATM   18  N3  UNL     1      31.267 -29.062  10.924  1.00  0.00    -0.250 N 
ATOM     19  H3  UNL     1      31.789 -28.957  10.054  1.00  0.00     0.196 HD
BRANCH  18  20
HETATM   20  O1  UNL     1      31.864 -28.669  12.092  1.00  0.00    -0.288 OA
ATOM     21  H1  UNL     1      32.047 -27.761  12.305  1.00  0.00     0.244 HD
ENDBRANCH  18  20
ENDBRANCH  12  18
ENDBRANCH   7  12
BRANCH   9  22
HETATM   22  O5  UNL     1      27.936 -30.876   9.715  1.00  0.00    -0.344 OA
ATOM     23  H5  UNL     1      28.307 -30.503   8.925  1.00  0.00     0.219 HD
ENDBRANCH   9  22
ENDBRANCH   1   3
BRANCH   1  24
HETATM   24  N7  UNL     1      28.209 -35.606  10.976  1.00  0.00    -0.298 N 
ATOM     25  H7  UNL     1      27.304 -35.916  11.328  1.00  0.00     0.186 HD
BRANCH  24  26
HETATM   26  C5  UNL     1      28.558 -35.866   9.775  1.00  0.00     0.119 C 
BRANCH  26  27
HETATM   27  C6  UNL     1      27.554 -35.950   8.700  1.00  0.00     0.219 C 
BRANCH  27  28
HETATM   28  O2  UNL     1      26.887 -37.171   8.678  1.00  0.00    -0.379 OA
HETATM   29  C7  UNL     1      27.731 -38.253   8.504  1.00  0.00     0.202 C 
ENDBRANCH  27  28
BRANCH  27  30
HETATM   30  C8  UNL     1      26.547 -34.867   8.791  1.00  0.00     0.106 A 
HETATM   31  C9  UNL     1      25.953 -34.248   7.704  1.00  0.00     0.127 A 
HETATM   32  N8  UNL     1      25.113 -33.336   8.177  1.00  0.00    -0.328 N 
HETATM   33  C10 UNL     1      25.162 -33.367   9.519  1.00  0.00     0.243 A 
ATOM     34  H8  UNL     1      24.528 -32.717   7.616  1.00  0.00     0.168 HD
HETATM   35  O4  UNL     1      26.031 -34.294   9.849  1.00  0.00    -0.278 OA
BRANCH  33  36
HETATM   36  N9  UNL     1      24.492 -32.632  10.362  1.00  0.00    -0.265 N 
ATOM     37  H9  UNL     1      23.483 -32.746  10.464  1.00  0.00     0.190 HD
BRANCH  36  38
HETATM   38  N10 UNL     1      25.182 -31.689  11.122  1.00  0.00    -0.306 N 
ATOM     39  H10 UNL     1      25.500 -30.815  10.704  1.00  0.00     0.186 HD
BRANCH  38  40
HETATM   40  C11 UNL     1      25.407 -31.945  12.355  1.00  0.00     0.144 C 
BRANCH  40  41
HETATM   41  C12 UNL     1      24.326 -32.241  13.290  1.00  0.00     0.091 A 
HETATM   42  C13 UNL     1      23.273 -31.414  13.608  1.00  0.00     0.040 A 
HETATM   43  C14 UNL     1      22.517 -32.120  14.530  1.00  0.00     0.027 A 
HETATM   44  C15 UNL     1      23.133 -33.334  14.731  1.00  0.00     0.142 A 
HETATM   45  O3  UNL     1      24.205 -33.368  13.977  1.00  0.00    -0.321 OA
ENDBRANCH  40  41
ENDBRANCH  38  40
ENDBRANCH  36  38
ENDBRANCH  33  36
ENDBRANCH  27  30
ENDBRANCH  26  27
ENDBRANCH  24  26
ENDBRANCH   1  24
TORSDOF 16
ENDMDL
MODEL 3
REMARK VINA RESULT: -8.170545908      1.110      1.202
REMARK  16 active torsions:
REMARK  status: ('A' for Active; 'I' for Inactive)
REMARK    1  A    between atoms: N1_2  and  N2_4 
REMARK    2  A    between atoms: N2_4  and  C2_6 
REMARK    3  A    between atoms: C2_6  and  N3_7 
REMARK    4  A    between atoms: C2_6  and  C3_11 
REMARK    5  A    between atoms: N3_7  and  O1_9 
REMARK    6  A    between atoms: C4_16  and  N6_17 
REMARK    7  A    between atoms: N6_17  and  N7_19 
REMARK    8  A    between atoms: N7_19  and  C5_21 
REMARK    9  A    between atoms: C5_21  and  C6_22 
REMARK   10  A    between atoms: C6_22  and  O2_23 
REMARK   11  A    between atoms: C6_22  and  C8_25 
REMARK   12  A    between atoms: C10_29  and  N9_30 
REMARK   13  A    between atoms: N9_30  and  N10_32 
REMARK   14  A    between atoms: N10_32  and  C11_34 
REMARK   15  A    between atoms: C11_34  and  C12_35 
REMARK   16  A    between atoms: C16_43  and  O5_44 
ROOT
HETATM    1  N6  UNL     1      28.923 -34.986  11.285  1.00  0.00    -0.131 N 
ATOM      2  H6  UNL     1      29.830 -35.418  11.108  1.00  0.00     0.205 HD
ENDROOT
BRANCH   1   3
HETATM    3  C4  UNL     1      28.116 -34.798  10.295  1.00  0.00     0.713 A 
HETATM    4  N5  UNL     1      28.381 -35.187   9.034  1.00  0.00    -0.130 N 
HETATM    5  N4  UNL     1      27.522 -34.975   8.041  1.00  0.00    -0.279 N 
ATOM      6  H5  UNL     1      29.264 -35.657   8.835  1.00  0.00     0.205 HD
HETATM    7  C3  UNL     1      26.338 -34.362   8.219  1.00  0.00     0.147 A 
ATOM      8  H4  UNL     1      27.773 -35.290   7.103  1.00  0.00     0.188 HD
HETATM    9  C16 UNL     1      26.048 -33.954   9.508  1.00  0.00     0.187 A 
HETATM   10  N11 UNL     1      26.939 -34.181  10.506  1.00  0.00    -0.166 N 
ATOM     11  H11 UNL     1      26.707 -33.873  11.450  1.00  0.00     0.186 HD
BRANCH   7  12
HETATM   12  C2  UNL     1      25.386 -34.121   7.144  1.00  0.00     0.172 C 
BRANCH  12  13
HETATM   13  N2  UNL     1      25.702 -33.292   6.035  1.00  0.00    -0.283 N 
ATOM     14  H2  UNL     1      25.784 -32.281   6.151  1.00  0.00     0.188 HD
BRANCH  13  15
HETATM   15  N1  UNL     1      25.897 -33.874   4.795  1.00  0.00    -0.320 N 
HETATM   16  C1  UNL     1      26.057 -33.219   3.708  1.00  0.00     0.139 C 
ATOM     17  H1  UNL     1      25.915 -34.893   4.744  1.00  0.00     0.185 HD
ENDBRANCH  13  15
ENDBRANCH  12  13
BRANCH  12  18
HETATM   18  N3  UNL     1      24.215 -34.654   7.158  1.00  0.00    -0.250 N 
ATOM     19  H3  UNL     1      23.576 -34.399   7.910  1.00  0.00     0.196 HD
BRANCH  18  20
HETATM   20  O1  UNL     1      23.782 -35.546   6.213  1.00  0.00    -0.288 OA
ATOM     21  H1  UNL     1      23.538 -35.294   5.330  1.00  0.00     0.244 HD
ENDBRANCH  18  20
ENDBRANCH  12  18
ENDBRANCH   7  12
BRANCH   9  22
HETATM   22  O5  UNL     1      24.845 -33.322   9.739  1.00  0.00    -0.344 OA
ATOM     23  H5  UNL     1      24.046 -33.826   9.647  1.00  0.00     0.219 HD
ENDBRANCH   9  22
ENDBRANCH   1   3
BRANCH   1  24
HETATM   24  N7  UNL     1      28.595 -34.620  12.580  1.00  0.00    -0.298 N 
ATOM     25  H7  UNL     1      27.887 -35.139  13.098  1.00  0.00     0.186 HD
BRANCH  24  26
HETATM   26  C5  UNL     1      29.189 -33.625  13.118  1.00  0.00     0.119 C 
BRANCH  26  27
HETATM   27  C6  UNL     1      28.716 -32.249  12.884  1.00  0.00     0.219 C 
BRANCH  27  28
HETATM   28  O2  UNL     1      28.873 -31.842  11.562  1.00  0.00    -0.379 OA
HETATM   29  C7  UNL     1      30.155 -31.413  11.269  1.00  0.00     0.202 C 
ENDBRANCH  27  28
BRANCH  27  30
HETATM   30  C8  UNL     1      27.296 -32.075  13.264  1.00  0.00     0.106 A 
HETATM   31  C9  UNL     1      26.757 -30.914  13.793  1.00  0.00     0.127 A 
HETATM   32  N8  UNL     1      25.466 -31.137  14.005  1.00  0.00    -0.328 N 
HETATM   33  C10 UNL     1      25.182 -32.394  13.626  1.00  0.00     0.243 A 
ATOM     34  H8  UNL     1      24.801 -30.466  14.390  1.00  0.00     0.168 HD
HETATM   35  O4  UNL     1      26.301 -32.923  13.189  1.00  0.00    -0.278 OA
BRANCH  33  36
HETATM   36  N9  UNL     1      24.030 -33.003  13.669  1.00  0.00    -0.265 N 
ATOM     37  H9  UNL     1      23.982 -34.020  13.731  1.00  0.00     0.190 HD
BRANCH  36  38
HETATM   38  N10 UNL     1      22.867 -32.236  13.631  1.00  0.00    -0.306 N 
ATOM     39  H10 UNL     1      22.808 -31.407  13.040  1.00  0.00     0.186 HD
BRANCH  38  40
HETATM   40  C11 UNL     1      21.875 -32.596  14.355  1.00  0.00     0.144 C 
BRANCH  40  41
HETATM   41  C12 UNL     1      21.916 -32.517  15.811  1.00  0.00     0.091 A 
HETATM   42  C13 UNL     1      21.115 -33.212  16.689  1.00  0.00     0.040 A 
HETATM   43  C14 UNL     1      21.520 -32.810  17.951  1.00  0.00     0.027 A 
HETATM   44  C15 UNL     1      22.539 -31.899  17.792  1.00  0.00     0.142 A 
HETATM   45  O3  UNL     1      22.745 -31.751  16.506  1.00  0.00    -0.321 OA
ENDBRANCH  40  41
ENDBRANCH  38  40
ENDBRANCH  36  38
ENDBRANCH  33  36
ENDBRANCH  27  30
ENDBRANCH  26  27
ENDBRANCH  24  26
ENDBRANCH   1  24
TORSDOF 16
ENDMDL
MODEL 4
REMARK VINA RESULT: -8.128368367      1.379      1.563
REMARK  16 active torsions:
REMARK  status: ('A' for Active; 'I' for Inactive)
REMARK    1  A    between atoms: N1_2  and  N2_4 
REMARK    2  A    between atoms: N2_4  and  C2_6 
REMARK    3  A    between atoms: C2_6  and  N3_7 
REMARK    4  A    between atoms: C2_6  and  C3_11 
REMARK    5  A    between atoms: N3_7  and  O1_9 
REMARK    6  A    between atoms: C4_16  and  N6_17 
REMARK    7  A    between atoms: N6_17  and  N7_19 
REMARK    8  A    between atoms: N7_19  and  C5_21 
REMARK    9  A    between atoms: C5_21  and  C6_22 
REMARK   10  A    between atoms: C6_22  and  O2_23 
REMARK   11  A    between atoms: C6_22  and  C8_25 
REMARK   12  A    between atoms: C10_29  and  N9_30 
REMARK   13  A    between atoms: N9_30  and  N10_32 
REMARK   14  A    between atoms: N10_32  and  C11_34 
REMARK   15  A    between atoms: C11_34  and  C12_35 
REMARK   16  A    between atoms: C16_43  and  O5_44 
ROOT
HETATM    1  N6  UNL     1      29.345 -35.294  10.840  1.00  0.00    -0.131 N 
ATOM      2  H6  UNL     1      30.193 -35.830  10.654  1.00  0.00     0.205 HD
ENDROOT
BRANCH   1   3
HETATM    3  C4  UNL     1      28.509 -35.092   9.877  1.00  0.00     0.713 A 
HETATM    4  N5  UNL     1      28.356 -33.905   9.262  1.00  0.00    -0.130 N 
HETATM    5  N4  UNL     1      27.482 -33.737   8.273  1.00  0.00    -0.279 N 
ATOM      6  H5  UNL     1      28.924 -33.113   9.562  1.00  0.00     0.205 HD
HETATM    7  C3  UNL     1      26.694 -34.729   7.820  1.00  0.00     0.147 A 
ATOM      8  H4  UNL     1      27.406 -32.816   7.840  1.00  0.00     0.188 HD
HETATM    9  C16 UNL     1      26.837 -35.956   8.441  1.00  0.00     0.187 A 
HETATM   10  N11 UNL     1      27.735 -36.104   9.447  1.00  0.00    -0.166 N 
ATOM     11  H11 UNL     1      27.825 -37.017   9.893  1.00  0.00     0.186 HD
BRANCH   7  12
HETATM   12  C2  UNL     1      25.733 -34.563   6.739  1.00  0.00     0.172 C 
BRANCH  12  13
HETATM   13  N2  UNL     1      26.138 -34.222   5.421  1.00  0.00    -0.283 N 
ATOM     14  H2  UNL     1      26.737 -34.849   4.884  1.00  0.00     0.188 HD
BRANCH  13  15
HETATM   15  N1  UNL     1      25.709 -33.024   4.876  1.00  0.00    -0.320 N 
HETATM   16  C1  UNL     1      26.008 -32.619   3.700  1.00  0.00     0.139 C 
ATOM     17  H1  UNL     1      25.115 -32.425   5.450  1.00  0.00     0.185 HD
ENDBRANCH  13  15
ENDBRANCH  12  13
BRANCH  12  18
HETATM   18  N3  UNL     1      24.471 -34.721   6.938  1.00  0.00    -0.250 N 
ATOM     19  H3  UNL     1      24.004 -34.101   7.599  1.00  0.00     0.196 HD
BRANCH  18  20
HETATM   20  O1  UNL     1      23.723 -35.680   6.308  1.00  0.00    -0.288 OA
ATOM     21  H1  UNL     1      23.264 -35.530   5.489  1.00  0.00     0.244 HD
ENDBRANCH  18  20
ENDBRANCH  12  18
ENDBRANCH   7  12
BRANCH   9  22
HETATM   22  O5  UNL     1      26.051 -37.003   8.010  1.00  0.00    -0.344 OA
ATOM     23  H5  UNL     1      26.401 -37.587   7.348  1.00  0.00     0.219 HD
ENDBRANCH   9  22
ENDBRANCH   1   3
BRANCH   1  24
HETATM   24  N7  UNL     1      29.127 -34.804  12.118  1.00  0.00    -0.298 N 
ATOM     25  H7  UNL     1      28.407 -35.216  12.711  1.00  0.00     0.186 HD
BRANCH  24  26
HETATM   26  C5  UNL     1      29.838 -33.833  12.545  1.00  0.00     0.119 C 
BRANCH  26  27
HETATM   27  C6  UNL     1      29.423 -32.437  12.316  1.00  0.00     0.219 C 
BRANCH  27  28
HETATM   28  O2  UNL     1      29.716 -31.992  11.030  1.00  0.00    -0.379 OA
HETATM   29  C7  UNL     1      30.081 -30.659  10.982  1.00  0.00     0.202 C 
ENDBRANCH  27  28
BRANCH  27  30
HETATM   30  C8  UNL     1      27.976 -32.238  12.564  1.00  0.00     0.106 A 
HETATM   31  C9  UNL     1      27.450 -31.466  13.586  1.00  0.00     0.127 A 
HETATM   32  N8  UNL     1      26.128 -31.527  13.489  1.00  0.00    -0.328 N 
HETATM   33  C10 UNL     1      25.813 -32.308  12.442  1.00  0.00     0.243 A 
ATOM     34  H8  UNL     1      25.463 -31.060  14.105  1.00  0.00     0.168 HD
HETATM   35  O4  UNL     1      26.944 -32.715  11.914  1.00  0.00    -0.278 OA
BRANCH  33  36
HETATM   36  N9  UNL     1      24.625 -32.623  12.006  1.00  0.00    -0.265 N 
ATOM     37  H9  UNL     1      24.475 -33.487  11.484  1.00  0.00     0.190 HD
BRANCH  36  38
HETATM   38  N10 UNL     1      23.566 -31.757  12.269  1.00  0.00    -0.306 N 
ATOM     39  H10 UNL     1      23.102 -31.255  11.511  1.00  0.00     0.186 HD
BRANCH  38  40
HETATM   40  C11 UNL     1      23.189 -31.603  13.482  1.00  0.00     0.144 C 
BRANCH  40  41
HETATM   41  C12 UNL     1      22.701 -32.720  14.284  1.00  0.00     0.091 A 
HETATM   42  C13 UNL     1      21.437 -32.857  14.811  1.00  0.00     0.040 A 
HETATM   43  C14 UNL     1      21.449 -34.065  15.487  1.00  0.00     0.027 A 
HETATM   44  C15 UNL     1      22.705 -34.609  15.345  1.00  0.00     0.142 A 
HETATM   45  O3  UNL     1      23.421 -33.781  14.624  1.00  0.00    -0.321 OA
ENDBRANCH  40  41
ENDBRANCH  38  40
ENDBRANCH  36  38
ENDBRANCH  33  36
ENDBRANCH  27  30
ENDBRANCH  26  27
ENDBRANCH  24  26
ENDBRANCH   1  24
TORSDOF 16
ENDMDL
MODEL 5
REMARK VINA RESULT: -8.123930729      2.996      6.862
REMARK  16 active torsions:
REMARK  status: ('A' for Active; 'I' for Inactive)
REMARK    1  A    between atoms: N1_2  and  N2_4 
REMARK    2  A    between atoms: N2_4  and  C2_6 
REMARK    3  A    between atoms: C2_6  and  N3_7 
REMARK    4  A    between atoms: C2_6  and  C3_11 
REMARK    5  A    between atoms: N3_7  and  O1_9 
REMARK    6  A    between atoms: C4_16  and  N6_17 
REMARK    7  A    between atoms: N6_17  and  N7_19 
REMARK    8  A    between atoms: N7_19  and  C5_21 
REMARK    9  A    between atoms: C5_21  and  C6_22 
REMARK   10  A    between atoms: C6_22  and  O2_23 
REMARK   11  A    between atoms: C6_22  and  C8_25 
REMARK   12  A    between atoms: C10_29  and  N9_30 
REMARK   13  A    between atoms: N9_30  and  N10_32 
REMARK   14  A    between atoms: N10_32  and  C11_34 
REMARK   15  A    between atoms: C11_34  and  C12_35 
REMARK   16  A    between atoms: C16_43  and  O5_44 
ROOT
HETATM    1  N6  UNL     1      29.321 -35.290  11.083  1.00  0.00    -0.131 N 
ATOM      2  H6  UNL     1      29.788 -36.190  11.192  1.00  0.00     0.205 HD
ENDROOT
BRANCH   1   3
HETATM    3  C4  UNL     1      28.584 -35.089  10.042  1.00  0.00     0.713 A 
HETATM    4  N5  UNL     1      28.575 -33.936   9.349  1.00  0.00    -0.130 N 
HETATM    5  N4  UNL     1      27.801 -33.768   8.280  1.00  0.00    -0.279 N 
ATOM      6  H5  UNL     1      29.178 -33.170   9.650  1.00  0.00     0.205 HD
HETATM    7  C3  UNL     1      26.978 -34.727   7.817  1.00  0.00     0.147 A 
ATOM      8  H4  UNL     1      27.833 -32.874   7.789  1.00  0.00     0.188 HD
HETATM    9  C16 UNL     1      26.973 -35.919   8.518  1.00  0.00     0.187 A 
HETATM   10  N11 UNL     1      27.771 -36.068   9.605  1.00  0.00    -0.166 N 
ATOM     11  H11 UNL     1      27.753 -36.954  10.109  1.00  0.00     0.186 HD
BRANCH   7  12
HETATM   12  C2  UNL     1      26.124 -34.560   6.650  1.00  0.00     0.172 C 
BRANCH  12  13
HETATM   13  N2  UNL     1      26.656 -34.501   5.335  1.00  0.00    -0.283 N 
ATOM     14  H2  UNL     1      27.621 -34.780   5.153  1.00  0.00     0.188 HD
BRANCH  13  15
HETATM   15  N1  UNL     1      25.848 -34.057   4.303  1.00  0.00    -0.320 N 
HETATM   16  C1  UNL     1      25.989 -32.933   3.709  1.00  0.00     0.139 C 
ATOM     17  H1  UNL     1      25.090 -34.667   3.995  1.00  0.00     0.185 HD
ENDBRANCH  13  15
ENDBRANCH  12  13
BRANCH  12  18
HETATM   18  N3  UNL     1      24.846 -34.460   6.767  1.00  0.00    -0.250 N 
ATOM     19  H3  UNL     1      24.464 -33.621   7.202  1.00  0.00     0.196 HD
BRANCH  18  20
HETATM   20  O1  UNL     1      23.973 -35.424   6.336  1.00  0.00    -0.288 OA
ATOM     21  H1  UNL     1      23.035 -35.381   6.482  1.00  0.00     0.244 HD
ENDBRANCH  18  20
ENDBRANCH  12  18
ENDBRANCH   7  12
BRANCH   9  22
HETATM   22  O5  UNL     1      26.145 -36.931   8.081  1.00  0.00    -0.344 OA
ATOM     23  H5  UNL     1      26.513 -37.800   7.977  1.00  0.00     0.219 HD
ENDBRANCH   9  22
ENDBRANCH   1   3
BRANCH   1  24
HETATM   24  N7  UNL     1      29.495 -34.321  12.058  1.00  0.00    -0.298 N 
ATOM     25  H7  UNL     1      30.382 -33.824  12.136  1.00  0.00     0.186 HD
BRANCH  24  26
HETATM   26  C5  UNL     1      28.535 -34.058  12.857  1.00  0.00     0.119 C 
BRANCH  26  27
HETATM   27  C6  UNL     1      27.591 -32.964  12.566  1.00  0.00     0.219 C 
BRANCH  27  28
HETATM   28  O2  UNL     1      27.043 -32.404  13.717  1.00  0.00    -0.379 OA
HETATM   29  C7  UNL     1      25.700 -32.098  13.592  1.00  0.00     0.202 C 
ENDBRANCH  27  28
BRANCH  27  30
HETATM   30  C8  UNL     1      28.217 -31.884  11.770  1.00  0.00     0.106 A 
HETATM   31  C9  UNL     1      27.520 -30.948  11.024  1.00  0.00     0.127 A 
HETATM   32  N8  UNL     1      28.414 -30.149  10.455  1.00  0.00    -0.328 N 
HETATM   33  C10 UNL     1      29.641 -30.555  10.820  1.00  0.00     0.243 A 
ATOM     34  H8  UNL     1      28.204 -29.361   9.843  1.00  0.00     0.168 HD
HETATM   35  O4  UNL     1      29.484 -31.594  11.606  1.00  0.00    -0.278 OA
BRANCH  33  36
HETATM   36  N9  UNL     1      30.790 -30.040  10.479  1.00  0.00    -0.265 N 
ATOM     37  H9  UNL     1      31.293 -30.386   9.662  1.00  0.00     0.190 HD
BRANCH  36  38
HETATM   38  N10 UNL     1      31.314 -29.006  11.253  1.00  0.00    -0.306 N 
ATOM     39  H10 UNL     1      31.627 -29.177  12.208  1.00  0.00     0.186 HD
BRANCH  38  40
HETATM   40  C11 UNL     1      31.395 -27.838  10.737  1.00  0.00     0.144 C 
BRANCH  40  41
HETATM   41  C12 UNL     1      32.099 -27.596   9.483  1.00  0.00     0.091 A 
HETATM   42  C13 UNL     1      33.207 -26.799   9.309  1.00  0.00     0.040 A 
HETATM   43  C14 UNL     1      33.510 -26.881   7.959  1.00  0.00     0.027 A 
HETATM   44  C15 UNL     1      32.585 -27.716   7.375  1.00  0.00     0.142 A 
HETATM   45  O3  UNL     1      31.763 -28.120   8.312  1.00  0.00    -0.321 OA
ENDBRANCH  40  41
ENDBRANCH  38  40
ENDBRANCH  36  38
ENDBRANCH  33  36
ENDBRANCH  27  30
ENDBRANCH  26  27
ENDBRANCH  24  26
ENDBRANCH   1  24
TORSDOF 16
ENDMDL
