MODEL 1
REMARK VINA RESULT: -9.102506671      0.000      0.000
REMARK  14 active torsions:
REMARK  status: ('A' for Active; 'I' for Inactive)
REMARK    1  A    between atoms: O1_2  and  C2_3 
REMARK    2  A    between atoms: C4_6  and  O3_7 
REMARK    3  A    between atoms: C5_9  and  O4_10 
REMARK    4  A    between atoms: O4_10  and  C6_11 
REMARK       I    between atoms: C6_11  and  N1_13 
REMARK    5  A    between atoms: N1_13  and  C7_15 
REMARK    6  A    between atoms: C7_15  and  C8_16 
REMARK    7  A    between atoms: C8_16  and  O6_20 
REMARK    8  A    between atoms: O6_20  and  C9_21 
REMARK    9  A    between atoms: C10_24  and  O8_25 
REMARK   10  A    between atoms: O8_25  and  C11_26 
REMARK   11  A    between atoms: C11_26  and  C12_28 
REMARK   12  A    between atoms: C13_29  and  C14_30 
REMARK   13  A    between atoms: C15_32  and  O11_33 
REMARK   14  A    between atoms: C17_36  and  O12_37 
ROOT
HETATM    1  C2  UNL     1      26.786 -34.362   9.653  1.00  0.00     0.291 C 
HETATM    2  O2  UNL     1      25.407 -34.463   9.598  1.00  0.00    -0.356 OA
HETATM    3  C3  UNL     1      24.843 -33.220   9.415  1.00  0.00     0.205 C 
HETATM    4  C4  UNL     1      25.007 -32.324  10.625  1.00  0.00     0.174 C 
HETATM    5  C5  UNL     1      25.895 -33.085  11.617  1.00  0.00     0.198 C 
HETATM    6  C10 UNL     1      27.134 -33.482  10.843  1.00  0.00     0.219 C 
ENDROOT
BRANCH   5   7
HETATM    7  O4  UNL     1      26.317 -32.230  12.662  1.00  0.00    -0.293 OA
BRANCH   7   8
HETATM    8  C6  UNL     1      25.462 -31.716  13.633  1.00  0.00     0.361 C 
HETATM    9  O5  UNL     1      25.860 -30.688  14.234  1.00  0.00    -0.238 OA
HETATM   10  N1  UNL     1      24.207 -32.317  13.934  1.00  0.00    -0.329 N 
ATOM     11  H1  UNL     1      23.893 -33.152  13.439  1.00  0.00     0.165 HD
BRANCH  10  12
HETATM   12  C7  UNL     1      23.390 -31.710  14.961  1.00  0.00     0.209 C 
BRANCH  12  13
HETATM   13  C8  UNL     1      22.676 -32.771  15.715  1.00  0.00     0.140 C 
HETATM   14  N2  UNL     1      21.878 -33.580  15.112  1.00  0.00    -0.382 N 
ATOM     15  H22 UNL     1      21.762 -33.459  14.106  1.00  0.00     0.158 HD
ATOM     16  H21 UNL     1      21.387 -34.309  15.631  1.00  0.00     0.158 HD
BRANCH  13  17
HETATM   17  O6  UNL     1      22.834 -32.935  17.085  1.00  0.00    -0.249 OA
BRANCH  17  18
HETATM   18  C9  UNL     1      21.990 -32.322  17.995  1.00  0.00     0.379 C 
HETATM   19  N3  UNL     1      22.039 -32.531  19.392  1.00  0.00    -0.032 NA
HETATM   20  O7  UNL     1      21.128 -31.526  17.517  1.00  0.00    -0.242 OA
ENDBRANCH  17  18
ENDBRANCH  13  17
ENDBRANCH  12  13
ENDBRANCH  10  12
ENDBRANCH   7   8
ENDBRANCH   5   7
BRANCH   4  21
HETATM   21  O3  UNL     1      23.744 -32.100  11.170  1.00  0.00    -0.391 OA
ATOM     22  H3  UNL     1      23.635 -32.687  11.909  1.00  0.00     0.210 HD
ENDBRANCH   4  21
BRANCH   6  23
HETATM   23  O8  UNL     1      27.694 -32.249  10.361  1.00  0.00    -0.305 OA
BRANCH  23  24
HETATM   24  C11 UNL     1      28.964 -31.870  10.682  1.00  0.00     0.283 C 
HETATM   25  O9  UNL     1      29.857 -32.753  10.765  1.00  0.00    -0.260 OA
BRANCH  24  26
HETATM   26  C12 UNL     1      29.300 -30.447  10.932  1.00  0.00     0.085 C 
HETATM   27  C13 UNL     1      30.452 -29.949  10.587  1.00  0.00     0.046 C 
BRANCH  27  28
HETATM   28  C14 UNL     1      30.850 -28.569  10.799  1.00  0.00     0.111 A 
HETATM   29  O10 UNL     1      31.550 -28.172  11.848  1.00  0.00    -0.285 OA
HETATM   30  C15 UNL     1      31.790 -26.905  11.830  1.00  0.00     0.186 A 
HETATM   31  C16 UNL     1      31.212 -26.394  10.683  1.00  0.00     0.103 A 
HETATM   32  C17 UNL     1      30.625 -27.462  10.050  1.00  0.00     0.104 A 
BRANCH  30  33
HETATM   33  O11 UNL     1      32.481 -26.095  12.725  1.00  0.00    -0.341 OA
ATOM     34  H11 UNL     1      33.236 -25.532  12.601  1.00  0.00     0.220 HD
ENDBRANCH  30  33
BRANCH  32  35
HETATM   35  O12 UNL     1      29.941 -27.358   8.860  1.00  0.00    -0.358 OA
ATOM     36  H12 UNL     1      30.194 -27.681   8.003  1.00  0.00     0.217 HD
ENDBRANCH  32  35
ENDBRANCH  27  28
ENDBRANCH  24  26
ENDBRANCH  23  24
ENDBRANCH   6  23
BRANCH   1  37
HETATM   37  O1  UNL     1      27.258 -33.829   8.457  1.00  0.00    -0.363 OA
HETATM   38  C1  UNL     1      27.340 -34.844   7.502  1.00  0.00     0.204 C 
ENDBRANCH   1  37
TORSDOF 14
ENDMDL
MODEL 2
REMARK VINA RESULT: -9.028246040      0.685      1.380
REMARK  14 active torsions:
REMARK  status: ('A' for Active; 'I' for Inactive)
REMARK    1  A    between atoms: O1_2  and  C2_3 
REMARK    2  A    between atoms: C4_6  and  O3_7 
REMARK    3  A    between atoms: C5_9  and  O4_10 
REMARK    4  A    between atoms: O4_10  and  C6_11 
REMARK       I    between atoms: C6_11  and  N1_13 
REMARK    5  A    between atoms: N1_13  and  C7_15 
REMARK    6  A    between atoms: C7_15  and  C8_16 
REMARK    7  A    between atoms: C8_16  and  O6_20 
REMARK    8  A    between atoms: O6_20  and  C9_21 
REMARK    9  A    between atoms: C10_24  and  O8_25 
REMARK   10  A    between atoms: O8_25  and  C11_26 
REMARK   11  A    between atoms: C11_26  and  C12_28 
REMARK   12  A    between atoms: C13_29  and  C14_30 
REMARK   13  A    between atoms: C15_32  and  O11_33 
REMARK   14  A    between atoms: C17_36  and  O12_37 
ROOT
HETATM    1  C2  UNL     1      26.899 -34.442   9.698  1.00  0.00     0.291 C 
HETATM    2  O2  UNL     1      25.535 -34.351   9.479  1.00  0.00    -0.356 OA
HETATM    3  C3  UNL     1      25.164 -33.037   9.311  1.00  0.00     0.205 C 
HETATM    4  C4  UNL     1      25.293 -32.228  10.585  1.00  0.00     0.174 C 
HETATM    5  C5  UNL     1      25.947 -33.148  11.623  1.00  0.00     0.198 C 
HETATM    6  C10 UNL     1      27.210 -33.673  10.973  1.00  0.00     0.219 C 
ENDROOT
BRANCH   5   7
HETATM    7  O4  UNL     1      26.345 -32.407  12.761  1.00  0.00    -0.293 OA
BRANCH   7   8
HETATM    8  C6  UNL     1      25.451 -31.841  13.665  1.00  0.00     0.361 C 
HETATM    9  O5  UNL     1      25.854 -30.822  14.278  1.00  0.00    -0.238 OA
HETATM   10  N1  UNL     1      24.154 -32.380  13.889  1.00  0.00    -0.329 N 
ATOM     11  H1  UNL     1      23.836 -33.209  13.386  1.00  0.00     0.165 HD
BRANCH  10  12
HETATM   12  C7  UNL     1      23.299 -31.721  14.852  1.00  0.00     0.209 C 
BRANCH  12  13
HETATM   13  C8  UNL     1      22.619 -32.742  15.689  1.00  0.00     0.140 C 
HETATM   14  N2  UNL     1      21.774 -33.560  15.169  1.00  0.00    -0.382 N 
ATOM     15  H22 UNL     1      21.597 -33.476  14.167  1.00  0.00     0.158 HD
ATOM     16  H21 UNL     1      21.307 -34.262  15.744  1.00  0.00     0.158 HD
BRANCH  13  17
HETATM   17  O6  UNL     1      22.860 -32.857  17.052  1.00  0.00    -0.249 OA
BRANCH  17  18
HETATM   18  C9  UNL     1      22.019 -32.287  17.991  1.00  0.00     0.379 C 
HETATM   19  N3  UNL     1      22.125 -32.496  19.386  1.00  0.00    -0.032 NA
HETATM   20  O7  UNL     1      21.104 -31.531  17.545  1.00  0.00    -0.242 OA
ENDBRANCH  17  18
ENDBRANCH  13  17
ENDBRANCH  12  13
ENDBRANCH  10  12
ENDBRANCH   7   8
ENDBRANCH   5   7
BRANCH   4  21
HETATM   21  O3  UNL     1      24.012 -31.861  10.994  1.00  0.00    -0.391 OA
ATOM     22  H3  UNL     1      23.876 -30.953  10.751  1.00  0.00     0.210 HD
ENDBRANCH   4  21
BRANCH   6  23
HETATM   23  O8  UNL     1      27.979 -32.506  10.637  1.00  0.00    -0.305 OA
BRANCH  23  24
HETATM   24  C11 UNL     1      29.294 -32.397  10.982  1.00  0.00     0.283 C 
HETATM   25  O9  UNL     1      29.831 -33.334  11.626  1.00  0.00    -0.260 OA
BRANCH  24  26
HETATM   26  C12 UNL     1      30.086 -31.198  10.611  1.00  0.00     0.085 C 
HETATM   27  C13 UNL     1      29.681 -29.998  10.910  1.00  0.00     0.046 C 
BRANCH  27  28
HETATM   28  C14 UNL     1      30.401 -28.780  10.580  1.00  0.00     0.111 A 
HETATM   29  O10 UNL     1      30.131 -28.048   9.513  1.00  0.00    -0.285 OA
HETATM   30  C15 UNL     1      30.893 -27.012   9.420  1.00  0.00     0.186 A 
HETATM   31  C16 UNL     1      31.752 -27.035  10.504  1.00  0.00     0.103 A 
HETATM   32  C17 UNL     1      31.421 -28.159  11.221  1.00  0.00     0.104 A 
BRANCH  30  33
HETATM   33  O11 UNL     1      30.944 -25.998   8.469  1.00  0.00    -0.341 OA
ATOM     34  H11 UNL     1      30.390 -25.238   8.337  1.00  0.00     0.220 HD
ENDBRANCH  30  33
BRANCH  32  35
HETATM   35  O12 UNL     1      32.057 -28.534  12.382  1.00  0.00    -0.358 OA
ATOM     36  H12 UNL     1      31.859 -28.274  13.274  1.00  0.00     0.217 HD
ENDBRANCH  32  35
ENDBRANCH  27  28
ENDBRANCH  24  26
ENDBRANCH  23  24
ENDBRANCH   6  23
BRANCH   1  37
HETATM   37  O1  UNL     1      27.578 -33.922   8.600  1.00  0.00    -0.363 OA
HETATM   38  C1  UNL     1      27.503 -34.829   7.542  1.00  0.00     0.204 C 
ENDBRANCH   1  37
TORSDOF 14
ENDMDL
MODEL 3
REMARK VINA RESULT: -8.890542156      3.312      8.368
REMARK  14 active torsions:
REMARK  status: ('A' for Active; 'I' for Inactive)
REMARK    1  A    between atoms: O1_2  and  C2_3 
REMARK    2  A    between atoms: C4_6  and  O3_7 
REMARK    3  A    between atoms: C5_9  and  O4_10 
REMARK    4  A    between atoms: O4_10  and  C6_11 
REMARK       I    between atoms: C6_11  and  N1_13 
REMARK    5  A    between atoms: N1_13  and  C7_15 
REMARK    6  A    between atoms: C7_15  and  C8_16 
REMARK    7  A    between atoms: C8_16  and  O6_20 
REMARK    8  A    between atoms: O6_20  and  C9_21 
REMARK    9  A    between atoms: C10_24  and  O8_25 
REMARK   10  A    between atoms: O8_25  and  C11_26 
REMARK   11  A    between atoms: C11_26  and  C12_28 
REMARK   12  A    between atoms: C13_29  and  C14_30 
REMARK   13  A    between atoms: C15_32  and  O11_33 
REMARK   14  A    between atoms: C17_36  and  O12_37 
ROOT
HETATM    1  C2  UNL     1      26.810 -33.928   8.322  1.00  0.00     0.291 C 
HETATM    2  O2  UNL     1      27.876 -34.799   8.178  1.00  0.00    -0.356 OA
HETATM    3  C3  UNL     1      27.998 -35.596   9.293  1.00  0.00     0.205 C 
HETATM    4  C4  UNL     1      28.438 -34.821  10.517  1.00  0.00     0.174 C 
HETATM    5  C5  UNL     1      28.463 -33.342  10.113  1.00  0.00     0.198 C 
HETATM    6  C10 UNL     1      27.096 -33.050   9.530  1.00  0.00     0.219 C 
ENDROOT
BRANCH   5   7
HETATM    7  O4  UNL     1      28.609 -32.519  11.255  1.00  0.00    -0.293 OA
BRANCH   7   8
HETATM    8  C6  UNL     1      29.629 -31.584  11.407  1.00  0.00     0.361 C 
HETATM    9  O5  UNL     1      30.467 -31.820  12.312  1.00  0.00    -0.238 OA
HETATM   10  N1  UNL     1      29.724 -30.424  10.589  1.00  0.00    -0.329 N 
ATOM     11  H1  UNL     1      29.038 -30.242   9.856  1.00  0.00     0.165 HD
BRANCH  10  12
HETATM   12  C7  UNL     1      30.819 -29.510  10.826  1.00  0.00     0.209 C 
BRANCH  12  13
HETATM   13  C8  UNL     1      30.354 -28.116  10.616  1.00  0.00     0.140 C 
HETATM   14  N2  UNL     1      29.734 -27.787   9.537  1.00  0.00    -0.382 N 
ATOM     15  H22 UNL     1      29.579 -28.520   8.845  1.00  0.00     0.158 HD
ATOM     16  H21 UNL     1      29.414 -26.829   9.393  1.00  0.00     0.158 HD
BRANCH  13  17
HETATM   17  O6  UNL     1      30.564 -27.118  11.558  1.00  0.00    -0.249 OA
BRANCH  17  18
HETATM   18  C9  UNL     1      31.835 -26.774  11.984  1.00  0.00     0.379 C 
HETATM   19  N3  UNL     1      32.336 -27.030  13.282  1.00  0.00    -0.032 NA
HETATM   20  O7  UNL     1      32.578 -26.195  11.136  1.00  0.00    -0.242 OA
ENDBRANCH  17  18
ENDBRANCH  13  17
ENDBRANCH  12  13
ENDBRANCH  10  12
ENDBRANCH   7   8
ENDBRANCH   5   7
BRANCH   4  21
HETATM   21  O3  UNL     1      29.716 -35.256  10.865  1.00  0.00    -0.391 OA
ATOM     22  H3  UNL     1      30.123 -34.578  11.392  1.00  0.00     0.210 HD
ENDBRANCH   4  21
BRANCH   6  23
HETATM   23  O8  UNL     1      26.160 -33.371  10.572  1.00  0.00    -0.305 OA
BRANCH  23  24
HETATM   24  C11 UNL     1      25.287 -32.442  11.056  1.00  0.00     0.283 C 
HETATM   25  O9  UNL     1      25.004 -31.446  10.341  1.00  0.00    -0.260 OA
BRANCH  24  26
HETATM   26  C12 UNL     1      24.676 -32.592  12.399  1.00  0.00     0.085 C 
HETATM   27  C13 UNL     1      23.453 -32.211  12.636  1.00  0.00     0.046 C 
BRANCH  27  28
HETATM   28  C14 UNL     1      22.790 -32.325  13.923  1.00  0.00     0.111 A 
HETATM   29  O10 UNL     1      21.720 -33.079  14.119  1.00  0.00    -0.285 OA
HETATM   30  C15 UNL     1      21.300 -33.030  15.337  1.00  0.00     0.186 A 
HETATM   31  C16 UNL     1      22.143 -32.179  16.029  1.00  0.00     0.103 A 
HETATM   32  C17 UNL     1      23.074 -31.748  15.115  1.00  0.00     0.104 A 
BRANCH  30  33
HETATM   33  O11 UNL     1      20.226 -33.658  15.958  1.00  0.00    -0.341 OA
ATOM     34  H11 UNL     1      19.290 -33.588  15.808  1.00  0.00     0.220 HD
ENDBRANCH  30  33
BRANCH  32  35
HETATM   35  O12 UNL     1      24.095 -30.878  15.423  1.00  0.00    -0.358 OA
ATOM     36  H12 UNL     1      24.050 -30.064  15.910  1.00  0.00     0.217 HD
ENDBRANCH  32  35
ENDBRANCH  27  28
ENDBRANCH  24  26
ENDBRANCH  23  24
ENDBRANCH   6  23
BRANCH   1  37
HETATM   37  O1  UNL     1      25.635 -34.660   8.479  1.00  0.00    -0.363 OA
HETATM   38  C1  UNL     1      24.731 -34.297   7.480  1.00  0.00     0.204 C 
ENDBRANCH   1  37
TORSDOF 14
ENDMDL
MODEL 4
REMARK VINA RESULT: -8.793477355      3.395      8.833
REMARK  14 active torsions:
REMARK  status: ('A' for Active; 'I' for Inactive)
REMARK    1  A    between atoms: O1_2  and  C2_3 
REMARK    2  A    between atoms: C4_6  and  O3_7 
REMARK    3  A    between atoms: C5_9  and  O4_10 
REMARK    4  A    between atoms: O4_10  and  C6_11 
REMARK       I    between atoms: C6_11  and  N1_13 
REMARK    5  A    between atoms: N1_13  and  C7_15 
REMARK    6  A    between atoms: C7_15  and  C8_16 
REMARK    7  A    between atoms: C8_16  and  O6_20 
REMARK    8  A    between atoms: O6_20  and  C9_21 
REMARK    9  A    between atoms: C10_24  and  O8_25 
REMARK   10  A    between atoms: O8_25  and  C11_26 
REMARK   11  A    between atoms: C11_26  and  C12_28 
REMARK   12  A    between atoms: C13_29  and  C14_30 
REMARK   13  A    between atoms: C15_32  and  O11_33 
REMARK   14  A    between atoms: C17_36  and  O12_37 
ROOT
HETATM    1  C2  UNL     1      26.849 -33.825   8.386  1.00  0.00     0.291 C 
HETATM    2  O2  UNL     1      27.877 -34.731   8.190  1.00  0.00    -0.356 OA
HETATM    3  C3  UNL     1      27.966 -35.593   9.259  1.00  0.00     0.205 C 
HETATM    4  C4  UNL     1      28.440 -34.906  10.522  1.00  0.00     0.174 C 
HETATM    5  C5  UNL     1      28.528 -33.409  10.200  1.00  0.00     0.198 C 
HETATM    6  C10 UNL     1      27.175 -33.028   9.639  1.00  0.00     0.219 C 
ENDROOT
BRANCH   5   7
HETATM    7  O4  UNL     1      28.711 -32.657  11.384  1.00  0.00    -0.293 OA
BRANCH   7   8
HETATM    8  C6  UNL     1      29.672 -31.659  11.525  1.00  0.00     0.361 C 
HETATM    9  O5  UNL     1      30.492 -31.808  12.464  1.00  0.00    -0.238 OA
HETATM   10  N1  UNL     1      29.727 -30.532  10.658  1.00  0.00    -0.329 N 
ATOM     11  H1  UNL     1      29.057 -30.421   9.898  1.00  0.00     0.165 HD
BRANCH  10  12
HETATM   12  C7  UNL     1      30.762 -29.547  10.887  1.00  0.00     0.209 C 
BRANCH  12  13
HETATM   13  C8  UNL     1      30.732 -28.538   9.799  1.00  0.00     0.140 C 
HETATM   14  N2  UNL     1      29.768 -27.689   9.717  1.00  0.00    -0.382 N 
ATOM     15  H22 UNL     1      29.037 -27.743  10.427  1.00  0.00     0.158 HD
ATOM     16  H21 UNL     1      29.747 -26.996   8.969  1.00  0.00     0.158 HD
BRANCH  13  17
HETATM   17  O6  UNL     1      31.727 -28.465   8.833  1.00  0.00    -0.249 OA
BRANCH  17  18
HETATM   18  C9  UNL     1      32.567 -27.370   8.733  1.00  0.00     0.379 C 
HETATM   19  N3  UNL     1      33.153 -26.923   7.526  1.00  0.00    -0.032 NA
HETATM   20  O7  UNL     1      32.811 -26.746   9.809  1.00  0.00    -0.242 OA
ENDBRANCH  17  18
ENDBRANCH  13  17
ENDBRANCH  12  13
ENDBRANCH  10  12
ENDBRANCH   7   8
ENDBRANCH   5   7
BRANCH   4  21
HETATM   21  O3  UNL     1      29.699 -35.413  10.842  1.00  0.00    -0.391 OA
ATOM     22  H3  UNL     1      29.719 -35.580  11.776  1.00  0.00     0.210 HD
ENDBRANCH   4  21
BRANCH   6  23
HETATM   23  O8  UNL     1      26.227 -33.365  10.665  1.00  0.00    -0.305 OA
BRANCH  23  24
HETATM   24  C11 UNL     1      25.330 -32.450  11.135  1.00  0.00     0.283 C 
HETATM   25  O9  UNL     1      25.047 -31.456  10.418  1.00  0.00    -0.260 OA
BRANCH  24  26
HETATM   26  C12 UNL     1      24.696 -32.614  12.466  1.00  0.00     0.085 C 
HETATM   27  C13 UNL     1      23.479 -32.211  12.693  1.00  0.00     0.046 C 
BRANCH  27  28
HETATM   28  C14 UNL     1      22.794 -32.337  13.967  1.00  0.00     0.111 A 
HETATM   29  O10 UNL     1      21.731 -33.104  14.142  1.00  0.00    -0.285 OA
HETATM   30  C15 UNL     1      21.288 -33.063  15.353  1.00  0.00     0.186 A 
HETATM   31  C16 UNL     1      22.108 -32.203  16.062  1.00  0.00     0.103 A 
HETATM   32  C17 UNL     1      23.050 -31.759  15.166  1.00  0.00     0.104 A 
BRANCH  30  33
HETATM   33  O11 UNL     1      20.211 -33.706  15.953  1.00  0.00    -0.341 OA
ATOM     34  H11 UNL     1      19.337 -33.892  15.630  1.00  0.00     0.220 HD
ENDBRANCH  30  33
BRANCH  32  35
HETATM   35  O12 UNL     1      24.054 -30.878  15.494  1.00  0.00    -0.358 OA
ATOM     36  H12 UNL     1      24.927 -31.070  15.815  1.00  0.00     0.217 HD
ENDBRANCH  32  35
ENDBRANCH  27  28
ENDBRANCH  24  26
ENDBRANCH  23  24
ENDBRANCH   6  23
BRANCH   1  37
HETATM   37  O1  UNL     1      25.645 -34.513   8.507  1.00  0.00    -0.363 OA
HETATM   38  C1  UNL     1      24.768 -34.084   7.509  1.00  0.00     0.204 C 
ENDBRANCH   1  37
TORSDOF 14
ENDMDL
MODEL 5
REMARK VINA RESULT: -8.756289098      3.260      8.301
REMARK  14 active torsions:
REMARK  status: ('A' for Active; 'I' for Inactive)
REMARK    1  A    between atoms: O1_2  and  C2_3 
REMARK    2  A    between atoms: C4_6  and  O3_7 
REMARK    3  A    between atoms: C5_9  and  O4_10 
REMARK    4  A    between atoms: O4_10  and  C6_11 
REMARK       I    between atoms: C6_11  and  N1_13 
REMARK    5  A    between atoms: N1_13  and  C7_15 
REMARK    6  A    between atoms: C7_15  and  C8_16 
REMARK    7  A    between atoms: C8_16  and  O6_20 
REMARK    8  A    between atoms: O6_20  and  C9_21 
REMARK    9  A    between atoms: C10_24  and  O8_25 
REMARK   10  A    between atoms: O8_25  and  C11_26 
REMARK   11  A    between atoms: C11_26  and  C12_28 
REMARK   12  A    between atoms: C13_29  and  C14_30 
REMARK   13  A    between atoms: C15_32  and  O11_33 
REMARK   14  A    between atoms: C17_36  and  O12_37 
ROOT
HETATM    1  C2  UNL     1      26.637 -33.686   8.565  1.00  0.00     0.291 C 
HETATM    2  O2  UNL     1      27.653 -34.560   8.215  1.00  0.00    -0.356 OA
HETATM    3  C3  UNL     1      27.856 -35.483   9.216  1.00  0.00     0.205 C 
HETATM    4  C4  UNL     1      28.443 -34.863  10.467  1.00  0.00     0.174 C 
HETATM    5  C5  UNL     1      28.480 -33.349  10.231  1.00  0.00     0.198 C 
HETATM    6  C10 UNL     1      27.074 -32.959   9.827  1.00  0.00     0.219 C 
ENDROOT
BRANCH   5   7
HETATM    7  O4  UNL     1      28.769 -32.666  11.436  1.00  0.00    -0.293 OA
BRANCH   7   8
HETATM    8  C6  UNL     1      29.743 -31.679  11.550  1.00  0.00     0.361 C 
HETATM    9  O5  UNL     1      30.578 -31.828  12.476  1.00  0.00    -0.238 OA
HETATM   10  N1  UNL     1      29.797 -30.561  10.671  1.00  0.00    -0.329 N 
ATOM     11  H1  UNL     1      29.115 -30.449   9.922  1.00  0.00     0.165 HD
BRANCH  10  12
HETATM   12  C7  UNL     1      30.847 -29.586  10.872  1.00  0.00     0.209 C 
BRANCH  12  13
HETATM   13  C8  UNL     1      30.301 -28.221  10.665  1.00  0.00     0.140 C 
HETATM   14  N2  UNL     1      29.660 -27.928   9.588  1.00  0.00    -0.382 N 
ATOM     15  H22 UNL     1      29.546 -28.669   8.896  1.00  0.00     0.158 HD
ATOM     16  H21 UNL     1      29.284 -26.990   9.446  1.00  0.00     0.158 HD
BRANCH  13  17
HETATM   17  O6  UNL     1      30.455 -27.214  11.607  1.00  0.00    -0.249 OA
BRANCH  17  18
HETATM   18  C9  UNL     1      31.705 -26.763  11.994  1.00  0.00     0.379 C 
HETATM   19  N3  UNL     1      32.347 -27.130  13.199  1.00  0.00    -0.032 NA
HETATM   20  O7  UNL     1      32.291 -25.970  11.197  1.00  0.00    -0.242 OA
ENDBRANCH  17  18
ENDBRANCH  13  17
ENDBRANCH  12  13
ENDBRANCH  10  12
ENDBRANCH   7   8
ENDBRANCH   5   7
BRANCH   4  21
HETATM   21  O3  UNL     1      29.733 -35.365  10.632  1.00  0.00    -0.391 OA
ATOM     22  H3  UNL     1      29.689 -36.096  11.236  1.00  0.00     0.210 HD
ENDBRANCH   4  21
BRANCH   6  23
HETATM   23  O8  UNL     1      26.235 -33.375  10.918  1.00  0.00    -0.305 OA
BRANCH  23  24
HETATM   24  C11 UNL     1      25.360 -32.513  11.512  1.00  0.00     0.283 C 
HETATM   25  O9  UNL     1      24.944 -31.524  10.856  1.00  0.00    -0.260 OA
BRANCH  24  26
HETATM   26  C12 UNL     1      24.902 -32.728  12.906  1.00  0.00     0.085 C 
HETATM   27  C13 UNL     1      23.704 -32.390  13.287  1.00  0.00     0.046 C 
BRANCH  27  28
HETATM   28  C14 UNL     1      23.185 -32.569  14.632  1.00  0.00     0.111 A 
HETATM   29  O10 UNL     1      23.300 -31.652  15.578  1.00  0.00    -0.285 OA
HETATM   30  C15 UNL     1      22.767 -32.024  16.692  1.00  0.00     0.186 A 
HETATM   31  C16 UNL     1      22.248 -33.291  16.496  1.00  0.00     0.103 A 
HETATM   32  C17 UNL     1      22.524 -33.612  15.190  1.00  0.00     0.104 A 
BRANCH  30  33
HETATM   33  O11 UNL     1      22.668 -31.375  17.918  1.00  0.00    -0.341 OA
ATOM     34  H11 UNL     1      22.294 -31.657  18.745  1.00  0.00     0.220 HD
ENDBRANCH  30  33
BRANCH  32  35
HETATM   35  O12 UNL     1      22.164 -34.806  14.608  1.00  0.00    -0.358 OA
ATOM     36  H12 UNL     1      21.640 -35.508  14.976  1.00  0.00     0.217 HD
ENDBRANCH  32  35
ENDBRANCH  27  28
ENDBRANCH  24  26
ENDBRANCH  23  24
ENDBRANCH   6  23
BRANCH   1  37
HETATM   37  O1  UNL     1      25.459 -34.402   8.760  1.00  0.00    -0.363 OA
HETATM   38  C1  UNL     1      24.497 -33.960   7.850  1.00  0.00     0.204 C 
ENDBRANCH   1  37
TORSDOF 14
ENDMDL
