MODEL 1
REMARK VINA RESULT: -5.790276038      0.000      0.000
REMARK  12 active torsions:
REMARK  status: ('A' for Active; 'I' for Inactive)
REMARK    1  A    between atoms: O1_2  and  C2_3 
REMARK    2  A    between atoms: C2_3  and  O2_4 
REMARK    3  A    between atoms: C2_3  and  C3_6 
REMARK    4  A    between atoms: C3_6  and  O5_14 
REMARK       I    between atoms: N1_7  and  C4_9 
REMARK    5  A    between atoms: C4_9  and  O4_11 
REMARK    6  A    between atoms: O5_14  and  C6_15 
REMARK    7  A    between atoms: C7_17  and  C8_18 
REMARK    8  A    between atoms: C8_18  and  N3_19 
REMARK    9  A    between atoms: C11_22  and  O7_23 
REMARK   10  A    between atoms: C15_30  and  N5_31 
REMARK   11  A    between atoms: N5_31  and  C16_33 
REMARK   12  A    between atoms: C16_33  and  O8_35 
ROOT
HETATM    1  O4  UNL     1      26.381 -32.996  14.250  1.00  0.00    -0.186 OA
HETATM    2  C5  UNL     1      27.428 -33.536  13.560  1.00  0.00     0.238 C 
HETATM    3  N2  UNL     1      28.329 -33.987  12.984  1.00  0.00    -0.163 NA
ENDROOT
BRANCH   1   4
HETATM    4  C4  UNL     1      25.877 -31.756  13.881  1.00  0.00     0.381 C 
HETATM    5  N1  UNL     1      26.320 -31.165  12.650  1.00  0.00    -0.281 N 
HETATM    6  C3  UNL     1      25.639 -31.430  11.586  1.00  0.00     0.181 C 
ATOM      7  H1  UNL     1      27.140 -30.559  12.617  1.00  0.00     0.173 HD
HETATM    8  O3  UNL     1      25.047 -31.194  14.641  1.00  0.00    -0.237 OA
BRANCH   6   9
HETATM    9  C2  UNL     1      24.441 -32.304  11.579  1.00  0.00     0.332 C 
BRANCH   9  10
HETATM   10  O1  UNL     1      23.377 -31.615  12.121  1.00  0.00    -0.359 OA
HETATM   11  C1  UNL     1      22.673 -32.335  13.071  1.00  0.00     0.205 C 
ENDBRANCH   9  10
BRANCH   9  12
HETATM   12  O2  UNL     1      24.120 -32.573  10.233  1.00  0.00    -0.364 OA
ATOM     13  H2  UNL     1      24.601 -33.353   9.981  1.00  0.00     0.213 HD
ENDBRANCH   9  12
ENDBRANCH   6   9
BRANCH   6  14
HETATM   14  O5  UNL     1      26.082 -30.849  10.405  1.00  0.00    -0.299 OA
BRANCH  14  15
HETATM   15  C6  UNL     1      27.436 -30.725  10.067  1.00  0.00     0.305 C 
HETATM   16  O6  UNL     1      28.245 -30.338  11.111  1.00  0.00    -0.345 OA
HETATM   17  C7  UNL     1      29.368 -29.687  10.611  1.00  0.00     0.201 C 
HETATM   18  C11 UNL     1      30.583 -30.588  10.593  1.00  0.00     0.249 C 
HETATM   19  N4  UNL     1      30.396 -31.750   9.770  1.00  0.00    -0.361 N 
HETATM   20  C12 UNL     1      29.207 -32.487   9.451  1.00  0.00     0.041 A 
ATOM     21  H4  UNL     1      31.248 -32.109   9.340  1.00  0.00     0.162 HD
HETATM   22  C13 UNL     1      29.475 -33.752   8.978  1.00  0.00     0.032 A 
HETATM   23  C19 UNL     1      27.909 -32.048   9.578  1.00  0.00     0.025 A 
HETATM   24  C14 UNL     1      28.442 -34.599   8.623  1.00  0.00     0.031 A 
HETATM   25  C15 UNL     1      27.141 -34.183   8.740  1.00  0.00     0.030 A 
HETATM   26  C18 UNL     1      26.903 -32.912   9.217  1.00  0.00     0.043 A 
BRANCH  17  27
HETATM   27  C8  UNL     1      29.736 -28.477  11.452  1.00  0.00     0.307 C 
BRANCH  27  28
HETATM   28  N3  UNL     1      30.816 -27.800  10.716  1.00  0.00     0.082 N 
HETATM   29  C9  UNL     1      31.600 -26.970  11.611  1.00  0.00     0.309 C 
HETATM   30  C10 UNL     1      30.131 -26.913   9.775  1.00  0.00     0.309 C 
ENDBRANCH  27  28
ENDBRANCH  17  27
BRANCH  18  31
HETATM   31  O7  UNL     1      30.966 -30.940  11.889  1.00  0.00    -0.374 OA
ATOM     32  H7  UNL     1      31.703 -31.539  11.876  1.00  0.00     0.212 HD
ENDBRANCH  18  31
BRANCH  25  33
HETATM   33  N5  UNL     1      26.060 -35.028   8.388  1.00  0.00    -0.364 N 
ATOM     34  H5  UNL     1      25.877 -35.843   8.973  1.00  0.00     0.162 HD
BRANCH  33  35
HETATM   35  C16 UNL     1      25.213 -34.804   7.265  1.00  0.00     0.213 C 
HETATM   36  C17 UNL     1      25.854 -34.139   6.091  1.00  0.00     0.063 C 
BRANCH  35  37
HETATM   37  O8  UNL     1      24.078 -34.097   7.718  1.00  0.00    -0.377 OA
ATOM     38  H8  UNL     1      23.652 -33.719   6.957  1.00  0.00     0.212 HD
ENDBRANCH  35  37
ENDBRANCH  33  35
ENDBRANCH  25  33
ENDBRANCH  14  15
ENDBRANCH   6  14
ENDBRANCH   1   4
TORSDOF 12
ENDMDL
MODEL 2
REMARK VINA RESULT: -5.535940543      2.141      5.721
REMARK  12 active torsions:
REMARK  status: ('A' for Active; 'I' for Inactive)
REMARK    1  A    between atoms: O1_2  and  C2_3 
REMARK    2  A    between atoms: C2_3  and  O2_4 
REMARK    3  A    between atoms: C2_3  and  C3_6 
REMARK    4  A    between atoms: C3_6  and  O5_14 
REMARK       I    between atoms: N1_7  and  C4_9 
REMARK    5  A    between atoms: C4_9  and  O4_11 
REMARK    6  A    between atoms: O5_14  and  C6_15 
REMARK    7  A    between atoms: C7_17  and  C8_18 
REMARK    8  A    between atoms: C8_18  and  N3_19 
REMARK    9  A    between atoms: C11_22  and  O7_23 
REMARK   10  A    between atoms: C15_30  and  N5_31 
REMARK   11  A    between atoms: N5_31  and  C16_33 
REMARK   12  A    between atoms: C16_33  and  O8_35 
ROOT
HETATM    1  O4  UNL     1      31.207 -30.028   9.793  1.00  0.00    -0.186 OA
HETATM    2  C5  UNL     1      31.658 -28.791   9.433  1.00  0.00     0.238 C 
HETATM    3  N2  UNL     1      32.048 -27.736   9.142  1.00  0.00    -0.163 NA
ENDROOT
BRANCH   1   4
HETATM    4  C4  UNL     1      29.934 -30.170  10.327  1.00  0.00     0.381 C 
HETATM    5  N1  UNL     1      29.146 -31.311   9.953  1.00  0.00    -0.281 N 
HETATM    6  C3  UNL     1      29.252 -32.369  10.684  1.00  0.00     0.181 C 
ATOM      7  H1  UNL     1      28.528 -31.286   9.142  1.00  0.00     0.173 HD
HETATM    8  O3  UNL     1      29.513 -29.291  11.123  1.00  0.00    -0.237 OA
BRANCH   6   9
HETATM    9  C2  UNL     1      30.136 -32.458  11.872  1.00  0.00     0.332 C 
BRANCH   9  10
HETATM   10  O1  UNL     1      29.441 -32.029  12.983  1.00  0.00    -0.359 OA
HETATM   11  C1  UNL     1      29.027 -33.058  13.811  1.00  0.00     0.205 C 
ENDBRANCH   9  10
BRANCH   9  12
HETATM   12  O2  UNL     1      30.440 -33.819  12.073  1.00  0.00    -0.364 OA
ATOM     13  H2  UNL     1      29.749 -34.324  11.660  1.00  0.00     0.213 HD
ENDBRANCH   9  12
ENDBRANCH   6   9
BRANCH   6  14
HETATM   14  O5  UNL     1      28.483 -33.463  10.307  1.00  0.00    -0.299 OA
BRANCH  14  15
HETATM   15  C6  UNL     1      27.125 -33.597  10.625  1.00  0.00     0.305 C 
HETATM   16  O6  UNL     1      26.580 -32.498  11.250  1.00  0.00    -0.345 OA
HETATM   17  C7  UNL     1      25.498 -32.896  12.028  1.00  0.00     0.201 C 
HETATM   18  C11 UNL     1      24.177 -32.605  11.350  1.00  0.00     0.249 C 
HETATM   19  N4  UNL     1      24.039 -33.288  10.095  1.00  0.00    -0.361 N 
HETATM   20  C12 UNL     1      25.028 -33.690   9.136  1.00  0.00     0.041 A 
ATOM     21  H4  UNL     1      23.080 -33.527   9.844  1.00  0.00     0.162 HD
HETATM   22  C13 UNL     1      24.493 -33.946   7.894  1.00  0.00     0.032 A 
HETATM   23  C19 UNL     1      26.379 -33.828   9.359  1.00  0.00     0.025 A 
HETATM   24  C14 UNL     1      25.307 -34.345   6.851  1.00  0.00     0.031 A 
HETATM   25  C15 UNL     1      26.656 -34.489   7.048  1.00  0.00     0.030 A 
HETATM   26  C18 UNL     1      27.164 -34.227   8.303  1.00  0.00     0.043 A 
BRANCH  17  27
HETATM   27  C8  UNL     1      25.472 -32.173  13.364  1.00  0.00     0.307 C 
BRANCH  27  28
HETATM   28  N3  UNL     1      24.060 -32.170  13.781  1.00  0.00     0.082 N 
HETATM   29  C9  UNL     1      23.791 -31.048  14.661  1.00  0.00     0.309 C 
HETATM   30  C10 UNL     1      23.897 -33.396  14.563  1.00  0.00     0.309 C 
ENDBRANCH  27  28
ENDBRANCH  17  27
BRANCH  18  31
HETATM   31  O7  UNL     1      23.981 -31.230  11.206  1.00  0.00    -0.374 OA
ATOM     32  H7  UNL     1      23.498 -31.036  10.411  1.00  0.00     0.212 HD
ENDBRANCH  18  31
BRANCH  25  33
HETATM   33  N5  UNL     1      27.518 -34.894   6.000  1.00  0.00    -0.364 N 
ATOM     34  H5  UNL     1      28.301 -35.506   6.230  1.00  0.00     0.162 HD
BRANCH  33  35
HETATM   35  C16 UNL     1      27.354 -34.495   4.642  1.00  0.00     0.213 C 
HETATM   36  C17 UNL     1      26.054 -33.838   4.310  1.00  0.00     0.063 C 
BRANCH  35  37
HETATM   37  O8  UNL     1      27.598 -35.624   3.831  1.00  0.00    -0.377 OA
ATOM     38  H8  UNL     1      28.479 -35.545   3.484  1.00  0.00     0.212 HD
ENDBRANCH  35  37
ENDBRANCH  33  35
ENDBRANCH  25  33
ENDBRANCH  14  15
ENDBRANCH   6  14
ENDBRANCH   1   4
TORSDOF 12
ENDMDL
MODEL 3
REMARK VINA RESULT: -5.434067087      2.253      7.055
REMARK  12 active torsions:
REMARK  status: ('A' for Active; 'I' for Inactive)
REMARK    1  A    between atoms: O1_2  and  C2_3 
REMARK    2  A    between atoms: C2_3  and  O2_4 
REMARK    3  A    between atoms: C2_3  and  C3_6 
REMARK    4  A    between atoms: C3_6  and  O5_14 
REMARK       I    between atoms: N1_7  and  C4_9 
REMARK    5  A    between atoms: C4_9  and  O4_11 
REMARK    6  A    between atoms: O5_14  and  C6_15 
REMARK    7  A    between atoms: C7_17  and  C8_18 
REMARK    8  A    between atoms: C8_18  and  N3_19 
REMARK    9  A    between atoms: C11_22  and  O7_23 
REMARK   10  A    between atoms: C15_30  and  N5_31 
REMARK   11  A    between atoms: N5_31  and  C16_33 
REMARK   12  A    between atoms: C16_33  and  O8_35 
ROOT
HETATM    1  O4  UNL     1      30.601 -28.669   9.457  1.00  0.00    -0.186 OA
HETATM    2  C5  UNL     1      31.813 -28.282   8.962  1.00  0.00     0.238 C 
HETATM    3  N2  UNL     1      32.849 -27.969   8.541  1.00  0.00    -0.163 NA
ENDROOT
BRANCH   1   4
HETATM    4  C4  UNL     1      30.405 -28.737  10.829  1.00  0.00     0.381 C 
HETATM    5  N1  UNL     1      29.209 -29.355  11.331  1.00  0.00    -0.281 N 
HETATM    6  C3  UNL     1      29.253 -30.623  11.570  1.00  0.00     0.181 C 
ATOM      7  H1  UNL     1      28.360 -28.814  11.491  1.00  0.00     0.173 HD
HETATM    8  O3  UNL     1      31.284 -28.254  11.587  1.00  0.00    -0.237 OA
BRANCH   6   9
HETATM    9  C2  UNL     1      30.461 -31.455  11.353  1.00  0.00     0.332 C 
BRANCH   9  10
HETATM   10  O1  UNL     1      30.203 -32.742  11.775  1.00  0.00    -0.359 OA
HETATM   11  C1  UNL     1      30.155 -32.876  13.153  1.00  0.00     0.205 C 
ENDBRANCH   9  10
BRANCH   9  12
HETATM   12  O2  UNL     1      30.693 -31.512   9.964  1.00  0.00    -0.364 OA
ATOM     13  H2  UNL     1      30.518 -30.645   9.615  1.00  0.00     0.213 HD
ENDBRANCH   9  12
ENDBRANCH   6   9
BRANCH   6  14
HETATM   14  O5  UNL     1      28.087 -31.203  12.055  1.00  0.00    -0.299 OA
BRANCH  14  15
HETATM   15  C6  UNL     1      26.969 -31.472  11.254  1.00  0.00     0.305 C 
HETATM   16  O6  UNL     1      26.992 -32.708  10.649  1.00  0.00    -0.345 OA
HETATM   17  C7  UNL     1      26.235 -32.668   9.484  1.00  0.00     0.201 C 
HETATM   18  C11 UNL     1      24.868 -33.287   9.677  1.00  0.00     0.249 C 
HETATM   19  N4  UNL     1      24.094 -32.612  10.680  1.00  0.00    -0.361 N 
HETATM   20  C12 UNL     1      24.505 -31.902  11.857  1.00  0.00     0.041 A 
ATOM     21  H4  UNL     1      23.085 -32.641  10.530  1.00  0.00     0.162 HD
HETATM   22  C13 UNL     1      23.487 -31.748  12.770  1.00  0.00     0.032 A 
HETATM   23  C19 UNL     1      25.760 -31.400  12.117  1.00  0.00     0.025 A 
HETATM   24  C14 UNL     1      23.711 -31.087  13.962  1.00  0.00     0.031 A 
HETATM   25  C15 UNL     1      24.952 -30.578  14.244  1.00  0.00     0.030 A 
HETATM   26  C18 UNL     1      25.953 -30.747  13.311  1.00  0.00     0.043 A 
BRANCH  17  27
HETATM   27  C8  UNL     1      26.903 -33.432   8.353  1.00  0.00     0.307 C 
BRANCH  27  28
HETATM   28  N3  UNL     1      27.819 -34.380   9.007  1.00  0.00     0.082 N 
HETATM   29  C9  UNL     1      29.197 -34.065   8.682  1.00  0.00     0.309 C 
HETATM   30  C10 UNL     1      27.508 -35.679   8.407  1.00  0.00     0.309 C 
ENDBRANCH  27  28
ENDBRANCH  17  27
BRANCH  18  31
HETATM   31  O7  UNL     1      24.970 -34.654   9.948  1.00  0.00    -0.374 OA
ATOM     32  H7  UNL     1      24.812 -34.832  10.867  1.00  0.00     0.212 HD
ENDBRANCH  18  31
BRANCH  25  33
HETATM   33  N5  UNL     1      25.216 -29.899  15.458  1.00  0.00    -0.364 N 
ATOM     34  H5  UNL     1      25.227 -30.442  16.321  1.00  0.00     0.162 HD
BRANCH  33  35
HETATM   35  C16 UNL     1      25.467 -28.499  15.543  1.00  0.00     0.213 C 
HETATM   36  C17 UNL     1      25.864 -27.991  16.891  1.00  0.00     0.063 C 
BRANCH  35  37
HETATM   37  O8  UNL     1      24.331 -27.828  15.040  1.00  0.00    -0.377 OA
ATOM     38  H8  UNL     1      23.704 -27.752  15.749  1.00  0.00     0.212 HD
ENDBRANCH  35  37
ENDBRANCH  33  35
ENDBRANCH  25  33
ENDBRANCH  14  15
ENDBRANCH   6  14
ENDBRANCH   1   4
TORSDOF 12
ENDMDL
MODEL 4
REMARK VINA RESULT: -5.355861649      1.830      2.880
REMARK  12 active torsions:
REMARK  status: ('A' for Active; 'I' for Inactive)
REMARK    1  A    between atoms: O1_2  and  C2_3 
REMARK    2  A    between atoms: C2_3  and  O2_4 
REMARK    3  A    between atoms: C2_3  and  C3_6 
REMARK    4  A    between atoms: C3_6  and  O5_14 
REMARK       I    between atoms: N1_7  and  C4_9 
REMARK    5  A    between atoms: C4_9  and  O4_11 
REMARK    6  A    between atoms: O5_14  and  C6_15 
REMARK    7  A    between atoms: C7_17  and  C8_18 
REMARK    8  A    between atoms: C8_18  and  N3_19 
REMARK    9  A    between atoms: C11_22  and  O7_23 
REMARK   10  A    between atoms: C15_30  and  N5_31 
REMARK   11  A    between atoms: N5_31  and  C16_33 
REMARK   12  A    between atoms: C16_33  and  O8_35 
ROOT
HETATM    1  O4  UNL     1      25.609 -29.694  15.450  1.00  0.00    -0.186 OA
HETATM    2  C5  UNL     1      25.235 -28.397  15.652  1.00  0.00     0.238 C 
HETATM    3  N2  UNL     1      24.907 -27.299  15.837  1.00  0.00    -0.163 NA
ENDROOT
BRANCH   1   4
HETATM    4  C4  UNL     1      24.807 -30.534  14.690  1.00  0.00     0.381 C 
HETATM    5  N1  UNL     1      25.003 -30.584  13.268  1.00  0.00    -0.281 N 
HETATM    6  C3  UNL     1      25.840 -31.457  12.816  1.00  0.00     0.181 C 
ATOM      7  H1  UNL     1      24.502 -29.955  12.641  1.00  0.00     0.173 HD
HETATM    8  O3  UNL     1      23.934 -31.225  15.275  1.00  0.00    -0.237 OA
BRANCH   6   9
HETATM    9  C2  UNL     1      26.594 -32.394  13.684  1.00  0.00     0.332 C 
BRANCH   9  10
HETATM   10  O1  UNL     1      26.954 -33.501  12.946  1.00  0.00    -0.359 OA
HETATM   11  C1  UNL     1      28.211 -33.991  13.255  1.00  0.00     0.205 C 
ENDBRANCH   9  10
BRANCH   9  12
HETATM   12  O2  UNL     1      27.785 -31.747  14.071  1.00  0.00    -0.364 OA
ATOM     13  H2  UNL     1      28.026 -32.092  14.923  1.00  0.00     0.213 HD
ENDBRANCH   9  12
ENDBRANCH   6   9
BRANCH   6  14
HETATM   14  O5  UNL     1      26.017 -31.491  11.439  1.00  0.00    -0.299 OA
BRANCH  14  15
HETATM   15  C6  UNL     1      27.166 -31.011  10.797  1.00  0.00     0.305 C 
HETATM   16  O6  UNL     1      28.048 -30.360  11.629  1.00  0.00    -0.345 OA
HETATM   17  C7  UNL     1      28.795 -29.447  10.892  1.00  0.00     0.201 C 
HETATM   18  C11 UNL     1      30.178 -29.972  10.578  1.00  0.00     0.249 C 
HETATM   19  N4  UNL     1      30.146 -31.181   9.803  1.00  0.00    -0.361 N 
HETATM   20  C12 UNL     1      29.176 -32.237   9.759  1.00  0.00     0.041 A 
ATOM     21  H4  UNL     1      30.945 -31.309   9.181  1.00  0.00     0.162 HD
HETATM   22  C13 UNL     1      29.677 -33.399   9.216  1.00  0.00     0.032 A 
HETATM   23  C19 UNL     1      27.871 -32.172  10.190  1.00  0.00     0.025 A 
HETATM   24  C14 UNL     1      28.875 -34.518   9.098  1.00  0.00     0.031 A 
HETATM   25  C15 UNL     1      27.572 -34.478   9.522  1.00  0.00     0.030 A 
HETATM   26  C18 UNL     1      27.097 -33.301  10.061  1.00  0.00     0.043 A 
BRANCH  17  27
HETATM   27  C8  UNL     1      28.984 -28.140  11.643  1.00  0.00     0.307 C 
BRANCH  27  28
HETATM   28  N3  UNL     1      29.460 -27.175  10.639  1.00  0.00     0.082 N 
HETATM   29  C9  UNL     1      30.705 -26.566  11.066  1.00  0.00     0.309 C 
HETATM   30  C10 UNL     1      28.440 -26.126  10.613  1.00  0.00     0.309 C 
ENDBRANCH  27  28
ENDBRANCH  17  27
BRANCH  18  31
HETATM   31  O7  UNL     1      30.930 -30.135  11.744  1.00  0.00    -0.374 OA
ATOM     32  H7  UNL     1      30.815 -29.395  12.329  1.00  0.00     0.212 HD
ENDBRANCH  18  31
BRANCH  25  33
HETATM   33  N5  UNL     1      26.725 -35.608   9.418  1.00  0.00    -0.364 N 
ATOM     34  H5  UNL     1      26.145 -35.849  10.222  1.00  0.00     0.162 HD
BRANCH  33  35
HETATM   35  C16 UNL     1      26.635 -36.427   8.256  1.00  0.00     0.213 C 
HETATM   36  C17 UNL     1      27.374 -37.724   8.317  1.00  0.00     0.063 C 
BRANCH  35  37
HETATM   37  O8  UNL     1      27.031 -35.645   7.149  1.00  0.00    -0.377 OA
ATOM     38  H8  UNL     1      27.276 -36.239   6.450  1.00  0.00     0.212 HD
ENDBRANCH  35  37
ENDBRANCH  33  35
ENDBRANCH  25  33
ENDBRANCH  14  15
ENDBRANCH   6  14
ENDBRANCH   1   4
TORSDOF 12
ENDMDL
MODEL 5
REMARK VINA RESULT: -5.161542133      1.452      2.367
REMARK  12 active torsions:
REMARK  status: ('A' for Active; 'I' for Inactive)
REMARK    1  A    between atoms: O1_2  and  C2_3 
REMARK    2  A    between atoms: C2_3  and  O2_4 
REMARK    3  A    between atoms: C2_3  and  C3_6 
REMARK    4  A    between atoms: C3_6  and  O5_14 
REMARK       I    between atoms: N1_7  and  C4_9 
REMARK    5  A    between atoms: C4_9  and  O4_11 
REMARK    6  A    between atoms: O5_14  and  C6_15 
REMARK    7  A    between atoms: C7_17  and  C8_18 
REMARK    8  A    between atoms: C8_18  and  N3_19 
REMARK    9  A    between atoms: C11_22  and  O7_23 
REMARK   10  A    between atoms: C15_30  and  N5_31 
REMARK   11  A    between atoms: N5_31  and  C16_33 
REMARK   12  A    between atoms: C16_33  and  O8_35 
ROOT
HETATM    1  O4  UNL     1      23.249 -31.670  14.251  1.00  0.00    -0.186 OA
HETATM    2  C5  UNL     1      22.195 -32.129  14.988  1.00  0.00     0.238 C 
HETATM    3  N2  UNL     1      21.310 -32.524  15.627  1.00  0.00    -0.163 NA
ENDROOT
BRANCH   1   4
HETATM    4  C4  UNL     1      23.914 -32.529  13.388  1.00  0.00     0.381 C 
HETATM    5  N1  UNL     1      24.312 -32.046  12.096  1.00  0.00    -0.281 N 
HETATM    6  C3  UNL     1      25.484 -31.512  11.998  1.00  0.00     0.181 C 
ATOM      7  H1  UNL     1      23.693 -32.120  11.288  1.00  0.00     0.173 HD
HETATM    8  O3  UNL     1      24.146 -33.705  13.769  1.00  0.00    -0.237 OA
BRANCH   6   9
HETATM    9  C2  UNL     1      26.420 -31.379  13.140  1.00  0.00     0.332 C 
BRANCH   9  10
HETATM   10  O1  UNL     1      25.716 -30.972  14.254  1.00  0.00    -0.359 OA
HETATM   11  C1  UNL     1      25.983 -29.668  14.634  1.00  0.00     0.205 C 
ENDBRANCH   9  10
BRANCH   9  12
HETATM   12  O2  UNL     1      26.933 -32.662  13.419  1.00  0.00    -0.364 OA
ATOM     13  H2  UNL     1      27.801 -32.705  13.037  1.00  0.00     0.213 HD
ENDBRANCH   9  12
ENDBRANCH   6   9
BRANCH   6  14
HETATM   14  O5  UNL     1      25.851 -31.050  10.740  1.00  0.00    -0.299 OA
BRANCH  14  15
HETATM   15  C6  UNL     1      27.183 -30.855  10.349  1.00  0.00     0.305 C 
HETATM   16  O6  UNL     1      28.028 -30.508  11.378  1.00  0.00    -0.345 OA
HETATM   17  C7  UNL     1      29.103 -29.785  10.871  1.00  0.00     0.201 C 
HETATM   18  C11 UNL     1      30.345 -30.638  10.737  1.00  0.00     0.249 C 
HETATM   19  N4  UNL     1      30.157 -31.749   9.847  1.00  0.00    -0.361 N 
HETATM   20  C12 UNL     1      28.979 -32.507   9.536  1.00  0.00     0.041 A 
ATOM     21  H4  UNL     1      30.999 -32.048   9.356  1.00  0.00     0.162 HD
HETATM   22  C13 UNL     1      29.266 -33.728   8.967  1.00  0.00     0.032 A 
HETATM   23  C19 UNL     1      27.675 -32.125   9.751  1.00  0.00     0.025 A 
HETATM   24  C14 UNL     1      28.247 -34.587   8.604  1.00  0.00     0.031 A 
HETATM   25  C15 UNL     1      26.940 -34.228   8.809  1.00  0.00     0.030 A 
HETATM   26  C18 UNL     1      26.682 -33.000   9.381  1.00  0.00     0.043 A 
BRANCH  17  27
HETATM   27  C8  UNL     1      29.470 -28.619  11.774  1.00  0.00     0.307 C 
BRANCH  27  28
HETATM   28  N3  UNL     1      30.240 -27.693  10.926  1.00  0.00     0.082 N 
HETATM   29  C9  UNL     1      31.425 -27.232  11.623  1.00  0.00     0.309 C 
HETATM   30  C10 UNL     1      29.360 -26.539  10.736  1.00  0.00     0.309 C 
ENDBRANCH  27  28
ENDBRANCH  17  27
BRANCH  18  31
HETATM   31  O7  UNL     1      30.802 -31.058  11.988  1.00  0.00    -0.374 OA
ATOM     32  H7  UNL     1      31.684 -31.406  11.929  1.00  0.00     0.212 HD
ENDBRANCH  18  31
BRANCH  25  33
HETATM   33  N5  UNL     1      25.872 -35.087   8.452  1.00  0.00    -0.364 N 
ATOM     34  H5  UNL     1      25.688 -35.898   9.043  1.00  0.00     0.162 HD
BRANCH  33  35
HETATM   35  C16 UNL     1      25.038 -34.883   7.315  1.00  0.00     0.213 C 
HETATM   36  C17 UNL     1      25.720 -34.353   6.096  1.00  0.00     0.063 C 
BRANCH  35  37
HETATM   37  O8  UNL     1      23.959 -34.065   7.715  1.00  0.00    -0.377 OA
ATOM     38  H8  UNL     1      23.181 -34.610   7.746  1.00  0.00     0.212 HD
ENDBRANCH  35  37
ENDBRANCH  33  35
ENDBRANCH  25  33
ENDBRANCH  14  15
ENDBRANCH   6  14
ENDBRANCH   1   4
TORSDOF 12
ENDMDL
