MODEL 1
REMARK VINA RESULT: -8.168034536      0.000      0.000
REMARK  13 active torsions:
REMARK  status: ('A' for Active; 'I' for Inactive)
REMARK    1  A    between atoms: N1_2  and  N2_3 
REMARK    2  A    between atoms: N1_2  and  S1_7 
REMARK    3  A    between atoms: N2_3  and  O1_5 
REMARK    4  A    between atoms: S1_7  and  C2_10 
REMARK    5  A    between atoms: C4_12  and  N3_13 
REMARK    6  A    between atoms: N3_13  and  N4_15 
REMARK    7  A    between atoms: N4_15  and  C5_17 
REMARK    8  A    between atoms: C8_22  and  N5_23 
REMARK    9  A    between atoms: N5_23  and  C9_25 
REMARK   10  A    between atoms: C9_25  and  C10_29 
REMARK   11  A    between atoms: C10_29  and  N7_30 
REMARK   12  A    between atoms: C10_29  and  O6_34 
REMARK   13  A    between atoms: C15_41  and  O8_42 
ROOT
HETATM    1  N4  UNL     1      23.741 -32.569  11.447  1.00  0.00    -0.298 N 
ATOM      2  H4  UNL     1      23.364 -33.498  11.264  1.00  0.00     0.187 HD
ENDROOT
BRANCH   1   3
HETATM    3  N3  UNL     1      24.229 -31.820  10.401  1.00  0.00    -0.300 N 
ATOM      4  H3  UNL     1      23.747 -30.953  10.163  1.00  0.00     0.187 HD
BRANCH   3   5
HETATM    5  C4  UNL     1      25.373 -32.189   9.631  1.00  0.00     0.049 C 
HETATM    6  C3  UNL     1      26.614 -32.057  10.243  1.00  0.00     0.059 C 
HETATM    7  C2  UNL     1      27.790 -32.662   9.891  1.00  0.00     0.120 C 
HETATM    8  C15 UNL     1      27.982 -33.676   8.947  1.00  0.00     0.139 C 
HETATM    9  C14 UNL     1      27.149 -34.062   7.917  1.00  0.00     0.206 C 
HETATM   10  C13 UNL     1      25.935 -33.498   7.574  1.00  0.00     0.060 C 
HETATM   11  O7  UNL     1      27.550 -35.023   7.236  1.00  0.00    -0.285 OA
HETATM   12  C12 UNL     1      25.145 -32.644   8.349  1.00  0.00     0.035 C 
BRANCH   7  13
HETATM   13  S1  UNL     1      29.225 -32.121  10.700  1.00  0.00     0.282 S 
HETATM   14  O2  UNL     1      30.349 -32.091   9.686  1.00  0.00    -0.199 OA
HETATM   15  O3  UNL     1      29.022 -30.666  11.098  1.00  0.00    -0.199 OA
BRANCH  13  16
HETATM   16  N1  UNL     1      29.633 -33.089  12.031  1.00  0.00    -0.199 N 
HETATM   17  C1  UNL     1      29.961 -32.499  13.303  1.00  0.00     0.194 C 
BRANCH  16  18
HETATM   18  N2  UNL     1      29.654 -34.473  11.908  1.00  0.00    -0.199 N 
ATOM     19  H2  UNL     1      30.532 -34.958  11.724  1.00  0.00     0.216 HD
BRANCH  18  20
HETATM   20  O1  UNL     1      28.578 -35.129  12.025  1.00  0.00    -0.274 OA
ATOM     21  H1  UNL     1      28.121 -35.425  11.246  1.00  0.00     0.246 HD
ENDBRANCH  18  20
ENDBRANCH  16  18
ENDBRANCH  13  16
ENDBRANCH   7  13
BRANCH   8  22
HETATM   22  O8  UNL     1      29.184 -34.336   9.126  1.00  0.00    -0.356 OA
ATOM     23  H8  UNL     1      29.290 -34.658  10.013  1.00  0.00     0.218 HD
ENDBRANCH   8  22
ENDBRANCH   3   5
ENDBRANCH   1   3
BRANCH   1  24
HETATM   24  C5  UNL     1      23.751 -32.070  12.785  1.00  0.00     0.072 A 
HETATM   25  C6  UNL     1      24.878 -31.465  13.318  1.00  0.00     0.177 A 
HETATM   26  O4  UNL     1      24.875 -31.010  14.548  1.00  0.00    -0.284 OA
HETATM   27  C7  UNL     1      23.845 -31.086  15.350  1.00  0.00     0.314 A 
HETATM   28  O5  UNL     1      23.936 -30.614  16.535  1.00  0.00    -0.257 OA
HETATM   29  C8  UNL     1      22.682 -31.669  14.909  1.00  0.00     0.112 A 
HETATM   30  C11 UNL     1      22.648 -32.166  13.603  1.00  0.00     0.068 A 
BRANCH  29  31
HETATM   31  N5  UNL     1      21.543 -31.769  15.751  1.00  0.00    -0.338 N 
ATOM     32  H5  UNL     1      20.930 -30.962  15.865  1.00  0.00     0.167 HD
BRANCH  31  33
HETATM   33  C9  UNL     1      21.245 -32.980  16.437  1.00  0.00     0.132 C 
HETATM   34  N6  UNL     1      20.845 -34.007  15.781  1.00  0.00    -0.385 N 
ATOM     35  H62 UNL     1      20.736 -33.972  14.767  1.00  0.00     0.157 HD
ATOM     36  H61 UNL     1      20.632 -34.874  16.273  1.00  0.00     0.157 HD
BRANCH  33  37
HETATM   37  C10 UNL     1      21.403 -33.030  17.905  1.00  0.00     0.384 C 
BRANCH  37  38
HETATM   38  N7  UNL     1      22.060 -31.783  18.312  1.00  0.00    -0.046 N 
ATOM     39  H73 UNL     1      21.929 -31.567  19.300  1.00  0.00     0.277 HD
ATOM     40  H72 UNL     1      23.078 -31.853  18.327  1.00  0.00     0.277 HD
ATOM     41  H71 UNL     1      21.719 -31.047  17.693  1.00  0.00     0.277 HD
ENDBRANCH  37  38
BRANCH  37  42
HETATM   42  O6  UNL     1      20.159 -33.050  18.562  1.00  0.00    -0.364 OA
ATOM     43  H6  UNL     1      20.245 -32.837  19.484  1.00  0.00     0.212 HD
ENDBRANCH  37  42
ENDBRANCH  33  37
ENDBRANCH  31  33
ENDBRANCH  29  31
ENDBRANCH   1  24
TORSDOF 13
ENDMDL
MODEL 2
REMARK VINA RESULT: -8.069269047      1.753      2.316
REMARK  13 active torsions:
REMARK  status: ('A' for Active; 'I' for Inactive)
REMARK    1  A    between atoms: N1_2  and  N2_3 
REMARK    2  A    between atoms: N1_2  and  S1_7 
REMARK    3  A    between atoms: N2_3  and  O1_5 
REMARK    4  A    between atoms: S1_7  and  C2_10 
REMARK    5  A    between atoms: C4_12  and  N3_13 
REMARK    6  A    between atoms: N3_13  and  N4_15 
REMARK    7  A    between atoms: N4_15  and  C5_17 
REMARK    8  A    between atoms: C8_22  and  N5_23 
REMARK    9  A    between atoms: N5_23  and  C9_25 
REMARK   10  A    between atoms: C9_25  and  C10_29 
REMARK   11  A    between atoms: C10_29  and  N7_30 
REMARK   12  A    between atoms: C10_29  and  O6_34 
REMARK   13  A    between atoms: C15_41  and  O8_42 
ROOT
HETATM    1  N4  UNL     1      24.303 -32.137  10.808  1.00  0.00    -0.298 N 
ATOM      2  H4  UNL     1      24.142 -31.392  10.131  1.00  0.00     0.187 HD
ENDROOT
BRANCH   1   3
HETATM    3  N3  UNL     1      24.708 -33.375  10.366  1.00  0.00    -0.300 N 
ATOM      4  H3  UNL     1      23.992 -34.074  10.168  1.00  0.00     0.187 HD
BRANCH   3   5
HETATM    5  C4  UNL     1      26.075 -33.735  10.170  1.00  0.00     0.049 C 
HETATM    6  C3  UNL     1      27.021 -33.064  10.938  1.00  0.00     0.059 C 
HETATM    7  C2  UNL     1      28.303 -33.453  11.214  1.00  0.00     0.120 C 
HETATM    8  C15 UNL     1      28.905 -34.683  10.934  1.00  0.00     0.139 C 
HETATM    9  C14 UNL     1      28.508 -35.650  10.032  1.00  0.00     0.206 C 
HETATM   10  C13 UNL     1      27.426 -35.592   9.174  1.00  0.00     0.060 C 
HETATM   11  O7  UNL     1      29.212 -36.675  10.002  1.00  0.00    -0.285 OA
HETATM   12  C12 UNL     1      26.337 -34.717   9.237  1.00  0.00     0.035 C 
BRANCH   7  13
HETATM   13  S1  UNL     1      29.321 -32.294  12.007  1.00  0.00     0.282 S 
HETATM   14  O2  UNL     1      28.811 -32.118  13.423  1.00  0.00    -0.199 OA
HETATM   15  O3  UNL     1      30.703 -32.909  12.166  1.00  0.00    -0.199 OA
BRANCH  13  16
HETATM   16  N1  UNL     1      29.380 -30.807  11.194  1.00  0.00    -0.199 N 
HETATM   17  C1  UNL     1      28.252 -29.912  11.207  1.00  0.00     0.194 C 
BRANCH  16  18
HETATM   18  N2  UNL     1      30.525 -30.434  10.500  1.00  0.00    -0.199 N 
ATOM     19  H2  UNL     1      30.868 -29.476  10.555  1.00  0.00     0.216 HD
BRANCH  18  20
HETATM   20  O1  UNL     1      31.138 -31.291   9.799  1.00  0.00    -0.274 OA
ATOM     21  H1  UNL     1      32.088 -31.273   9.759  1.00  0.00     0.246 HD
ENDBRANCH  18  20
ENDBRANCH  16  18
ENDBRANCH  13  16
ENDBRANCH   7  13
BRANCH   8  22
HETATM   22  O8  UNL     1      30.041 -34.896  11.693  1.00  0.00    -0.356 OA
ATOM     23  H8  UNL     1      30.446 -35.736  11.509  1.00  0.00     0.218 HD
ENDBRANCH   8  22
ENDBRANCH   3   5
ENDBRANCH   1   3
BRANCH   1  24
HETATM   24  C5  UNL     1      24.102 -31.874  12.197  1.00  0.00     0.072 A 
HETATM   25  C6  UNL     1      25.109 -31.333  12.980  1.00  0.00     0.177 A 
HETATM   26  O4  UNL     1      24.913 -31.095  14.254  1.00  0.00    -0.284 OA
HETATM   27  C7  UNL     1      23.788 -31.340  14.876  1.00  0.00     0.314 A 
HETATM   28  O5  UNL     1      23.690 -31.075  16.123  1.00  0.00    -0.257 OA
HETATM   29  C8  UNL     1      22.731 -31.876  14.181  1.00  0.00     0.112 A 
HETATM   30  C11 UNL     1      22.904 -32.143  12.820  1.00  0.00     0.068 A 
BRANCH  29  31
HETATM   31  N5  UNL     1      21.495 -32.154  14.822  1.00  0.00    -0.338 N 
ATOM     32  H5  UNL     1      20.658 -31.640  14.545  1.00  0.00     0.167 HD
BRANCH  31  33
HETATM   33  C9  UNL     1      21.406 -33.140  15.844  1.00  0.00     0.132 C 
HETATM   34  N6  UNL     1      21.522 -34.383  15.547  1.00  0.00    -0.385 N 
ATOM     35  H62 UNL     1      21.678 -34.680  14.583  1.00  0.00     0.157 HD
ATOM     36  H61 UNL     1      21.459 -35.089  16.280  1.00  0.00     0.157 HD
BRANCH  33  37
HETATM   37  C10 UNL     1      21.180 -32.710  17.238  1.00  0.00     0.384 C 
BRANCH  37  38
HETATM   38  N7  UNL     1      22.456 -32.856  17.948  1.00  0.00    -0.046 N 
ATOM     39  H73 UNL     1      23.251 -32.496  17.421  1.00  0.00     0.277 HD
ATOM     40  H72 UNL     1      22.539 -32.234  18.752  1.00  0.00     0.277 HD
ATOM     41  H71 UNL     1      22.552 -33.842  18.194  1.00  0.00     0.277 HD
ENDBRANCH  37  38
BRANCH  37  42
HETATM   42  O6  UNL     1      20.844 -31.345  17.314  1.00  0.00    -0.364 OA
ATOM     43  H6  UNL     1      21.606 -30.805  17.490  1.00  0.00     0.212 HD
ENDBRANCH  37  42
ENDBRANCH  33  37
ENDBRANCH  31  33
ENDBRANCH  29  31
ENDBRANCH   1  24
TORSDOF 13
ENDMDL
MODEL 3
REMARK VINA RESULT: -8.056726401      1.280      1.547
REMARK  13 active torsions:
REMARK  status: ('A' for Active; 'I' for Inactive)
REMARK    1  A    between atoms: N1_2  and  N2_3 
REMARK    2  A    between atoms: N1_2  and  S1_7 
REMARK    3  A    between atoms: N2_3  and  O1_5 
REMARK    4  A    between atoms: S1_7  and  C2_10 
REMARK    5  A    between atoms: C4_12  and  N3_13 
REMARK    6  A    between atoms: N3_13  and  N4_15 
REMARK    7  A    between atoms: N4_15  and  C5_17 
REMARK    8  A    between atoms: C8_22  and  N5_23 
REMARK    9  A    between atoms: N5_23  and  C9_25 
REMARK   10  A    between atoms: C9_25  and  C10_29 
REMARK   11  A    between atoms: C10_29  and  N7_30 
REMARK   12  A    between atoms: C10_29  and  O6_34 
REMARK   13  A    between atoms: C15_41  and  O8_42 
ROOT
HETATM    1  N4  UNL     1      24.264 -31.507  12.222  1.00  0.00    -0.298 N 
ATOM      2  H4  UNL     1      24.660 -30.593  12.439  1.00  0.00     0.187 HD
ENDROOT
BRANCH   1   3
HETATM    3  N3  UNL     1      24.109 -31.880  10.906  1.00  0.00    -0.300 N 
ATOM      4  H3  UNL     1      23.161 -31.955  10.536  1.00  0.00     0.187 HD
BRANCH   3   5
HETATM    5  C4  UNL     1      25.200 -32.166  10.032  1.00  0.00     0.049 C 
HETATM    6  C3  UNL     1      26.480 -32.046  10.562  1.00  0.00     0.059 C 
HETATM    7  C2  UNL     1      27.638 -32.596  10.084  1.00  0.00     0.120 C 
HETATM    8  C15 UNL     1      27.781 -33.537   9.060  1.00  0.00     0.139 C 
HETATM    9  C14 UNL     1      26.882 -33.873   8.068  1.00  0.00     0.206 C 
HETATM   10  C13 UNL     1      25.635 -33.316   7.853  1.00  0.00     0.060 C 
HETATM   11  O7  UNL     1      27.251 -34.775   7.294  1.00  0.00    -0.285 OA
HETATM   12  C12 UNL     1      24.888 -32.538   8.741  1.00  0.00     0.035 C 
BRANCH   7  13
HETATM   13  S1  UNL     1      29.118 -32.076  10.824  1.00  0.00     0.282 S 
HETATM   14  O2  UNL     1      30.185 -32.030   9.750  1.00  0.00    -0.199 OA
HETATM   15  O3  UNL     1      28.944 -30.628  11.261  1.00  0.00    -0.199 OA
BRANCH  13  16
HETATM   16  N1  UNL     1      29.593 -33.072  12.111  1.00  0.00    -0.199 N 
HETATM   17  C1  UNL     1      29.924 -32.513  13.396  1.00  0.00     0.194 C 
BRANCH  16  18
HETATM   18  N2  UNL     1      29.668 -34.449  11.939  1.00  0.00    -0.199 N 
ATOM     19  H2  UNL     1      30.573 -34.900  11.803  1.00  0.00     0.216 HD
BRANCH  18  20
HETATM   20  O1  UNL     1      28.608 -35.140  11.952  1.00  0.00    -0.274 OA
ATOM     21  H1  UNL     1      28.632 -36.031  12.281  1.00  0.00     0.246 HD
ENDBRANCH  18  20
ENDBRANCH  16  18
ENDBRANCH  13  16
ENDBRANCH   7  13
BRANCH   8  22
HETATM   22  O8  UNL     1      29.006 -34.179   9.105  1.00  0.00    -0.356 OA
ATOM     23  H8  UNL     1      29.647 -33.772   8.533  1.00  0.00     0.218 HD
ENDBRANCH   8  22
ENDBRANCH   3   5
ENDBRANCH   1   3
BRANCH   1  24
HETATM   24  C5  UNL     1      23.882 -32.375  13.289  1.00  0.00     0.072 A 
HETATM   25  C6  UNL     1      24.467 -33.621  13.447  1.00  0.00     0.177 A 
HETATM   26  O4  UNL     1      24.108 -34.409  14.432  1.00  0.00    -0.284 OA
HETATM   27  C7  UNL     1      23.198 -34.099  15.319  1.00  0.00     0.314 A 
HETATM   28  O5  UNL     1      22.914 -34.933  16.245  1.00  0.00    -0.257 OA
HETATM   29  C8  UNL     1      22.563 -32.883  15.244  1.00  0.00     0.112 A 
HETATM   30  C11 UNL     1      22.920 -32.016  14.206  1.00  0.00     0.068 A 
BRANCH  29  31
HETATM   31  N5  UNL     1      21.571 -32.511  16.188  1.00  0.00    -0.338 N 
ATOM     32  H5  UNL     1      20.596 -32.447  15.894  1.00  0.00     0.167 HD
BRANCH  31  33
HETATM   33  C9  UNL     1      21.916 -32.226  17.539  1.00  0.00     0.132 C 
HETATM   34  N6  UNL     1      22.635 -31.200  17.814  1.00  0.00    -0.385 N 
ATOM     35  H62 UNL     1      22.966 -30.579  17.076  1.00  0.00     0.157 HD
ATOM     36  H61 UNL     1      22.881 -30.996  18.782  1.00  0.00     0.157 HD
BRANCH  33  37
HETATM   37  C10 UNL     1      21.436 -33.126  18.607  1.00  0.00     0.384 C 
BRANCH  37  38
HETATM   38  N7  UNL     1      22.029 -32.659  19.865  1.00  0.00    -0.046 N 
ATOM     39  H73 UNL     1      23.044 -32.752  19.887  1.00  0.00     0.277 HD
ATOM     40  H72 UNL     1      21.987 -31.646  19.975  1.00  0.00     0.277 HD
ATOM     41  H71 UNL     1      21.565 -33.163  20.621  1.00  0.00     0.277 HD
ENDBRANCH  37  38
BRANCH  37  42
HETATM   42  O6  UNL     1      20.041 -33.036  18.775  1.00  0.00    -0.364 OA
ATOM     43  H6  UNL     1      19.716 -33.695  19.378  1.00  0.00     0.212 HD
ENDBRANCH  37  42
ENDBRANCH  33  37
ENDBRANCH  31  33
ENDBRANCH  29  31
ENDBRANCH   1  24
TORSDOF 13
ENDMDL
MODEL 4
REMARK VINA RESULT: -8.049980070      1.725      2.497
REMARK  13 active torsions:
REMARK  status: ('A' for Active; 'I' for Inactive)
REMARK    1  A    between atoms: N1_2  and  N2_3 
REMARK    2  A    between atoms: N1_2  and  S1_7 
REMARK    3  A    between atoms: N2_3  and  O1_5 
REMARK    4  A    between atoms: S1_7  and  C2_10 
REMARK    5  A    between atoms: C4_12  and  N3_13 
REMARK    6  A    between atoms: N3_13  and  N4_15 
REMARK    7  A    between atoms: N4_15  and  C5_17 
REMARK    8  A    between atoms: C8_22  and  N5_23 
REMARK    9  A    between atoms: N5_23  and  C9_25 
REMARK   10  A    between atoms: C9_25  and  C10_29 
REMARK   11  A    between atoms: C10_29  and  N7_30 
REMARK   12  A    between atoms: C10_29  and  O6_34 
REMARK   13  A    between atoms: C15_41  and  O8_42 
ROOT
HETATM    1  N4  UNL     1      25.084 -31.984  13.127  1.00  0.00    -0.298 N 
ATOM      2  H4  UNL     1      25.978 -31.856  13.601  1.00  0.00     0.187 HD
ENDROOT
BRANCH   1   3
HETATM    3  N3  UNL     1      24.913 -31.475  11.860  1.00  0.00    -0.300 N 
ATOM      4  H3  UNL     1      24.373 -30.616  11.754  1.00  0.00     0.187 HD
BRANCH   3   5
HETATM    5  C4  UNL     1      25.450 -32.083  10.685  1.00  0.00     0.049 C 
HETATM    6  C3  UNL     1      26.770 -32.515  10.745  1.00  0.00     0.059 C 
HETATM    7  C2  UNL     1      27.391 -33.425   9.934  1.00  0.00     0.120 C 
HETATM    8  C15 UNL     1      26.807 -34.253   8.971  1.00  0.00     0.139 C 
HETATM    9  C14 UNL     1      25.577 -34.126   8.359  1.00  0.00     0.206 C 
HETATM   10  C13 UNL     1      24.654 -33.114   8.548  1.00  0.00     0.060 C 
HETATM   11  O7  UNL     1      25.284 -35.028   7.553  1.00  0.00    -0.285 OA
HETATM   12  C12 UNL     1      24.611 -32.189   9.595  1.00  0.00     0.035 C 
BRANCH   7  13
HETATM   13  S1  UNL     1      29.110 -33.585  10.105  1.00  0.00     0.282 S 
HETATM   14  O2  UNL     1      29.394 -34.954  10.688  1.00  0.00    -0.199 OA
HETATM   15  O3  UNL     1      29.722 -33.621   8.713  1.00  0.00    -0.199 OA
BRANCH  13  16
HETATM   16  N1  UNL     1      29.790 -32.363  11.064  1.00  0.00    -0.199 N 
HETATM   17  C1  UNL     1      30.023 -32.569  12.470  1.00  0.00     0.194 C 
BRANCH  16  18
HETATM   18  N2  UNL     1      30.132 -31.140  10.499  1.00  0.00    -0.199 N 
ATOM     19  H2  UNL     1      29.543 -30.322  10.651  1.00  0.00     0.216 HD
BRANCH  18  20
HETATM   20  O1  UNL     1      31.180 -31.048   9.795  1.00  0.00    -0.274 OA
ATOM     21  H1  UNL     1      31.771 -30.315   9.926  1.00  0.00     0.246 HD
ENDBRANCH  18  20
ENDBRANCH  16  18
ENDBRANCH  13  16
ENDBRANCH   7  13
BRANCH   8  22
HETATM   22  O8  UNL     1      27.621 -35.320   8.634  1.00  0.00    -0.356 OA
ATOM     23  H8  UNL     1      27.425 -35.663   7.770  1.00  0.00     0.218 HD
ENDBRANCH   8  22
ENDBRANCH   3   5
ENDBRANCH   1   3
BRANCH   1  24
HETATM   24  C5  UNL     1      24.036 -32.688  13.791  1.00  0.00     0.072 A 
HETATM   25  C6  UNL     1      23.779 -34.022  13.517  1.00  0.00     0.177 A 
HETATM   26  O4  UNL     1      22.813 -34.659  14.135  1.00  0.00    -0.284 OA
HETATM   27  C7  UNL     1      22.035 -34.109  15.031  1.00  0.00     0.314 A 
HETATM   28  O5  UNL     1      21.118 -34.811  15.581  1.00  0.00    -0.257 OA
HETATM   29  C8  UNL     1      22.214 -32.790  15.370  1.00  0.00     0.112 A 
HETATM   30  C11 UNL     1      23.235 -32.079  14.731  1.00  0.00     0.068 A 
BRANCH  29  31
HETATM   31  N5  UNL     1      21.390 -32.160  16.338  1.00  0.00    -0.338 N 
ATOM     32  H5  UNL     1      20.492 -31.768  16.055  1.00  0.00     0.167 HD
BRANCH  31  33
HETATM   33  C9  UNL     1      21.799 -32.067  17.698  1.00  0.00     0.132 C 
HETATM   34  N6  UNL     1      22.486 -31.059  18.093  1.00  0.00    -0.385 N 
ATOM     35  H62 UNL     1      22.748 -30.316  17.445  1.00  0.00     0.157 HD
ATOM     36  H61 UNL     1      22.778 -30.992  19.068  1.00  0.00     0.157 HD
BRANCH  33  37
HETATM   37  C10 UNL     1      21.419 -33.142  18.636  1.00  0.00     0.384 C 
BRANCH  37  38
HETATM   38  N7  UNL     1      22.087 -32.860  19.911  1.00  0.00    -0.046 N 
ATOM     39  H73 UNL     1      22.954 -32.334  19.801  1.00  0.00     0.277 HD
ATOM     40  H72 UNL     1      21.589 -32.175  20.480  1.00  0.00     0.277 HD
ATOM     41  H71 UNL     1      22.218 -33.753  20.386  1.00  0.00     0.277 HD
ENDBRANCH  37  38
BRANCH  37  42
HETATM   42  O6  UNL     1      20.038 -33.134  18.907  1.00  0.00    -0.364 OA
ATOM     43  H6  UNL     1      19.523 -33.091  18.110  1.00  0.00     0.212 HD
ENDBRANCH  37  42
ENDBRANCH  33  37
ENDBRANCH  31  33
ENDBRANCH  29  31
ENDBRANCH   1  24
TORSDOF 13
ENDMDL
MODEL 5
REMARK VINA RESULT: -8.030175623      1.501      1.961
REMARK  13 active torsions:
REMARK  status: ('A' for Active; 'I' for Inactive)
REMARK    1  A    between atoms: N1_2  and  N2_3 
REMARK    2  A    between atoms: N1_2  and  S1_7 
REMARK    3  A    between atoms: N2_3  and  O1_5 
REMARK    4  A    between atoms: S1_7  and  C2_10 
REMARK    5  A    between atoms: C4_12  and  N3_13 
REMARK    6  A    between atoms: N3_13  and  N4_15 
REMARK    7  A    between atoms: N4_15  and  C5_17 
REMARK    8  A    between atoms: C8_22  and  N5_23 
REMARK    9  A    between atoms: N5_23  and  C9_25 
REMARK   10  A    between atoms: C9_25  and  C10_29 
REMARK   11  A    between atoms: C10_29  and  N7_30 
REMARK   12  A    between atoms: C10_29  and  O6_34 
REMARK   13  A    between atoms: C15_41  and  O8_42 
ROOT
HETATM    1  N4  UNL     1      24.314 -31.532  12.257  1.00  0.00    -0.298 N 
ATOM      2  H4  UNL     1      24.800 -30.664  12.480  1.00  0.00     0.187 HD
ENDROOT
BRANCH   1   3
HETATM    3  N3  UNL     1      24.071 -31.850  10.940  1.00  0.00    -0.300 N 
ATOM      4  H3  UNL     1      23.146 -31.652  10.559  1.00  0.00     0.187 HD
BRANCH   3   5
HETATM    5  C4  UNL     1      25.043 -32.441  10.078  1.00  0.00     0.049 C 
HETATM    6  C3  UNL     1      26.380 -32.191  10.369  1.00  0.00     0.059 C 
HETATM    7  C2  UNL     1      27.473 -32.902   9.956  1.00  0.00     0.120 C 
HETATM    8  C15 UNL     1      27.495 -34.132   9.292  1.00  0.00     0.139 C 
HETATM    9  C14 UNL     1      26.479 -34.750   8.591  1.00  0.00     0.206 C 
HETATM   10  C13 UNL     1      25.207 -34.259   8.366  1.00  0.00     0.060 C 
HETATM   11  O7  UNL     1      26.757 -35.867   8.119  1.00  0.00    -0.285 OA
HETATM   12  C12 UNL     1      24.570 -33.209   9.034  1.00  0.00     0.035 C 
BRANCH   7  13
HETATM   13  S1  UNL     1      29.029 -32.211  10.287  1.00  0.00     0.282 S 
HETATM   14  O2  UNL     1      29.972 -32.636   9.181  1.00  0.00    -0.199 OA
HETATM   15  O3  UNL     1      28.915 -30.701  10.141  1.00  0.00    -0.199 OA
BRANCH  13  16
HETATM   16  N1  UNL     1      29.635 -32.656  11.807  1.00  0.00    -0.199 N 
HETATM   17  C1  UNL     1      29.055 -33.748  12.544  1.00  0.00     0.194 C 
BRANCH  16  18
HETATM   18  N2  UNL     1      30.706 -31.966  12.362  1.00  0.00    -0.199 N 
ATOM     19  H2  UNL     1      31.269 -32.397  13.095  1.00  0.00     0.216 HD
BRANCH  18  20
HETATM   20  O1  UNL     1      30.978 -30.799  11.954  1.00  0.00    -0.274 OA
ATOM     21  H1  UNL     1      31.775 -30.648  11.458  1.00  0.00     0.246 HD
ENDBRANCH  18  20
ENDBRANCH  16  18
ENDBRANCH  13  16
ENDBRANCH   7  13
BRANCH   8  22
HETATM   22  O8  UNL     1      28.724 -34.759   9.390  1.00  0.00    -0.356 OA
ATOM     23  H8  UNL     1      28.648 -35.655   9.697  1.00  0.00     0.218 HD
ENDBRANCH   8  22
ENDBRANCH   3   5
ENDBRANCH   1   3
BRANCH   1  24
HETATM   24  C5  UNL     1      23.899 -32.393  13.316  1.00  0.00     0.072 A 
HETATM   25  C6  UNL     1      24.446 -33.656  13.473  1.00  0.00     0.177 A 
HETATM   26  O4  UNL     1      24.057 -34.438  14.451  1.00  0.00    -0.284 OA
HETATM   27  C7  UNL     1      23.150 -34.106  15.333  1.00  0.00     0.314 A 
HETATM   28  O5  UNL     1      22.835 -34.937  16.252  1.00  0.00    -0.257 OA
HETATM   29  C8  UNL     1      22.551 -32.872  15.259  1.00  0.00     0.112 A 
HETATM   30  C11 UNL     1      22.941 -32.011  14.229  1.00  0.00     0.068 A 
BRANCH  29  31
HETATM   31  N5  UNL     1      21.563 -32.476  16.198  1.00  0.00    -0.338 N 
ATOM     32  H5  UNL     1      20.594 -32.374  15.895  1.00  0.00     0.167 HD
BRANCH  31  33
HETATM   33  C9  UNL     1      21.904 -32.219  17.555  1.00  0.00     0.132 C 
HETATM   34  N6  UNL     1      22.625 -31.201  17.853  1.00  0.00    -0.385 N 
ATOM     35  H62 UNL     1      22.961 -30.566  17.128  1.00  0.00     0.157 HD
ATOM     36  H61 UNL     1      22.869 -31.016  18.825  1.00  0.00     0.157 HD
BRANCH  33  37
HETATM   37  C10 UNL     1      21.418 -33.138  18.603  1.00  0.00     0.384 C 
BRANCH  37  38
HETATM   38  N7  UNL     1      22.026 -32.712  19.869  1.00  0.00    -0.046 N 
ATOM     39  H73 UNL     1      22.256 -33.491  20.484  1.00  0.00     0.277 HD
ATOM     40  H72 UNL     1      22.973 -32.350  19.755  1.00  0.00     0.277 HD
ATOM     41  H71 UNL     1      21.389 -32.039  20.296  1.00  0.00     0.277 HD
ENDBRANCH  37  38
BRANCH  37  42
HETATM   42  O6  UNL     1      20.026 -33.033  18.783  1.00  0.00    -0.364 OA
ATOM     43  H6  UNL     1      19.549 -33.543  18.140  1.00  0.00     0.212 HD
ENDBRANCH  37  42
ENDBRANCH  33  37
ENDBRANCH  31  33
ENDBRANCH  29  31
ENDBRANCH   1  24
TORSDOF 13
ENDMDL
