MODEL 1
REMARK VINA RESULT: -5.812482904      0.000      0.000
REMARK  1 active torsions:
REMARK  status: ('A' for Active; 'I' for Inactive)
REMARK    1  A    between atoms: N1_1  and  C1_4 
ROOT
HETATM    1  C1  UNL     1      -2.733   6.657  14.843  1.00  0.00     0.679 A 
HETATM    2  N2  UNL     1      -3.960   6.306  14.438  1.00  0.00    -0.154 N 
ATOM      3  H2  UNL     1      -4.044   5.738  13.594  1.00  0.00     0.187 HD
HETATM    4  C2  UNL     1      -5.083   6.657  15.075  1.00  0.00     0.290 A 
HETATM    5  O1  UNL     1      -6.238   6.329  14.697  1.00  0.00    -0.265 OA
HETATM    6  C3  UNL     1      -4.977   7.422  16.211  1.00  0.00     0.149 A 
HETATM    7  N3  UNL     1      -6.048   7.822  16.918  1.00  0.00    -0.279 N 
ATOM      8  H3  UNL     1      -6.981   7.553  16.608  1.00  0.00     0.189 HD
HETATM    9  N4  UNL     1      -5.912   8.559  18.010  1.00  0.00    -0.240 N 
ATOM     10  H4  UNL     1      -6.753   8.838  18.515  1.00  0.00     0.208 HD
HETATM   11  N5  UNL     1      -4.749   8.945  18.473  1.00  0.00    -0.269 N 
ATOM     12  H5  UNL     1      -4.681   9.514  19.317  1.00  0.00     0.190 HD
HETATM   13  C4  UNL     1      -3.631   8.562  17.789  1.00  0.00     0.145 A 
HETATM   14  N6  UNL     1      -2.498   8.936  18.237  1.00  0.00    -0.382 N 
ATOM     15  H61 UNL     1      -1.663   8.651  17.726  1.00  0.00     0.157 HD
ATOM     16  H62 UNL     1      -2.450   9.504  19.083  1.00  0.00     0.157 HD
HETATM   17  C5  UNL     1      -3.698   7.788  16.633  1.00  0.00     0.127 A 
HETATM   18  N7  UNL     1      -2.608   7.403  15.948  1.00  0.00    -0.186 N 
ATOM     19  H7  UNL     1      -1.681   7.680  16.270  1.00  0.00     0.184 HD
ENDROOT
BRANCH   1  20
HETATM   20  N1  UNL     1      -1.666   6.284  14.176  1.00  0.00    -0.234 N 
ATOM     21  H12 UNL     1      -1.139   5.462  14.473  1.00  0.00     0.174 HD
ATOM     22  H11 UNL     1      -1.345   6.804  13.359  1.00  0.00     0.174 HD
ENDBRANCH   1  20
TORSDOF 1
ENDMDL
MODEL 2
REMARK VINA RESULT: -5.463536380      1.911      2.824
REMARK  1 active torsions:
REMARK  status: ('A' for Active; 'I' for Inactive)
REMARK    1  A    between atoms: N1_1  and  C1_4 
ROOT
HETATM    1  C1  UNL     1      -5.031   4.927  15.514  1.00  0.00     0.679 A 
HETATM    2  N2  UNL     1      -3.988   5.435  14.844  1.00  0.00    -0.154 N 
ATOM      3  H2  UNL     1      -3.669   4.944  14.009  1.00  0.00     0.187 HD
HETATM    4  C2  UNL     1      -3.341   6.548  15.207  1.00  0.00     0.290 A 
HETATM    5  O1  UNL     1      -2.361   7.028  14.579  1.00  0.00    -0.265 OA
HETATM    6  C3  UNL     1      -3.766   7.213  16.331  1.00  0.00     0.149 A 
HETATM    7  N3  UNL     1      -3.179   8.339  16.772  1.00  0.00    -0.279 N 
ATOM      8  H3  UNL     1      -2.386   8.724  16.260  1.00  0.00     0.189 HD
HETATM    9  N4  UNL     1      -3.613   8.957  17.860  1.00  0.00    -0.240 N 
ATOM     10  H4  UNL     1      -3.137   9.809  18.157  1.00  0.00     0.208 HD
HETATM   11  N5  UNL     1      -4.624   8.527  18.573  1.00  0.00    -0.269 N 
ATOM     12  H5  UNL     1      -4.931   9.028  19.407  1.00  0.00     0.190 HD
HETATM   13  C4  UNL     1      -5.254   7.386  18.163  1.00  0.00     0.145 A 
HETATM   14  N6  UNL     1      -6.238   6.965  18.855  1.00  0.00    -0.382 N 
ATOM     15  H61 UNL     1      -6.708   6.113  18.549  1.00  0.00     0.157 HD
ATOM     16  H62 UNL     1      -6.532   7.480  19.685  1.00  0.00     0.157 HD
HETATM   17  C5  UNL     1      -4.853   6.684  17.030  1.00  0.00     0.127 A 
HETATM   18  N7  UNL     1      -5.460   5.560  16.613  1.00  0.00    -0.186 N 
ATOM     19  H7  UNL     1      -6.252   5.187  17.137  1.00  0.00     0.184 HD
ENDROOT
BRANCH   1  20
HETATM   20  N1  UNL     1      -5.627   3.830  15.111  1.00  0.00    -0.234 N 
ATOM     21  H12 UNL     1      -5.096   3.109  14.622  1.00  0.00     0.174 HD
ATOM     22  H11 UNL     1      -6.622   3.678  15.277  1.00  0.00     0.174 HD
ENDBRANCH   1  20
TORSDOF 1
ENDMDL
MODEL 3
REMARK VINA RESULT: -5.371583392      2.310      4.112
REMARK  1 active torsions:
REMARK  status: ('A' for Active; 'I' for Inactive)
REMARK    1  A    between atoms: N1_1  and  C1_4 
ROOT
HETATM    1  C1  UNL     1      -4.368   7.971  17.679  1.00  0.00     0.679 A 
HETATM    2  N2  UNL     1      -3.750   8.124  16.501  1.00  0.00    -0.154 N 
ATOM      3  H2  UNL     1      -3.277   9.009  16.319  1.00  0.00     0.187 HD
HETATM    4  C2  UNL     1      -3.716   7.184  15.550  1.00  0.00     0.290 A 
HETATM    5  O1  UNL     1      -3.135   7.324  14.442  1.00  0.00    -0.265 OA
HETATM    6  C3  UNL     1      -4.351   5.989  15.790  1.00  0.00     0.149 A 
HETATM    7  N3  UNL     1      -4.370   4.986  14.896  1.00  0.00    -0.279 N 
ATOM      8  H3  UNL     1      -3.898   5.106  14.000  1.00  0.00     0.189 HD
HETATM    9  N4  UNL     1      -4.991   3.847  15.157  1.00  0.00    -0.240 N 
ATOM     10  H4  UNL     1      -4.979   3.113  14.449  1.00  0.00     0.208 HD
HETATM   11  N5  UNL     1      -5.620   3.616  16.283  1.00  0.00    -0.269 N 
ATOM     12  H5  UNL     1      -6.089   2.726  16.451  1.00  0.00     0.190 HD
HETATM   13  C4  UNL     1      -5.627   4.605  17.224  1.00  0.00     0.145 A 
HETATM   14  N6  UNL     1      -6.238   4.384  18.320  1.00  0.00    -0.382 N 
ATOM     15  H61 UNL     1      -6.244   5.123  19.023  1.00  0.00     0.157 HD
ATOM     16  H62 UNL     1      -6.701   3.488  18.471  1.00  0.00     0.157 HD
HETATM   17  C5  UNL     1      -4.995   5.829  17.018  1.00  0.00     0.127 A 
HETATM   18  N7  UNL     1      -4.993   6.814  17.932  1.00  0.00    -0.186 N 
ATOM     19  H7  UNL     1      -5.471   6.680  18.824  1.00  0.00     0.184 HD
ENDROOT
BRANCH   1  20
HETATM   20  N1  UNL     1      -4.369   8.929  18.575  1.00  0.00    -0.234 N 
ATOM     21  H12 UNL     1      -3.494   9.380  18.842  1.00  0.00     0.174 HD
ATOM     22  H11 UNL     1      -5.235   9.237  19.018  1.00  0.00     0.174 HD
ENDBRANCH   1  20
TORSDOF 1
ENDMDL
MODEL 4
REMARK VINA RESULT: -5.251298117      2.433      3.167
REMARK  1 active torsions:
REMARK  status: ('A' for Active; 'I' for Inactive)
REMARK    1  A    between atoms: N1_1  and  C1_4 
ROOT
HETATM    1  C1  UNL     1      -5.113   3.848  15.006  1.00  0.00     0.679 A 
HETATM    2  N2  UNL     1      -5.677   3.654  16.204  1.00  0.00    -0.154 N 
ATOM      3  H2  UNL     1      -6.108   2.748  16.392  1.00  0.00     0.187 HD
HETATM    4  C2  UNL     1      -5.709   4.578  17.171  1.00  0.00     0.290 A 
HETATM    5  O1  UNL     1      -6.238   4.399  18.299  1.00  0.00    -0.265 OA
HETATM    6  C3  UNL     1      -5.131   5.800  16.925  1.00  0.00     0.149 A 
HETATM    7  N3  UNL     1      -5.114   6.789  17.834  1.00  0.00    -0.279 N 
ATOM      8  H3  UNL     1      -5.543   6.639  18.746  1.00  0.00     0.189 HD
HETATM    9  N4  UNL     1      -4.548   7.956  17.566  1.00  0.00    -0.240 N 
ATOM     10  H4  UNL     1      -4.558   8.678  18.287  1.00  0.00     0.208 HD
HETATM   11  N5  UNL     1      -3.976   8.229  16.419  1.00  0.00    -0.269 N 
ATOM     12  H5  UNL     1      -3.551   9.139  16.246  1.00  0.00     0.190 HD
HETATM   13  C4  UNL     1      -3.968   7.253  15.464  1.00  0.00     0.145 A 
HETATM   14  N6  UNL     1      -3.412   7.515  14.347  1.00  0.00    -0.382 N 
ATOM     15  H61 UNL     1      -3.407   6.786  13.633  1.00  0.00     0.157 HD
ATOM     16  H62 UNL     1      -2.992   8.430  14.192  1.00  0.00     0.157 HD
HETATM   17  C5  UNL     1      -4.544   6.003  15.675  1.00  0.00     0.127 A 
HETATM   18  N7  UNL     1      -4.545   5.032  14.746  1.00  0.00    -0.186 N 
ATOM     19  H7  UNL     1      -4.112   5.198  13.837  1.00  0.00     0.184 HD
ENDROOT
BRANCH   1  20
HETATM   20  N1  UNL     1      -5.113   2.903  14.094  1.00  0.00    -0.234 N 
ATOM     21  H12 UNL     1      -5.700   2.078  14.213  1.00  0.00     0.174 HD
ATOM     22  H11 UNL     1      -4.531   2.975  13.260  1.00  0.00     0.174 HD
ENDBRANCH   1  20
TORSDOF 1
ENDMDL
MODEL 5
REMARK VINA RESULT: -5.184275384      1.707      3.571
REMARK  1 active torsions:
REMARK  status: ('A' for Active; 'I' for Inactive)
REMARK    1  A    between atoms: N1_1  and  C1_4 
ROOT
HETATM    1  C1  UNL     1      -2.987   8.676  17.994  1.00  0.00     0.679 A 
HETATM    2  N2  UNL     1      -4.103   8.451  18.699  1.00  0.00    -0.154 N 
ATOM      3  H2  UNL     1      -4.128   8.761  19.671  1.00  0.00     0.187 HD
HETATM    4  C2  UNL     1      -5.187   7.845  18.203  1.00  0.00     0.290 A 
HETATM    5  O1  UNL     1      -6.238   7.632  18.863  1.00  0.00    -0.265 OA
HETATM    6  C3  UNL     1      -5.160   7.425  16.895  1.00  0.00     0.149 A 
HETATM    7  N3  UNL     1      -6.201   6.808  16.311  1.00  0.00    -0.279 N 
ATOM      8  H3  UNL     1      -7.050   6.639  16.850  1.00  0.00     0.189 HD
HETATM    9  N4  UNL     1      -6.143   6.416  15.047  1.00  0.00    -0.240 N 
ATOM     10  H4  UNL     1      -6.958   5.952  14.645  1.00  0.00     0.208 HD
HETATM   11  N5  UNL     1      -5.091   6.596  14.288  1.00  0.00    -0.269 N 
ATOM     12  H5  UNL     1      -5.080   6.280  13.319  1.00  0.00     0.190 HD
HETATM   13  C4  UNL     1      -4.008   7.220  14.839  1.00  0.00     0.145 A 
HETATM   14  N6  UNL     1      -2.982   7.397  14.103  1.00  0.00    -0.382 N 
ATOM     15  H61 UNL     1      -2.173   7.864  14.514  1.00  0.00     0.157 HD
ATOM     16  H62 UNL     1      -2.990   7.076  13.136  1.00  0.00     0.157 HD
HETATM   17  C5  UNL     1      -3.997   7.660  16.160  1.00  0.00     0.127 A 
HETATM   18  N7  UNL     1      -2.940   8.275  16.717  1.00  0.00    -0.186 N 
ATOM     19  H7  UNL     1      -2.098   8.437  16.165  1.00  0.00     0.184 HD
ENDROOT
BRANCH   1  20
HETATM   20  N1  UNL     1      -1.952   9.276  18.533  1.00  0.00    -0.234 N 
ATOM     21  H12 UNL     1      -1.718  10.232  18.265  1.00  0.00     0.174 HD
ATOM     22  H11 UNL     1      -1.368   8.804  19.223  1.00  0.00     0.174 HD
ENDBRANCH   1  20
TORSDOF 1
ENDMDL
