MODEL 1
REMARK VINA RESULT: -5.281759094      0.000      0.000
REMARK  3 active torsions:
REMARK  status: ('A' for Active; 'I' for Inactive)
REMARK    1  A    between atoms: N1_1  and  N2_4 
REMARK    2  A    between atoms: N2_4  and  N3_5 
REMARK       I    between atoms: N3_5  and  C1_7 
REMARK    3  A    between atoms: C1_7  and  C2_9 
ROOT
HETATM    1  C2  UNL     1      -3.864   7.795  16.706  1.00  0.00     0.180 A 
HETATM    2  N4  UNL     1      -2.732   7.519  16.036  1.00  0.00    -0.326 N 
ATOM      3  H4  UNL     1      -1.846   7.848  16.419  1.00  0.00     0.168 HD
HETATM    4  C3  UNL     1      -2.720   6.831  14.887  1.00  0.00     0.123 A 
HETATM    5  N5  UNL     1      -1.517   6.555  14.205  1.00  0.00    -0.083 NA
HETATM    6  C4  UNL     1      -3.945   6.401  14.398  1.00  0.00     0.119 A 
HETATM    7  C5  UNL     1      -5.105   6.679  15.074  1.00  0.00     0.250 A 
HETATM    8  O2  UNL     1      -6.238   6.305  14.663  1.00  0.00    -0.268 OA
HETATM    9  N6  UNL     1      -5.052   7.370  16.218  1.00  0.00    -0.305 N 
ATOM     10  H6  UNL     1      -5.913   7.579  16.724  1.00  0.00     0.170 HD
ENDROOT
BRANCH   1  11
HETATM   11  C1  UNL     1      -3.785   8.552  17.950  1.00  0.00     0.302 C 
HETATM   12  N3  UNL     1      -4.877   8.911  18.740  1.00  0.00    -0.247 N 
ATOM     13  H3  UNL     1      -5.818   8.639  18.452  1.00  0.00     0.187 HD
HETATM   14  O1  UNL     1      -2.617   8.906  18.335  1.00  0.00    -0.263 OA
BRANCH  12  15
HETATM   15  N2  UNL     1      -4.701   9.638  19.918  1.00  0.00    -0.027 NA
BRANCH  15  16
HETATM   16  N1  UNL     1      -4.379  10.934  19.572  1.00  0.00    -0.329 N 
ATOM     17  H12 UNL     1      -3.443  11.265  19.335  1.00  0.00     0.174 HD
ATOM     18  H11 UNL     1      -5.235  11.487  19.596  1.00  0.00     0.174 HD
ENDBRANCH  15  16
ENDBRANCH  12  15
ENDBRANCH   1  11
TORSDOF 3
ENDMDL
MODEL 2
REMARK VINA RESULT: -5.117520839      1.548      2.300
REMARK  3 active torsions:
REMARK  status: ('A' for Active; 'I' for Inactive)
REMARK    1  A    between atoms: N1_1  and  N2_4 
REMARK    2  A    between atoms: N2_4  and  N3_5 
REMARK       I    between atoms: N3_5  and  C1_7 
REMARK    3  A    between atoms: C1_7  and  C2_9 
ROOT
HETATM    1  C2  UNL     1      -3.873   7.725  16.470  1.00  0.00     0.180 A 
HETATM    2  N4  UNL     1      -5.011   7.323  15.879  1.00  0.00    -0.326 N 
ATOM      3  H4  UNL     1      -5.897   7.513  16.346  1.00  0.00     0.168 HD
HETATM    4  C3  UNL     1      -5.028   6.683  14.702  1.00  0.00     0.123 A 
HETATM    5  N5  UNL     1      -6.238   6.273  14.103  1.00  0.00    -0.083 NA
HETATM    6  C4  UNL     1      -3.803   6.443  14.098  1.00  0.00     0.119 A 
HETATM    7  C5  UNL     1      -2.637   6.848  14.694  1.00  0.00     0.250 A 
HETATM    8  O2  UNL     1      -1.504   6.650  14.177  1.00  0.00    -0.268 OA
HETATM    9  N6  UNL     1      -2.684   7.484  15.870  1.00  0.00    -0.305 N 
ATOM     10  H6  UNL     1      -1.819   7.788  16.317  1.00  0.00     0.170 HD
ENDROOT
BRANCH   1  11
HETATM   11  C1  UNL     1      -3.947   8.415  17.752  1.00  0.00     0.302 C 
HETATM   12  N3  UNL     1      -5.127   8.762  18.410  1.00  0.00    -0.247 N 
ATOM     13  H3  UNL     1      -6.026   8.529  17.986  1.00  0.00     0.187 HD
HETATM   14  O1  UNL     1      -2.834   8.718  18.307  1.00  0.00    -0.263 OA
BRANCH  12  15
HETATM   15  N2  UNL     1      -5.096   9.423  19.638  1.00  0.00    -0.027 NA
BRANCH  15  16
HETATM   16  N1  UNL     1      -4.668  10.715  19.413  1.00  0.00    -0.329 N 
ATOM     17  H12 UNL     1      -4.096  11.265  20.053  1.00  0.00     0.174 HD
ATOM     18  H11 UNL     1      -5.026  11.009  18.504  1.00  0.00     0.174 HD
ENDBRANCH  15  16
ENDBRANCH  12  15
ENDBRANCH   1  11
TORSDOF 3
ENDMDL
MODEL 3
REMARK VINA RESULT: -5.067176799      1.947      4.917
REMARK  3 active torsions:
REMARK  status: ('A' for Active; 'I' for Inactive)
REMARK    1  A    between atoms: N1_1  and  N2_4 
REMARK    2  A    between atoms: N2_4  and  N3_5 
REMARK       I    between atoms: N3_5  and  C1_7 
REMARK    3  A    between atoms: C1_7  and  C2_9 
ROOT
HETATM    1  C2  UNL     1      -4.015   7.846  17.378  1.00  0.00     0.180 A 
HETATM    2  N4  UNL     1      -3.314   8.773  18.051  1.00  0.00    -0.326 N 
ATOM      3  H4  UNL     1      -2.567   9.269  17.565  1.00  0.00     0.168 HD
HETATM    4  C3  UNL     1      -3.557   9.074  19.334  1.00  0.00     0.123 A 
HETATM    5  N5  UNL     1      -2.806  10.053  20.017  1.00  0.00    -0.083 NA
HETATM    6  C4  UNL     1      -4.580   8.379  19.961  1.00  0.00     0.119 A 
HETATM    7  C5  UNL     1      -5.300   7.430  19.282  1.00  0.00     0.250 A 
HETATM    8  O2  UNL     1      -6.238   6.777  19.815  1.00  0.00    -0.268 OA
HETATM    9  N6  UNL     1      -5.011   7.174  18.001  1.00  0.00    -0.305 N 
ATOM     10  H6  UNL     1      -5.544   6.469  17.492  1.00  0.00     0.170 HD
ENDROOT
BRANCH   1  11
HETATM   11  C1  UNL     1      -3.683   7.581  15.983  1.00  0.00     0.302 C 
HETATM   12  N3  UNL     1      -2.440   7.145  15.524  1.00  0.00    -0.247 N 
ATOM     13  H3  UNL     1      -1.683   6.989  16.190  1.00  0.00     0.187 HD
HETATM   14  O1  UNL     1      -4.614   7.767  15.125  1.00  0.00    -0.263 OA
BRANCH  12  15
HETATM   15  N2  UNL     1      -2.217   6.918  14.165  1.00  0.00    -0.027 NA
BRANCH  15  16
HETATM   16  N1  UNL     1      -1.127   6.081  14.049  1.00  0.00    -0.329 N 
ATOM     17  H12 UNL     1      -0.915   5.498  13.238  1.00  0.00     0.174 HD
ATOM     18  H11 UNL     1      -0.583   6.153  14.909  1.00  0.00     0.174 HD
ENDBRANCH  15  16
ENDBRANCH  12  15
ENDBRANCH   1  11
TORSDOF 3
ENDMDL
MODEL 4
REMARK VINA RESULT: -5.022383381      1.795      5.332
REMARK  3 active torsions:
REMARK  status: ('A' for Active; 'I' for Inactive)
REMARK    1  A    between atoms: N1_1  and  N2_4 
REMARK    2  A    between atoms: N2_4  and  N3_5 
REMARK       I    between atoms: N3_5  and  C1_7 
REMARK    3  A    between atoms: C1_7  and  C2_9 
ROOT
HETATM    1  C2  UNL     1      -3.990   7.987  17.522  1.00  0.00     0.180 A 
HETATM    2  N4  UNL     1      -4.940   7.303  18.180  1.00  0.00    -0.326 N 
ATOM      3  H4  UNL     1      -5.459   6.582  17.679  1.00  0.00     0.168 HD
HETATM    4  C3  UNL     1      -5.235   7.529  19.468  1.00  0.00     0.123 A 
HETATM    5  N5  UNL     1      -6.238   6.795  20.134  1.00  0.00    -0.083 NA
HETATM    6  C4  UNL     1      -4.508   8.517  20.115  1.00  0.00     0.119 A 
HETATM    7  C5  UNL     1      -3.537   9.220  19.452  1.00  0.00     0.250 A 
HETATM    8  O2  UNL     1      -2.854  10.125  20.005  1.00  0.00    -0.268 OA
HETATM    9  N6  UNL     1      -3.288   8.948  18.166  1.00  0.00    -0.305 N 
ATOM     10  H6  UNL     1      -2.565   9.469  17.668  1.00  0.00     0.170 HD
ENDROOT
BRANCH   1  11
HETATM   11  C1  UNL     1      -3.735   7.676  16.120  1.00  0.00     0.302 C 
HETATM   12  N3  UNL     1      -2.502   7.287  15.596  1.00  0.00    -0.247 N 
ATOM     13  H3  UNL     1      -1.696   7.204  16.216  1.00  0.00     0.187 HD
HETATM   14  O1  UNL     1      -4.729   7.771  15.320  1.00  0.00    -0.263 OA
BRANCH  12  15
HETATM   15  N2  UNL     1      -2.356   7.009  14.237  1.00  0.00    -0.027 NA
BRANCH  15  16
HETATM   16  N1  UNL     1      -1.336   6.091  14.099  1.00  0.00    -0.329 N 
ATOM     17  H12 UNL     1      -0.504   6.043  14.687  1.00  0.00     0.174 HD
ATOM     18  H11 UNL     1      -1.566   5.483  13.314  1.00  0.00     0.174 HD
ENDBRANCH  15  16
ENDBRANCH  12  15
ENDBRANCH   1  11
TORSDOF 3
ENDMDL
MODEL 5
REMARK VINA RESULT: -4.875123187      2.352      2.740
REMARK  3 active torsions:
REMARK  status: ('A' for Active; 'I' for Inactive)
REMARK    1  A    between atoms: N1_1  and  N2_4 
REMARK    2  A    between atoms: N2_4  and  N3_5 
REMARK       I    between atoms: N3_5  and  C1_7 
REMARK    3  A    between atoms: C1_7  and  C2_9 
ROOT
HETATM    1  C2  UNL     1      -4.941   6.851  16.846  1.00  0.00     0.180 A 
HETATM    2  N4  UNL     1      -5.127   7.081  15.536  1.00  0.00    -0.326 N 
ATOM      3  H4  UNL     1      -4.829   7.977  15.150  1.00  0.00     0.168 HD
HETATM    4  C3  UNL     1      -5.688   6.183  14.715  1.00  0.00     0.123 A 
HETATM    5  N5  UNL     1      -5.871   6.451  13.342  1.00  0.00    -0.083 NA
HETATM    6  C4  UNL     1      -6.081   4.977  15.276  1.00  0.00     0.119 A 
HETATM    7  C5  UNL     1      -5.896   4.734  16.613  1.00  0.00     0.250 A 
HETATM    8  O2  UNL     1      -6.238   3.650  17.161  1.00  0.00    -0.268 OA
HETATM    9  N6  UNL     1      -5.329   5.670  17.382  1.00  0.00    -0.305 N 
ATOM     10  H6  UNL     1      -5.189   5.494  18.377  1.00  0.00     0.170 HD
ENDROOT
BRANCH   1  11
HETATM   11  C1  UNL     1      -4.323   7.886  17.667  1.00  0.00     0.302 C 
HETATM   12  N3  UNL     1      -3.117   8.525  17.377  1.00  0.00    -0.247 N 
ATOM     13  H3  UNL     1      -2.603   8.271  16.533  1.00  0.00     0.187 HD
HETATM   14  O1  UNL     1      -4.947   8.225  18.731  1.00  0.00    -0.263 OA
BRANCH  12  15
HETATM   15  N2  UNL     1      -2.605   9.507  18.226  1.00  0.00    -0.027 NA
BRANCH  15  16
HETATM   16  N1  UNL     1      -2.115   8.879  19.352  1.00  0.00    -0.329 N 
ATOM     17  H12 UNL     1      -2.630   8.744  20.222  1.00  0.00     0.174 HD
ATOM     18  H11 UNL     1      -1.160   8.581  19.154  1.00  0.00     0.174 HD
ENDBRANCH  15  16
ENDBRANCH  12  15
ENDBRANCH   1  11
TORSDOF 3
ENDMDL
