MODEL 1
REMARK VINA RESULT: -5.185067280      0.000      0.000
REMARK  2 active torsions:
REMARK  status: ('A' for Active; 'I' for Inactive)
REMARK    1  A    between atoms: N1_1  and  C1_4 
REMARK    2  A    between atoms: N3_9  and  N4_10 
REMARK       I    between atoms: N4_10  and  C3_12 
ROOT
HETATM    1  C1  UNL     1      -5.419   5.999  14.814  1.00  0.00     0.684 A 
HETATM    2  N2  UNL     1      -6.095   6.633  15.780  1.00  0.00    -0.140 N 
ATOM      3  H2  UNL     1      -7.099   6.476  15.848  1.00  0.00     0.189 HD
HETATM    4  C2  UNL     1      -5.514   7.478  16.678  1.00  0.00     0.364 A 
HETATM    5  O1  UNL     1      -6.235   8.009  17.527  1.00  0.00    -0.244 OA
HETATM    6  N3  UNL     1      -4.201   7.700  16.609  1.00  0.00    -0.148 N 
HETATM    7  C4  UNL     1      -3.487   7.054  15.619  1.00  0.00     0.364 A 
HETATM    8  O3  UNL     1      -2.269   7.244  15.534  1.00  0.00    -0.244 OA
HETATM    9  N6  UNL     1      -4.090   6.234  14.756  1.00  0.00    -0.140 N 
ATOM     10  H6  UNL     1      -3.534   5.773  14.035  1.00  0.00     0.189 HD
ENDROOT
BRANCH   6  11
HETATM   11  N4  UNL     1      -3.508   8.526  17.453  1.00  0.00    -0.239 N 
HETATM   12  C3  UNL     1      -3.293   8.602  18.806  1.00  0.00     0.347 C 
HETATM   13  N5  UNL     1      -2.464   9.670  19.325  1.00  0.00    -0.038 NA
HETATM   14  O2  UNL     1      -3.733   7.849  19.674  1.00  0.00    -0.249 OA
ATOM     15  H4  UNL     1      -3.031   9.273  16.949  1.00  0.00     0.192 HD
ENDBRANCH   6  11
BRANCH   1  16
HETATM   16  N1  UNL     1      -5.947   5.210  13.972  1.00  0.00    -0.234 N 
ATOM     17  H12 UNL     1      -6.941   4.997  14.044  1.00  0.00     0.174 HD
ATOM     18  H11 UNL     1      -5.440   4.760  13.210  1.00  0.00     0.174 HD
ENDBRANCH   1  16
TORSDOF 2
ENDMDL
MODEL 2
REMARK VINA RESULT: -5.091943449      0.127      2.185
REMARK  2 active torsions:
REMARK  status: ('A' for Active; 'I' for Inactive)
REMARK    1  A    between atoms: N1_1  and  C1_4 
REMARK    2  A    between atoms: N3_9  and  N4_10 
REMARK       I    between atoms: N4_10  and  C3_12 
ROOT
HETATM    1  C1  UNL     1      -5.377   6.003  14.766  1.00  0.00     0.684 A 
HETATM    2  N2  UNL     1      -4.058   6.221  14.710  1.00  0.00    -0.140 N 
ATOM      3  H2  UNL     1      -3.520   5.739  13.990  1.00  0.00     0.189 HD
HETATM    4  C2  UNL     1      -3.393   7.052  15.561  1.00  0.00     0.364 A 
HETATM    5  O1  UNL     1      -2.174   7.178  15.416  1.00  0.00    -0.244 OA
HETATM    6  N3  UNL     1      -4.075   7.693  16.510  1.00  0.00    -0.148 N 
HETATM    7  C4  UNL     1      -5.437   7.481  16.584  1.00  0.00     0.364 A 
HETATM    8  O3  UNL     1      -6.091   8.064  17.456  1.00  0.00    -0.244 OA
HETATM    9  N6  UNL     1      -6.055   6.659  15.734  1.00  0.00    -0.140 N 
ATOM     10  H6  UNL     1      -7.063   6.523  15.816  1.00  0.00     0.189 HD
ENDROOT
BRANCH   6  11
HETATM   11  N4  UNL     1      -3.518   8.551  17.421  1.00  0.00    -0.239 N 
HETATM   12  C3  UNL     1      -3.336   8.568  18.781  1.00  0.00     0.347 C 
HETATM   13  N5  UNL     1      -2.674   9.705  19.386  1.00  0.00    -0.038 NA
HETATM   14  O2  UNL     1      -3.678   7.706  19.589  1.00  0.00    -0.249 OA
ATOM     15  H4  UNL     1      -3.143   9.389  16.977  1.00  0.00     0.192 HD
ENDBRANCH   6  11
BRANCH   1  16
HETATM   16  N1  UNL     1      -6.009   5.232  13.981  1.00  0.00    -0.234 N 
ATOM     17  H12 UNL     1      -5.990   4.226  14.148  1.00  0.00     0.174 HD
ATOM     18  H11 UNL     1      -6.548   5.548  13.175  1.00  0.00     0.174 HD
ENDBRANCH   1  16
TORSDOF 2
ENDMDL
MODEL 3
REMARK VINA RESULT: -4.973692381      2.091      2.585
REMARK  2 active torsions:
REMARK  status: ('A' for Active; 'I' for Inactive)
REMARK    1  A    between atoms: N1_1  and  C1_4 
REMARK    2  A    between atoms: N3_9  and  N4_10 
REMARK       I    between atoms: N4_10  and  C3_12 
ROOT
HETATM    1  C1  UNL     1      -4.970   4.272  15.237  1.00  0.00     0.684 A 
HETATM    2  N2  UNL     1      -4.715   5.536  14.877  1.00  0.00    -0.140 N 
ATOM      3  H2  UNL     1      -4.443   5.715  13.910  1.00  0.00     0.189 HD
HETATM    4  C2  UNL     1      -4.797   6.596  15.728  1.00  0.00     0.364 A 
HETATM    5  O1  UNL     1      -4.539   7.719  15.286  1.00  0.00    -0.244 OA
HETATM    6  N3  UNL     1      -5.150   6.386  16.996  1.00  0.00    -0.148 N 
HETATM    7  C4  UNL     1      -5.418   5.089  17.388  1.00  0.00     0.364 A 
HETATM    8  O3  UNL     1      -5.747   4.869  18.559  1.00  0.00    -0.244 OA
HETATM    9  N6  UNL     1      -5.326   4.075  16.526  1.00  0.00    -0.140 N 
ATOM     10  H6  UNL     1      -5.529   3.128  16.847  1.00  0.00     0.189 HD
ENDROOT
BRANCH   6  11
HETATM   11  N4  UNL     1      -5.266   7.370  17.943  1.00  0.00    -0.239 N 
HETATM   12  C3  UNL     1      -4.411   8.226  18.588  1.00  0.00     0.347 C 
HETATM   13  N5  UNL     1      -4.950   9.155  19.561  1.00  0.00    -0.038 NA
HETATM   14  O2  UNL     1      -3.193   8.313  18.442  1.00  0.00    -0.249 OA
ATOM     15  H4  UNL     1      -6.233   7.497  18.244  1.00  0.00     0.192 HD
ENDBRANCH   6  11
BRANCH   1  16
HETATM   16  N1  UNL     1      -4.898   3.276  14.455  1.00  0.00    -0.234 N 
ATOM     17  H12 UNL     1      -5.343   3.329  13.539  1.00  0.00     0.174 HD
ATOM     18  H11 UNL     1      -4.417   2.404  14.677  1.00  0.00     0.174 HD
ENDBRANCH   1  16
TORSDOF 2
ENDMDL
MODEL 4
REMARK VINA RESULT: -4.921758943      1.631      4.512
REMARK  2 active torsions:
REMARK  status: ('A' for Active; 'I' for Inactive)
REMARK    1  A    between atoms: N1_1  and  C1_4 
REMARK    2  A    between atoms: N3_9  and  N4_10 
REMARK       I    between atoms: N4_10  and  C3_12 
ROOT
HETATM    1  C1  UNL     1      -3.442   8.528  17.650  1.00  0.00     0.684 A 
HETATM    2  N2  UNL     1      -4.578   7.918  18.005  1.00  0.00    -0.140 N 
ATOM      3  H2  UNL     1      -5.010   8.182  18.890  1.00  0.00     0.189 HD
HETATM    4  C2  UNL     1      -5.191   6.963  17.250  1.00  0.00     0.364 A 
HETATM    5  O1  UNL     1      -6.237   6.468  17.677  1.00  0.00    -0.244 OA
HETATM    6  N3  UNL     1      -4.645   6.602  16.089  1.00  0.00    -0.148 N 
HETATM    7  C4  UNL     1      -3.471   7.220  15.705  1.00  0.00     0.364 A 
HETATM    8  O3  UNL     1      -2.945   6.901  14.633  1.00  0.00    -0.244 OA
HETATM    9  N6  UNL     1      -2.899   8.151  16.471  1.00  0.00    -0.140 N 
ATOM     10  H6  UNL     1      -2.032   8.588  16.159  1.00  0.00     0.189 HD
ENDROOT
BRANCH   6  11
HETATM   11  N4  UNL     1      -5.167   5.656  15.247  1.00  0.00    -0.239 N 
HETATM   12  C3  UNL     1      -5.849   5.661  14.057  1.00  0.00     0.347 C 
HETATM   13  N5  UNL     1      -6.238   4.396  13.467  1.00  0.00    -0.038 NA
HETATM   14  O2  UNL     1      -6.187   6.641  13.396  1.00  0.00    -0.249 OA
ATOM     15  H4  UNL     1      -5.009   4.709  15.592  1.00  0.00     0.192 HD
ENDBRANCH   6  11
BRANCH   1  16
HETATM   16  N1  UNL     1      -2.860   9.419  18.342  1.00  0.00    -0.234 N 
ATOM     17  H12 UNL     1      -3.423  10.110  18.838  1.00  0.00     0.174 HD
ATOM     18  H11 UNL     1      -1.849   9.500  18.443  1.00  0.00     0.174 HD
ENDBRANCH   1  16
TORSDOF 2
ENDMDL
MODEL 5
REMARK VINA RESULT: -4.800253619      2.083      4.337
REMARK  2 active torsions:
REMARK  status: ('A' for Active; 'I' for Inactive)
REMARK    1  A    between atoms: N1_1  and  C1_4 
REMARK    2  A    between atoms: N3_9  and  N4_10 
REMARK       I    between atoms: N4_10  and  C3_12 
ROOT
HETATM    1  C1  UNL     1      -5.409   9.329  19.531  1.00  0.00     0.684 A 
HETATM    2  N2  UNL     1      -5.959   8.427  18.710  1.00  0.00    -0.140 N 
ATOM      3  H2  UNL     1      -6.943   8.192  18.843  1.00  0.00     0.189 HD
HETATM    4  C2  UNL     1      -5.279   7.805  17.707  1.00  0.00     0.364 A 
HETATM    5  O1  UNL     1      -5.890   6.989  17.010  1.00  0.00    -0.244 OA
HETATM    6  N3  UNL     1      -3.993   8.095  17.513  1.00  0.00    -0.148 N 
HETATM    7  C4  UNL     1      -3.407   9.024  18.351  1.00  0.00     0.364 A 
HETATM    8  O3  UNL     1      -2.215   9.310  18.192  1.00  0.00    -0.244 OA
HETATM    9  N6  UNL     1      -4.104   9.613  19.324  1.00  0.00    -0.140 N 
ATOM     10  H6  UNL     1      -3.641  10.294  19.926  1.00  0.00     0.189 HD
ENDROOT
BRANCH   6  11
HETATM   11  N4  UNL     1      -3.208   7.536  16.540  1.00  0.00    -0.239 N 
HETATM   12  C3  UNL     1      -3.253   7.432  15.173  1.00  0.00     0.347 C 
HETATM   13  N5  UNL     1      -2.185   6.733  14.488  1.00  0.00    -0.038 NA
HETATM   14  O2  UNL     1      -4.119   7.874  14.420  1.00  0.00    -0.249 OA
ATOM     15  H4  UNL     1      -2.382   7.083  16.930  1.00  0.00     0.192 HD
ENDBRANCH   6  11
BRANCH   1  16
HETATM   16  N1  UNL     1      -6.029   9.916  20.469  1.00  0.00    -0.234 N 
ATOM     17  H12 UNL     1      -6.240   9.402  21.325  1.00  0.00     0.174 HD
ATOM     18  H11 UNL     1      -6.342  10.886  20.434  1.00  0.00     0.174 HD
ENDBRANCH   1  16
TORSDOF 2
ENDMDL
