MODEL 1
REMARK VINA RESULT: -4.767146038      0.000      0.000
REMARK  2 active torsions:
REMARK  status: ('A' for Active; 'I' for Inactive)
REMARK    1  A    between atoms: C3_9  and  C4_10 
REMARK    2  A    between atoms: N5_13  and  N6_14 
ROOT
HETATM    1  N1  UNL     1      -6.237   6.076  19.996  1.00  0.00    -0.381 N 
ATOM      2  H11 UNL     1      -6.104   6.637  20.838  1.00  0.00     0.157 HD
ATOM      3  H12 UNL     1      -6.874   5.284  20.085  1.00  0.00     0.157 HD
HETATM    4  C1  UNL     1      -5.643   6.340  18.883  1.00  0.00     0.171 A 
HETATM    5  N2  UNL     1      -5.819   5.598  17.771  1.00  0.00    -0.325 N 
ATOM      6  H2  UNL     1      -6.447   4.795  17.811  1.00  0.00     0.169 HD
HETATM    7  C2  UNL     1      -5.197   5.876  16.612  1.00  0.00     0.152 A 
HETATM    8  N3  UNL     1      -5.376   5.099  15.432  1.00  0.00    -0.080 NA
HETATM    9  C3  UNL     1      -4.347   6.960  16.546  1.00  0.00     0.165 A 
HETATM   10  N5  UNL     1      -4.138   7.729  17.625  1.00  0.00    -0.215 N 
HETATM   11  C5  UNL     1      -4.781   7.412  18.763  1.00  0.00     0.310 A 
HETATM   12  O2  UNL     1      -4.611   8.111  19.797  1.00  0.00    -0.262 OA
ENDROOT
BRANCH  10  13
HETATM   13  N6  UNL     1      -3.275   8.843  17.592  1.00  0.00    -0.335 N 
ATOM     14  H62 UNL     1      -2.270   8.713  17.709  1.00  0.00     0.177 HD
ATOM     15  H61 UNL     1      -3.624   9.792  17.455  1.00  0.00     0.177 HD
ENDBRANCH  10  13
BRANCH   9  16
HETATM   16  C4  UNL     1      -3.645   7.311  15.314  1.00  0.00     0.286 C 
HETATM   17  N4  UNL     1      -2.299   6.920  15.092  1.00  0.00    -0.056 NA
HETATM   18  O1  UNL     1      -4.202   7.977  14.393  1.00  0.00    -0.269 OA
ENDBRANCH   9  16
TORSDOF 2
ENDMDL
MODEL 2
REMARK VINA RESULT: -4.582226776      1.737      1.851
REMARK  2 active torsions:
REMARK  status: ('A' for Active; 'I' for Inactive)
REMARK    1  A    between atoms: C3_9  and  C4_10 
REMARK    2  A    between atoms: N5_13  and  N6_14 
ROOT
HETATM    1  N1  UNL     1      -6.238   4.286  19.052  1.00  0.00    -0.381 N 
ATOM      2  H11 UNL     1      -6.383   4.858  19.885  1.00  0.00     0.157 HD
ATOM      3  H12 UNL     1      -6.395   3.285  19.167  1.00  0.00     0.157 HD
HETATM    4  C1  UNL     1      -5.880   4.786  17.919  1.00  0.00     0.171 A 
HETATM    5  N2  UNL     1      -5.688   4.030  16.819  1.00  0.00    -0.325 N 
ATOM      6  H2  UNL     1      -5.832   3.022  16.885  1.00  0.00     0.169 HD
HETATM    7  C2  UNL     1      -5.313   4.554  15.639  1.00  0.00     0.152 A 
HETATM    8  N3  UNL     1      -5.108   3.765  14.472  1.00  0.00    -0.080 NA
HETATM    9  C3  UNL     1      -5.115   5.916  15.539  1.00  0.00     0.165 A 
HETATM   10  N5  UNL     1      -5.292   6.711  16.605  1.00  0.00    -0.215 N 
HETATM   11  C5  UNL     1      -5.667   6.141  17.764  1.00  0.00     0.310 A 
HETATM   12  O2  UNL     1      -5.843   6.856  18.787  1.00  0.00    -0.262 OA
ENDROOT
BRANCH  10  13
HETATM   13  N6  UNL     1      -5.098   8.105  16.537  1.00  0.00    -0.335 N 
ATOM     14  H62 UNL     1      -4.646   8.595  17.309  1.00  0.00     0.177 HD
ATOM     15  H61 UNL     1      -5.399   8.653  15.731  1.00  0.00     0.177 HD
ENDBRANCH  10  13
BRANCH   9  16
HETATM   16  C4  UNL     1      -4.708   6.541  14.283  1.00  0.00     0.286 C 
HETATM   17  N4  UNL     1      -3.394   7.045  14.099  1.00  0.00    -0.056 NA
HETATM   18  O1  UNL     1      -5.505   6.662  13.307  1.00  0.00    -0.269 OA
ENDBRANCH   9  16
TORSDOF 2
ENDMDL
MODEL 3
REMARK VINA RESULT: -4.537037143      1.715      2.775
REMARK  2 active torsions:
REMARK  status: ('A' for Active; 'I' for Inactive)
REMARK    1  A    between atoms: C3_9  and  C4_10 
REMARK    2  A    between atoms: N5_13  and  N6_14 
ROOT
HETATM    1  N1  UNL     1      -6.238   5.455  19.263  1.00  0.00    -0.381 N 
ATOM      2  H11 UNL     1      -6.790   4.596  19.249  1.00  0.00     0.157 HD
ATOM      3  H12 UNL     1      -6.277   5.994  20.128  1.00  0.00     0.157 HD
HETATM    4  C1  UNL     1      -5.532   5.845  18.258  1.00  0.00     0.171 A 
HETATM    5  N2  UNL     1      -4.804   6.980  18.277  1.00  0.00    -0.325 N 
ATOM      6  H2  UNL     1      -4.812   7.554  19.121  1.00  0.00     0.169 HD
HETATM    7  C2  UNL     1      -4.070   7.385  17.226  1.00  0.00     0.152 A 
HETATM    8  N3  UNL     1      -3.297   8.581  17.236  1.00  0.00    -0.080 NA
HETATM    9  C3  UNL     1      -4.052   6.616  16.081  1.00  0.00     0.165 A 
HETATM   10  N5  UNL     1      -4.760   5.479  16.011  1.00  0.00    -0.215 N 
HETATM   11  C5  UNL     1      -5.480   5.116  17.087  1.00  0.00     0.310 A 
HETATM   12  O2  UNL     1      -6.158   4.053  17.060  1.00  0.00    -0.262 OA
ENDROOT
BRANCH  10  13
HETATM   13  N6  UNL     1      -4.764   4.671  14.856  1.00  0.00    -0.335 N 
ATOM     14  H62 UNL     1      -4.206   3.818  14.830  1.00  0.00     0.177 HD
ATOM     15  H61 UNL     1      -5.312   4.912  14.031  1.00  0.00     0.177 HD
ENDBRANCH  10  13
BRANCH   9  16
HETATM   16  C4  UNL     1      -3.272   7.005  14.908  1.00  0.00     0.286 C 
HETATM   17  N4  UNL     1      -1.882   6.736  14.822  1.00  0.00    -0.056 NA
HETATM   18  O1  UNL     1      -3.798   7.597  13.921  1.00  0.00    -0.269 OA
ENDBRANCH   9  16
TORSDOF 2
ENDMDL
MODEL 4
REMARK VINA RESULT: -4.533607985      1.766      3.112
REMARK  2 active torsions:
REMARK  status: ('A' for Active; 'I' for Inactive)
REMARK    1  A    between atoms: C3_9  and  C4_10 
REMARK    2  A    between atoms: N5_13  and  N6_14 
ROOT
HETATM    1  N1  UNL     1      -3.631   9.021  18.487  1.00  0.00    -0.381 N 
ATOM      2  H11 UNL     1      -4.030   9.016  19.426  1.00  0.00     0.157 HD
ATOM      3  H12 UNL     1      -2.943   9.750  18.300  1.00  0.00     0.157 HD
HETATM    4  C1  UNL     1      -3.966   8.164  17.584  1.00  0.00     0.171 A 
HETATM    5  N2  UNL     1      -3.438   8.172  16.343  1.00  0.00    -0.325 N 
ATOM      6  H2  UNL     1      -2.745   8.883  16.109  1.00  0.00     0.169 HD
HETATM    7  C2  UNL     1      -3.790   7.277  15.403  1.00  0.00     0.152 A 
HETATM    8  N3  UNL     1      -3.238   7.276  14.091  1.00  0.00    -0.080 NA
HETATM    9  C3  UNL     1      -4.725   6.311  15.710  1.00  0.00     0.165 A 
HETATM   10  N5  UNL     1      -5.281   6.261  16.930  1.00  0.00    -0.215 N 
HETATM   11  C5  UNL     1      -4.897   7.177  17.837  1.00  0.00     0.310 A 
HETATM   12  O2  UNL     1      -5.396   7.162  18.994  1.00  0.00    -0.262 OA
ENDROOT
BRANCH  10  13
HETATM   13  N6  UNL     1      -6.238   5.287  17.275  1.00  0.00    -0.335 N 
ATOM     14  H62 UNL     1      -6.727   4.771  16.543  1.00  0.00     0.177 HD
ATOM     15  H61 UNL     1      -6.467   5.075  18.246  1.00  0.00     0.177 HD
ENDBRANCH  10  13
BRANCH   9  16
HETATM   16  C4  UNL     1      -5.146   5.313  14.729  1.00  0.00     0.286 C 
HETATM   17  N4  UNL     1      -6.091   5.622  13.717  1.00  0.00    -0.056 NA
HETATM   18  O1  UNL     1      -4.689   4.132  14.738  1.00  0.00    -0.269 OA
ENDBRANCH   9  16
TORSDOF 2
ENDMDL
MODEL 5
REMARK VINA RESULT: -4.498816997      1.622      3.726
REMARK  2 active torsions:
REMARK  status: ('A' for Active; 'I' for Inactive)
REMARK    1  A    between atoms: C3_9  and  C4_10 
REMARK    2  A    between atoms: N5_13  and  N6_14 
ROOT
HETATM    1  N1  UNL     1      -5.057   3.653  14.984  1.00  0.00    -0.381 N 
ATOM      2  H11 UNL     1      -4.683   3.803  14.047  1.00  0.00     0.157 HD
ATOM      3  H12 UNL     1      -5.387   2.710  15.187  1.00  0.00     0.157 HD
HETATM    4  C1  UNL     1      -5.117   4.591  15.867  1.00  0.00     0.171 A 
HETATM    5  N2  UNL     1      -5.613   4.394  17.106  1.00  0.00    -0.325 N 
ATOM      6  H2  UNL     1      -5.955   3.466  17.355  1.00  0.00     0.169 HD
HETATM    7  C2  UNL     1      -5.674   5.374  18.024  1.00  0.00     0.152 A 
HETATM    8  N3  UNL     1      -6.195   5.176  19.334  1.00  0.00    -0.080 NA
HETATM    9  C3  UNL     1      -5.214   6.633  17.697  1.00  0.00     0.165 A 
HETATM   10  N5  UNL     1      -4.712   6.881  16.478  1.00  0.00    -0.215 N 
HETATM   11  C5  UNL     1      -4.672   5.869  15.593  1.00  0.00     0.310 A 
HETATM   12  O2  UNL     1      -4.207   6.063  14.438  1.00  0.00    -0.262 OA
ENDROOT
BRANCH  10  13
HETATM   13  N6  UNL     1      -4.234   8.155  16.112  1.00  0.00    -0.335 N 
ATOM     14  H62 UNL     1      -4.592   8.611  15.273  1.00  0.00     0.177 HD
ATOM     15  H61 UNL     1      -3.530   8.646  16.663  1.00  0.00     0.177 HD
ENDBRANCH  10  13
BRANCH   9  16
HETATM   16  C4  UNL     1      -5.255   7.736  18.653  1.00  0.00     0.286 C 
HETATM   17  N4  UNL     1      -4.188   7.970  19.560  1.00  0.00    -0.056 NA
HETATM   18  O1  UNL     1      -6.238   8.531  18.717  1.00  0.00    -0.269 OA
ENDBRANCH   9  16
TORSDOF 2
ENDMDL
