MODEL 1
REMARK VINA RESULT: -4.567752822      0.000      0.000
REMARK  3 active torsions:
REMARK  status: ('A' for Active; 'I' for Inactive)
REMARK    1  A    between atoms: N1_1  and  C1_4 
REMARK    2  A    between atoms: N3_7  and  N4_8 
REMARK    3  A    between atoms: C3_13  and  C4_14 
ROOT
HETATM    1  C1  UNL     1      -5.663   4.790  17.001  1.00  0.00     0.167 A 
HETATM    2  N2  UNL     1      -5.754   5.487  18.141  1.00  0.00    -0.260 N 
ATOM      3  H2  UNL     1      -6.292   5.120  18.927  1.00  0.00     0.191 HD
HETATM    4  N3  UNL     1      -5.145   6.644  18.238  1.00  0.00    -0.186 N 
HETATM    5  C2  UNL     1      -4.418   7.203  17.267  1.00  0.00     0.175 A 
HETATM    6  N5  UNL     1      -3.768   8.458  17.397  1.00  0.00    -0.078 NA
HETATM    7  C3  UNL     1      -4.307   6.507  16.082  1.00  0.00     0.127 A 
HETATM    8  C5  UNL     1      -4.934   5.294  15.952  1.00  0.00     0.235 A 
HETATM    9  O2  UNL     1      -4.818   4.669  14.851  1.00  0.00    -0.283 OA
ENDROOT
BRANCH   1  10
HETATM   10  N1  UNL     1      -6.238   3.650  16.847  1.00  0.00    -0.381 N 
ATOM     11  H12 UNL     1      -6.081   2.933  17.555  1.00  0.00     0.157 HD
ATOM     12  H11 UNL     1      -6.840   3.449  16.049  1.00  0.00     0.157 HD
ENDBRANCH   1  10
BRANCH   4  13
HETATM   13  N4  UNL     1      -5.252   7.372  19.455  1.00  0.00    -0.323 N 
ATOM     14  H42 UNL     1      -4.713   7.022  20.247  1.00  0.00     0.179 HD
ATOM     15  H41 UNL     1      -5.853   8.195  19.482  1.00  0.00     0.179 HD
ENDBRANCH   4  13
BRANCH   7  16
HETATM   16  C4  UNL     1      -3.522   7.095  15.011  1.00  0.00     0.272 C 
HETATM   17  N6  UNL     1      -2.133   6.814  14.967  1.00  0.00    -0.057 NA
HETATM   18  O1  UNL     1      -3.986   7.831  14.122  1.00  0.00    -0.271 OA
ENDBRANCH   7  16
TORSDOF 3
ENDMDL
MODEL 2
REMARK VINA RESULT: -4.558391528      1.272      2.898
REMARK  3 active torsions:
REMARK  status: ('A' for Active; 'I' for Inactive)
REMARK    1  A    between atoms: N1_1  and  C1_4 
REMARK    2  A    between atoms: N3_7  and  N4_8 
REMARK    3  A    between atoms: C3_13  and  C4_14 
ROOT
HETATM    1  C1  UNL     1      -5.138   6.897  18.301  1.00  0.00     0.167 A 
HETATM    2  N2  UNL     1      -5.736   5.703  18.199  1.00  0.00    -0.260 N 
ATOM      3  H2  UNL     1      -6.294   5.339  18.971  1.00  0.00     0.191 HD
HETATM    4  N3  UNL     1      -5.598   5.007  17.096  1.00  0.00    -0.186 N 
HETATM    5  C2  UNL     1      -4.891   5.402  16.033  1.00  0.00     0.175 A 
HETATM    6  N5  UNL     1      -4.757   4.629  14.850  1.00  0.00    -0.078 NA
HETATM    7  C3  UNL     1      -4.266   6.627  16.112  1.00  0.00     0.127 A 
HETATM    8  C5  UNL     1      -4.392   7.377  17.253  1.00  0.00     0.235 A 
HETATM    9  O2  UNL     1      -3.807   8.504  17.303  1.00  0.00    -0.283 OA
ENDROOT
BRANCH   1  10
HETATM   10  N1  UNL     1      -5.238   7.624  19.358  1.00  0.00    -0.381 N 
ATOM     11  H12 UNL     1      -5.439   7.161  20.243  1.00  0.00     0.157 HD
ATOM     12  H11 UNL     1      -5.121   8.637  19.332  1.00  0.00     0.157 HD
ENDBRANCH   1  10
BRANCH   4  13
HETATM   13  N4  UNL     1      -6.238   3.741  17.003  1.00  0.00    -0.323 N 
ATOM     14  H42 UNL     1      -5.641   2.918  17.081  1.00  0.00     0.179 HD
ATOM     15  H41 UNL     1      -7.249   3.713  16.863  1.00  0.00     0.179 HD
ENDBRANCH   4  13
BRANCH   7  16
HETATM   16  C4  UNL     1      -3.490   7.078  14.968  1.00  0.00     0.272 C 
HETATM   17  N6  UNL     1      -2.101   6.794  14.948  1.00  0.00    -0.057 NA
HETATM   18  O1  UNL     1      -3.963   7.698  13.999  1.00  0.00    -0.271 OA
ENDBRANCH   7  16
TORSDOF 3
ENDMDL
MODEL 3
REMARK VINA RESULT: -4.244877466      1.663      3.249
REMARK  3 active torsions:
REMARK  status: ('A' for Active; 'I' for Inactive)
REMARK    1  A    between atoms: N1_1  and  C1_4 
REMARK    2  A    between atoms: N3_7  and  N4_8 
REMARK    3  A    between atoms: C3_13  and  C4_14 
ROOT
HETATM    1  C1  UNL     1      -4.064   7.986  19.305  1.00  0.00     0.167 A 
HETATM    2  N2  UNL     1      -4.922   6.990  19.561  1.00  0.00    -0.260 N 
ATOM      3  H2  UNL     1      -5.261   6.834  20.510  1.00  0.00     0.191 HD
HETATM    4  N3  UNL     1      -5.321   6.217  18.580  1.00  0.00    -0.186 N 
HETATM    5  C2  UNL     1      -4.935   6.344  17.307  1.00  0.00     0.175 A 
HETATM    6  N5  UNL     1      -5.383   5.494  16.263  1.00  0.00    -0.078 NA
HETATM    7  C3  UNL     1      -4.053   7.363  17.015  1.00  0.00     0.127 A 
HETATM    8  C5  UNL     1      -3.617   8.187  18.021  1.00  0.00     0.235 A 
HETATM    9  O2  UNL     1      -2.804   9.119  17.730  1.00  0.00    -0.283 OA
ENDROOT
BRANCH   1  10
HETATM   10  N1  UNL     1      -3.638   8.776  20.226  1.00  0.00    -0.381 N 
ATOM     11  H12 UNL     1      -3.909   9.758  20.181  1.00  0.00     0.157 HD
ATOM     12  H11 UNL     1      -3.045   8.449  20.989  1.00  0.00     0.157 HD
ENDBRANCH   1  10
BRANCH   4  13
HETATM   13  N4  UNL     1      -6.232   5.163  18.868  1.00  0.00    -0.323 N 
ATOM     14  H42 UNL     1      -6.860   5.305  19.659  1.00  0.00     0.179 HD
ATOM     15  H41 UNL     1      -6.215   4.328  18.283  1.00  0.00     0.179 HD
ENDBRANCH   4  13
BRANCH   7  16
HETATM   16  C4  UNL     1      -3.617   7.521  15.638  1.00  0.00     0.272 C 
HETATM   17  N6  UNL     1      -2.362   6.978  15.266  1.00  0.00    -0.057 NA
HETATM   18  O1  UNL     1      -4.274   8.103  14.757  1.00  0.00    -0.271 OA
ENDBRANCH   7  16
TORSDOF 3
ENDMDL
MODEL 4
REMARK VINA RESULT: -4.178159304      2.089      3.408
REMARK  3 active torsions:
REMARK  status: ('A' for Active; 'I' for Inactive)
REMARK    1  A    between atoms: N1_1  and  C1_4 
REMARK    2  A    between atoms: N3_7  and  N4_8 
REMARK    3  A    between atoms: C3_13  and  C4_14 
ROOT
HETATM    1  C1  UNL     1      -4.958   4.727  15.609  1.00  0.00     0.167 A 
HETATM    2  N2  UNL     1      -4.019   5.298  14.844  1.00  0.00    -0.260 N 
ATOM      3  H2  UNL     1      -3.721   4.853  13.975  1.00  0.00     0.191 HD
HETATM    4  N3  UNL     1      -3.485   6.435  15.222  1.00  0.00    -0.186 N 
HETATM    5  C2  UNL     1      -3.810   7.092  16.338  1.00  0.00     0.175 A 
HETATM    6  N5  UNL     1      -3.218   8.323  16.725  1.00  0.00    -0.078 NA
HETATM    7  C3  UNL     1      -4.775   6.527  17.144  1.00  0.00     0.127 A 
HETATM    8  C5  UNL     1      -5.351   5.338  16.774  1.00  0.00     0.235 A 
HETATM    9  O2  UNL     1      -6.238   4.835  17.532  1.00  0.00    -0.283 OA
ENDROOT
BRANCH   1  10
HETATM   10  N1  UNL     1      -5.516   3.613  15.290  1.00  0.00    -0.381 N 
ATOM     11  H12 UNL     1      -5.540   3.352  14.304  1.00  0.00     0.157 HD
ATOM     12  H11 UNL     1      -5.929   2.994  15.987  1.00  0.00     0.157 HD
ENDBRANCH   1  10
BRANCH   4  13
HETATM   13  N4  UNL     1      -2.488   7.029  14.399  1.00  0.00    -0.323 N 
ATOM     14  H42 UNL     1      -1.955   6.399  13.800  1.00  0.00     0.179 HD
ATOM     15  H41 UNL     1      -2.354   8.039  14.444  1.00  0.00     0.179 HD
ENDBRANCH   4  13
BRANCH   7  16
HETATM   16  C4  UNL     1      -5.146   7.223  18.364  1.00  0.00     0.272 C 
HETATM   17  N6  UNL     1      -6.215   8.153  18.306  1.00  0.00    -0.057 NA
HETATM   18  O1  UNL     1      -4.589   7.058  19.464  1.00  0.00    -0.271 OA
ENDBRANCH   7  16
TORSDOF 3
ENDMDL
MODEL 5
REMARK VINA RESULT: -4.175129035      1.932      3.962
REMARK  3 active torsions:
REMARK  status: ('A' for Active; 'I' for Inactive)
REMARK    1  A    between atoms: N1_1  and  C1_4 
REMARK    2  A    between atoms: N3_7  and  N4_8 
REMARK    3  A    between atoms: C3_13  and  C4_14 
ROOT
HETATM    1  C1  UNL     1      -3.413   6.542  15.248  1.00  0.00     0.167 A 
HETATM    2  N2  UNL     1      -3.998   5.357  15.037  1.00  0.00    -0.260 N 
ATOM      3  H2  UNL     1      -3.757   4.802  14.216  1.00  0.00     0.191 HD
HETATM    4  N3  UNL     1      -4.885   4.914  15.897  1.00  0.00    -0.186 N 
HETATM    5  C2  UNL     1      -5.262   5.567  17.000  1.00  0.00     0.175 A 
HETATM    6  N5  UNL     1      -6.224   5.066  17.916  1.00  0.00    -0.078 NA
HETATM    7  C3  UNL     1      -4.675   6.790  17.242  1.00  0.00     0.127 A 
HETATM    8  C5  UNL     1      -3.745   7.277  16.360  1.00  0.00     0.235 A 
HETATM    9  O2  UNL     1      -3.216   8.407  16.602  1.00  0.00    -0.283 OA
ENDROOT
BRANCH   1  10
HETATM   10  N1  UNL     1      -2.537   7.026  14.440  1.00  0.00    -0.381 N 
ATOM     11  H12 UNL     1      -1.574   7.104  14.765  1.00  0.00     0.157 HD
ATOM     12  H11 UNL     1      -2.779   7.328  13.496  1.00  0.00     0.157 HD
ENDBRANCH   1  10
BRANCH   4  13
HETATM   13  N4  UNL     1      -5.498   3.654  15.659  1.00  0.00    -0.323 N 
ATOM     14  H42 UNL     1      -6.517   3.635  15.647  1.00  0.00     0.179 HD
ATOM     15  H41 UNL     1      -4.901   2.839  15.515  1.00  0.00     0.179 HD
ENDBRANCH   4  13
BRANCH   7  16
HETATM   16  C4  UNL     1      -5.070   7.518  18.435  1.00  0.00     0.272 C 
HETATM   17  N6  UNL     1      -4.320   7.317  19.622  1.00  0.00    -0.057 NA
HETATM   18  O1  UNL     1      -6.026   8.312  18.489  1.00  0.00    -0.271 OA
ENDBRANCH   7  16
TORSDOF 3
ENDMDL
