MODEL 1
REMARK VINA RESULT: -4.744015342      0.000      0.000
REMARK  0 active torsions:
REMARK  status: ('A' for Active; 'I' for Inactive)
ROOT
HETATM    1  N1  UNL     1      86.457  -4.615   9.789  1.00  0.00    -0.100 NA
HETATM    2  C1  UNL     1      86.621  -5.052   8.456  1.00  0.00     0.070 A 
HETATM    3  C2  UNL     1      87.790  -4.848   7.744  1.00  0.00     0.028 A 
HETATM    4  C3  UNL     1      87.961  -5.270   6.444  1.00  0.00     0.002 A 
HETATM    5  C4  UNL     1      86.943  -5.928   5.787  1.00  0.00     0.002 A 
HETATM    6  C5  UNL     1      85.772  -6.142   6.476  1.00  0.00     0.028 A 
HETATM    7  C6  UNL     1      85.594  -5.723   7.778  1.00  0.00     0.070 A 
HETATM    8  N2  UNL     1      84.370  -5.959   8.459  1.00  0.00    -0.100 NA
ENDROOT
TORSDOF 0
ENDMDL
MODEL 2
REMARK VINA RESULT: -4.684299959      0.054      2.188
REMARK  0 active torsions:
REMARK  status: ('A' for Active; 'I' for Inactive)
ROOT
HETATM    1  N1  UNL     1      84.358  -6.023   8.518  1.00  0.00    -0.100 NA
HETATM    2  C1  UNL     1      85.557  -5.767   7.815  1.00  0.00     0.070 A 
HETATM    3  C2  UNL     1      85.753  -6.175   6.507  1.00  0.00     0.028 A 
HETATM    4  C3  UNL     1      86.916  -5.930   5.811  1.00  0.00     0.002 A 
HETATM    5  C4  UNL     1      87.956  -5.252   6.411  1.00  0.00     0.002 A 
HETATM    6  C5  UNL     1      87.781  -4.837   7.711  1.00  0.00     0.028 A 
HETATM    7  C6  UNL     1      86.620  -5.078   8.413  1.00  0.00     0.070 A 
HETATM    8  N2  UNL     1      86.474  -4.635   9.756  1.00  0.00    -0.100 NA
ENDROOT
TORSDOF 0
ENDMDL
MODEL 3
REMARK VINA RESULT: -4.197324865      1.744      2.887
REMARK  0 active torsions:
REMARK  status: ('A' for Active; 'I' for Inactive)
ROOT
HETATM    1  N1  UNL     1      87.646  -3.861   6.093  1.00  0.00    -0.100 NA
HETATM    2  C1  UNL     1      86.929  -4.884   6.753  1.00  0.00     0.070 A 
HETATM    3  C2  UNL     1      86.055  -5.727   6.090  1.00  0.00     0.028 A 
HETATM    4  C3  UNL     1      85.350  -6.727   6.722  1.00  0.00     0.002 A 
HETATM    5  C4  UNL     1      85.495  -6.928   8.078  1.00  0.00     0.002 A 
HETATM    6  C5  UNL     1      86.360  -6.102   8.758  1.00  0.00     0.028 A 
HETATM    7  C6  UNL     1      87.068  -5.099   8.131  1.00  0.00     0.070 A 
HETATM    8  N2  UNL     1      87.952  -4.262   8.864  1.00  0.00    -0.100 NA
ENDROOT
TORSDOF 0
ENDMDL
MODEL 4
REMARK VINA RESULT: -4.108898160      1.741      2.438
REMARK  0 active torsions:
REMARK  status: ('A' for Active; 'I' for Inactive)
ROOT
HETATM    1  N1  UNL     1      87.937  -4.253   8.912  1.00  0.00    -0.100 NA
HETATM    2  C1  UNL     1      87.067  -5.087   8.175  1.00  0.00     0.070 A 
HETATM    3  C2  UNL     1      86.342  -6.109   8.762  1.00  0.00     0.028 A 
HETATM    4  C3  UNL     1      85.490  -6.928   8.054  1.00  0.00     0.002 A 
HETATM    5  C4  UNL     1      85.327  -6.754   6.697  1.00  0.00     0.002 A 
HETATM    6  C5  UNL     1      86.037  -5.742   6.093  1.00  0.00     0.028 A 
HETATM    7  C6  UNL     1      86.891  -4.919   6.795  1.00  0.00     0.070 A 
HETATM    8  N2  UNL     1      87.611  -3.884   6.138  1.00  0.00    -0.100 NA
ENDROOT
TORSDOF 0
ENDMDL
MODEL 5
REMARK VINA RESULT: -3.806305406      2.565      3.154
REMARK  0 active torsions:
REMARK  status: ('A' for Active; 'I' for Inactive)
ROOT
HETATM    1  N1  UNL     1      87.231  -3.492   5.595  1.00  0.00    -0.100 NA
HETATM    2  C1  UNL     1      86.798  -4.593   6.368  1.00  0.00     0.070 A 
HETATM    3  C2  UNL     1      85.710  -4.522   7.221  1.00  0.00     0.028 A 
HETATM    4  C3  UNL     1      85.279  -5.588   7.979  1.00  0.00     0.002 A 
HETATM    5  C4  UNL     1      85.935  -6.798   7.913  1.00  0.00     0.002 A 
HETATM    6  C5  UNL     1      87.019  -6.892   7.071  1.00  0.00     0.028 A 
HETATM    7  C6  UNL     1      87.456  -5.829   6.309  1.00  0.00     0.070 A 
HETATM    8  N2  UNL     1      88.581  -5.961   5.450  1.00  0.00    -0.100 NA
ENDROOT
TORSDOF 0
ENDMDL
