MODEL 1
REMARK VINA RESULT: -4.127840590      0.000      0.000
REMARK  1 active torsions:
REMARK  status: ('A' for Active; 'I' for Inactive)
REMARK    1  A    between atoms: N1_1  and  C1_4 
ROOT
HETATM    1  C1  UNL     1      85.840  -5.823   7.557  1.00  0.00     0.143 A 
HETATM    2  N2  UNL     1      85.935  -4.652   6.927  1.00  0.00    -0.325 N 
ATOM      3  H2  UNL     1      85.225  -3.932   7.062  1.00  0.00     0.169 HD
HETATM    4  C2  UNL     1      86.949  -4.442   6.137  1.00  0.00     0.124 A 
HETATM    5  N3  UNL     1      87.128  -3.193   5.412  1.00  0.00    -0.082 NA
HETATM    6  C3  UNL     1      87.871  -5.440   5.995  1.00  0.00     0.098 A 
HETATM    7  S1  UNL     1      87.230  -6.648   7.015  1.00  0.00    -0.063 SA
ENDROOT
BRANCH   1   8
HETATM    8  N1  UNL     1      84.903  -6.225   8.388  1.00  0.00    -0.380 N 
ATOM      9  H12 UNL     1      84.565  -5.785   9.244  1.00  0.00     0.158 HD
ATOM     10  H11 UNL     1      84.328  -7.066   8.331  1.00  0.00     0.158 HD
ENDBRANCH   1   8
TORSDOF 1
ENDMDL
MODEL 2
REMARK VINA RESULT: -4.003027394      2.129      2.281
REMARK  1 active torsions:
REMARK  status: ('A' for Active; 'I' for Inactive)
REMARK    1  A    between atoms: N1_1  and  C1_4 
ROOT
HETATM    1  C1  UNL     1      85.635  -6.599   8.226  1.00  0.00     0.143 A 
HETATM    2  N2  UNL     1      86.310  -5.822   9.072  1.00  0.00    -0.325 N 
ATOM      3  H2  UNL     1      86.125  -5.865  10.075  1.00  0.00     0.169 HD
HETATM    4  C2  UNL     1      87.210  -5.008   8.600  1.00  0.00     0.124 A 
HETATM    5  N3  UNL     1      87.991  -4.126   9.455  1.00  0.00    -0.082 NA
HETATM    6  C3  UNL     1      87.419  -4.994   7.249  1.00  0.00     0.098 A 
HETATM    7  S1  UNL     1      86.297  -6.163   6.716  1.00  0.00    -0.063 SA
ENDROOT
BRANCH   1   8
HETATM    8  N1  UNL     1      84.696  -7.478   8.501  1.00  0.00    -0.380 N 
ATOM      9  H12 UNL     1      84.027  -7.489   9.271  1.00  0.00     0.158 HD
ATOM     10  H11 UNL     1      84.456  -8.327   7.988  1.00  0.00     0.158 HD
ENDBRANCH   1   8
TORSDOF 1
ENDMDL
MODEL 3
REMARK VINA RESULT: -3.945351871      1.240      1.307
REMARK  1 active torsions:
REMARK  status: ('A' for Active; 'I' for Inactive)
REMARK    1  A    between atoms: N1_1  and  C1_4 
ROOT
HETATM    1  C1  UNL     1      86.438  -5.810   8.196  1.00  0.00     0.143 A 
HETATM    2  N2  UNL     1      86.981  -4.739   7.617  1.00  0.00    -0.325 N 
ATOM      3  H2  UNL     1      87.515  -4.068   8.168  1.00  0.00     0.169 HD
HETATM    4  C2  UNL     1      86.819  -4.565   6.337  1.00  0.00     0.124 A 
HETATM    5  N3  UNL     1      87.378  -3.424   5.627  1.00  0.00    -0.082 NA
HETATM    6  C3  UNL     1      86.096  -5.498   5.647  1.00  0.00     0.098 A 
HETATM    7  S1  UNL     1      85.677  -6.592   6.886  1.00  0.00    -0.063 SA
ENDROOT
BRANCH   1   8
HETATM    8  N1  UNL     1      86.486  -6.162   9.463  1.00  0.00    -0.380 N 
ATOM      9  H12 UNL     1      85.732  -6.462  10.079  1.00  0.00     0.158 HD
ATOM     10  H11 UNL     1      87.301  -6.202  10.076  1.00  0.00     0.158 HD
ENDBRANCH   1   8
TORSDOF 1
ENDMDL
MODEL 4
REMARK VINA RESULT: -3.899832038      1.152      2.989
REMARK  1 active torsions:
REMARK  status: ('A' for Active; 'I' for Inactive)
REMARK    1  A    between atoms: N1_1  and  C1_4 
ROOT
HETATM    1  C1  UNL     1      86.411  -4.573   6.024  1.00  0.00     0.143 A 
HETATM    2  N2  UNL     1      85.602  -5.293   6.800  1.00  0.00    -0.325 N 
ATOM      3  H2  UNL     1      84.643  -4.987   6.973  1.00  0.00     0.169 HD
HETATM    4  C2  UNL     1      86.052  -6.391   7.335  1.00  0.00     0.124 A 
HETATM    5  N3  UNL     1      85.234  -7.234   8.194  1.00  0.00    -0.082 NA
HETATM    6  C3  UNL     1      87.343  -6.754   7.068  1.00  0.00     0.098 A 
HETATM    7  S1  UNL     1      87.853  -5.483   6.051  1.00  0.00    -0.063 SA
ENDROOT
BRANCH   1   8
HETATM    8  N1  UNL     1      86.149  -3.446   5.398  1.00  0.00    -0.380 N 
ATOM      9  H12 UNL     1      86.068  -2.502   5.775  1.00  0.00     0.158 HD
ATOM     10  H11 UNL     1      85.975  -3.302   4.403  1.00  0.00     0.158 HD
ENDBRANCH   1   8
TORSDOF 1
ENDMDL
MODEL 5
REMARK VINA RESULT: -3.871104054      1.998      3.126
REMARK  1 active torsions:
REMARK  status: ('A' for Active; 'I' for Inactive)
REMARK    1  A    between atoms: N1_1  and  C1_4 
ROOT
HETATM    1  C1  UNL     1      87.468  -5.844   6.702  1.00  0.00     0.143 A 
HETATM    2  N2  UNL     1      87.556  -5.193   7.861  1.00  0.00    -0.325 N 
ATOM      3  H2  UNL     1      88.435  -4.761   8.147  1.00  0.00     0.169 HD
HETATM    4  C2  UNL     1      86.503  -5.114   8.622  1.00  0.00     0.124 A 
HETATM    5  N3  UNL     1      86.513  -4.422   9.902  1.00  0.00    -0.082 NA
HETATM    6  C3  UNL     1      85.350  -5.709   8.189  1.00  0.00     0.098 A 
HETATM    7  S1  UNL     1      85.843  -6.360   6.691  1.00  0.00    -0.063 SA
ENDROOT
BRANCH   1   8
HETATM    8  N1  UNL     1      88.408  -6.034   5.801  1.00  0.00    -0.380 N 
ATOM      9  H12 UNL     1      88.412  -6.654   4.992  1.00  0.00     0.158 HD
ATOM     10  H11 UNL     1      89.324  -5.587   5.741  1.00  0.00     0.158 HD
ENDBRANCH   1   8
TORSDOF 1
ENDMDL
