MODEL 1
REMARK VINA RESULT: -7.118822087      0.000      0.000
REMARK  4 active torsions:
REMARK  status: ('A' for Active; 'I' for Inactive)
REMARK    1  A    between atoms: C4_5  and  N2_6 
REMARK       I    between atoms: N2_6  and  C5_8 
REMARK    2  A    between atoms: C5_8  and  C6_10 
REMARK       I    between atoms: C6_10  and  N3_12 
REMARK    3  A    between atoms: N3_12  and  N4_14 
REMARK       I    between atoms: N4_14  and  C7_16 
REMARK       I    between atoms: C7_16  and  N6_20 
REMARK    4  A    between atoms: N6_20  and  N7_22 
ROOT
HETATM    1  C6  UNL     1       5.151  20.189  19.862  1.00  0.00     0.328 C 
HETATM    2  O2  UNL     1       6.384  20.406  19.879  1.00  0.00    -0.261 OA
HETATM    3  N3  UNL     1       4.327  20.572  18.785  1.00  0.00    -0.247 N 
ATOM      4  H3  UNL     1       3.328  20.370  18.822  1.00  0.00     0.191 HD
ENDROOT
BRANCH   1   5
HETATM    5  C5  UNL     1       4.553  19.510  21.003  1.00  0.00     0.311 C 
HETATM    6  N2  UNL     1       3.865  20.198  22.034  1.00  0.00    -0.348 N 
ATOM      7  H2  UNL     1       3.775  21.213  21.992  1.00  0.00     0.163 HD
HETATM    8  O1  UNL     1       4.657  18.234  21.071  1.00  0.00    -0.262 OA
BRANCH   6   9
HETATM    9  C4  UNL     1       3.299  19.486  23.124  1.00  0.00     0.088 C 
HETATM   10  C3  UNL     1       4.130  19.644  24.406  1.00  0.00     0.055 C 
HETATM   11  C2  UNL     1       3.466  18.737  25.424  1.00  0.00     0.274 C 
HETATM   12  N1  UNL     1       2.180  19.290  25.800  1.00  0.00     0.084 N 
HETATM   13  C1  UNL     1       2.299  19.763  27.164  1.00  0.00     0.309 C 
HETATM   14  C9  UNL     1       1.765  20.353  24.911  1.00  0.00     0.274 C 
HETATM   15  C8  UNL     1       1.890  19.882  23.480  1.00  0.00     0.055 C 
ENDBRANCH   6   9
ENDBRANCH   1   5
BRANCH   3  16
HETATM   16  N4  UNL     1       4.852  21.224  17.667  1.00  0.00    -0.128 N 
HETATM   17  C7  UNL     1       4.278  21.036  16.386  1.00  0.00     0.704 C 
HETATM   18  N5  UNL     1       3.225  21.694  15.975  1.00  0.00    -0.232 N 
HETATM   19  N6  UNL     1       4.854  20.096  15.495  1.00  0.00    -0.138 N 
ATOM     20  H52 UNL     1       2.811  22.370  16.617  1.00  0.00     0.174 HD
ATOM     21  H51 UNL     1       2.812  21.559  15.053  1.00  0.00     0.174 HD
ATOM     22  H6  UNL     1       4.286  19.309  15.182  1.00  0.00     0.205 HD
ATOM     23  H4  UNL     1       5.658  21.841  17.774  1.00  0.00     0.205 HD
BRANCH  19  24
HETATM   24  N7  UNL     1       6.173  20.204  15.027  1.00  0.00    -0.331 N 
ATOM     25  H72 UNL     1       6.389  19.785  14.122  1.00  0.00     0.177 HD
ATOM     26  H71 UNL     1       6.908  20.678  15.551  1.00  0.00     0.177 HD
ENDBRANCH  19  24
ENDBRANCH   3  16
TORSDOF 4
ENDMDL
MODEL 2
REMARK VINA RESULT: -7.011147487      1.054      1.307
REMARK  4 active torsions:
REMARK  status: ('A' for Active; 'I' for Inactive)
REMARK    1  A    between atoms: C4_5  and  N2_6 
REMARK       I    between atoms: N2_6  and  C5_8 
REMARK    2  A    between atoms: C5_8  and  C6_10 
REMARK       I    between atoms: C6_10  and  N3_12 
REMARK    3  A    between atoms: N3_12  and  N4_14 
REMARK       I    between atoms: N4_14  and  C7_16 
REMARK       I    between atoms: C7_16  and  N6_20 
REMARK    4  A    between atoms: N6_20  and  N7_22 
ROOT
HETATM    1  C6  UNL     1       4.719  21.009  19.463  1.00  0.00     0.328 C 
HETATM    2  O2  UNL     1       5.142  22.170  19.666  1.00  0.00    -0.261 OA
HETATM    3  N3  UNL     1       4.594  20.462  18.171  1.00  0.00    -0.247 N 
ATOM      4  H3  UNL     1       4.244  19.510  18.062  1.00  0.00     0.191 HD
ENDROOT
BRANCH   1   5
HETATM    5  C5  UNL     1       4.348  20.199  20.614  1.00  0.00     0.311 C 
HETATM    6  N2  UNL     1       3.610  20.711  21.711  1.00  0.00    -0.348 N 
ATOM      7  H2  UNL     1       3.319  21.688  21.712  1.00  0.00     0.163 HD
HETATM    8  O1  UNL     1       4.707  18.967  20.630  1.00  0.00    -0.262 OA
BRANCH   6   9
HETATM    9  C4  UNL     1       3.273  19.876  22.808  1.00  0.00     0.088 C 
HETATM   10  C3  UNL     1       4.162  20.147  24.031  1.00  0.00     0.055 C 
HETATM   11  C2  UNL     1       3.759  19.104  25.054  1.00  0.00     0.274 C 
HETATM   12  N1  UNL     1       2.428  19.399  25.548  1.00  0.00     0.084 N 
HETATM   13  C1  UNL     1       2.569  19.846  26.919  1.00  0.00     0.309 C 
HETATM   14  C9  UNL     1       1.757  20.393  24.739  1.00  0.00     0.274 C 
HETATM   15  C8  UNL     1       1.849  19.994  23.284  1.00  0.00     0.055 C 
ENDBRANCH   6   9
ENDBRANCH   1   5
BRANCH   3  16
HETATM   16  N4  UNL     1       4.938  21.197  17.036  1.00  0.00    -0.128 N 
HETATM   17  C7  UNL     1       5.638  20.588  15.965  1.00  0.00     0.704 C 
HETATM   18  N5  UNL     1       5.044  19.887  15.036  1.00  0.00    -0.232 N 
HETATM   19  N6  UNL     1       7.045  20.731  15.881  1.00  0.00    -0.138 N 
ATOM     20  H52 UNL     1       4.031  19.783  15.096  1.00  0.00     0.174 HD
ATOM     21  H51 UNL     1       5.547  19.448  14.265  1.00  0.00     0.174 HD
ATOM     22  H6  UNL     1       7.625  19.893  15.920  1.00  0.00     0.205 HD
ATOM     23  H4  UNL     1       4.684  22.184  16.977  1.00  0.00     0.205 HD
BRANCH  19  24
HETATM   24  N7  UNL     1       7.674  21.979  15.748  1.00  0.00    -0.331 N 
ATOM     25  H72 UNL     1       7.277  22.766  16.261  1.00  0.00     0.177 HD
ATOM     26  H71 UNL     1       8.500  22.122  15.166  1.00  0.00     0.177 HD
ENDBRANCH  19  24
ENDBRANCH   3  16
TORSDOF 4
ENDMDL
MODEL 3
REMARK VINA RESULT: -7.009677838      2.375      2.741
REMARK  4 active torsions:
REMARK  status: ('A' for Active; 'I' for Inactive)
REMARK    1  A    between atoms: C4_5  and  N2_6 
REMARK       I    between atoms: N2_6  and  C5_8 
REMARK    2  A    between atoms: C5_8  and  C6_10 
REMARK       I    between atoms: C6_10  and  N3_12 
REMARK    3  A    between atoms: N3_12  and  N4_14 
REMARK       I    between atoms: N4_14  and  C7_16 
REMARK       I    between atoms: C7_16  and  N6_20 
REMARK    4  A    between atoms: N6_20  and  N7_22 
ROOT
HETATM    1  C6  UNL     1       5.210  21.091  19.766  1.00  0.00     0.328 C 
HETATM    2  O2  UNL     1       4.494  21.934  19.178  1.00  0.00    -0.261 OA
HETATM    3  N3  UNL     1       6.597  20.984  19.543  1.00  0.00    -0.247 N 
ATOM      4  H3  UNL     1       7.132  20.280  20.050  1.00  0.00     0.191 HD
ENDROOT
BRANCH   1   5
HETATM    5  C5  UNL     1       4.574  20.191  20.718  1.00  0.00     0.311 C 
HETATM    6  N2  UNL     1       3.826  20.651  21.831  1.00  0.00    -0.348 N 
ATOM      7  H2  UNL     1       3.717  21.653  21.988  1.00  0.00     0.163 HD
HETATM    8  O1  UNL     1       4.702  18.928  20.536  1.00  0.00    -0.262 OA
BRANCH   6   9
HETATM    9  C4  UNL     1       3.226  19.730  22.729  1.00  0.00     0.088 C 
HETATM   10  C3  UNL     1       4.111  19.463  23.954  1.00  0.00     0.055 C 
HETATM   11  C2  UNL     1       3.390  18.382  24.737  1.00  0.00     0.274 C 
HETATM   12  N1  UNL     1       2.182  18.932  25.322  1.00  0.00     0.084 N 
HETATM   13  C1  UNL     1       2.397  19.011  26.753  1.00  0.00     0.309 C 
HETATM   14  C9  UNL     1       1.853  20.227  24.769  1.00  0.00     0.274 C 
HETATM   15  C8  UNL     1       1.879  20.146  23.260  1.00  0.00     0.055 C 
ENDBRANCH   6   9
ENDBRANCH   1   5
BRANCH   3  16
HETATM   16  N4  UNL     1       7.253  21.824  18.642  1.00  0.00    -0.128 N 
HETATM   17  C7  UNL     1       8.310  21.334  17.837  1.00  0.00     0.704 C 
HETATM   18  N5  UNL     1       8.111  20.688  16.718  1.00  0.00    -0.232 N 
HETATM   19  N6  UNL     1       9.651  21.542  18.245  1.00  0.00    -0.138 N 
ATOM     20  H52 UNL     1       7.146  20.539  16.424  1.00  0.00     0.174 HD
ATOM     21  H51 UNL     1       8.872  20.336  16.138  1.00  0.00     0.174 HD
ATOM     22  H6  UNL     1      10.238  20.728  18.425  1.00  0.00     0.205 HD
ATOM     23  H4  UNL     1       6.968  22.801  18.563  1.00  0.00     0.205 HD
BRANCH  19  24
HETATM   24  N7  UNL     1      10.204  22.822  18.413  1.00  0.00    -0.331 N 
ATOM     25  H72 UNL     1       9.613  23.624  18.197  1.00  0.00     0.177 HD
ATOM     26  H71 UNL     1      11.159  22.972  18.739  1.00  0.00     0.177 HD
ENDBRANCH  19  24
ENDBRANCH   3  16
TORSDOF 4
ENDMDL
MODEL 4
REMARK VINA RESULT: -6.929648741      1.461      1.910
REMARK  4 active torsions:
REMARK  status: ('A' for Active; 'I' for Inactive)
REMARK    1  A    between atoms: C4_5  and  N2_6 
REMARK       I    between atoms: N2_6  and  C5_8 
REMARK    2  A    between atoms: C5_8  and  C6_10 
REMARK       I    between atoms: C6_10  and  N3_12 
REMARK    3  A    between atoms: N3_12  and  N4_14 
REMARK       I    between atoms: N4_14  and  C7_16 
REMARK       I    between atoms: C7_16  and  N6_20 
REMARK    4  A    between atoms: N6_20  and  N7_22 
ROOT
HETATM    1  C6  UNL     1       4.695  21.158  19.496  1.00  0.00     0.328 C 
HETATM    2  O2  UNL     1       4.996  22.351  19.726  1.00  0.00    -0.261 OA
HETATM    3  N3  UNL     1       4.705  20.608  18.198  1.00  0.00    -0.247 N 
ATOM      4  H3  UNL     1       4.452  19.629  18.068  1.00  0.00     0.191 HD
ENDROOT
BRANCH   1   5
HETATM    5  C5  UNL     1       4.323  20.311  20.620  1.00  0.00     0.311 C 
HETATM    6  N2  UNL     1       3.579  20.785  21.730  1.00  0.00    -0.348 N 
ATOM      7  H2  UNL     1       3.282  21.760  21.759  1.00  0.00     0.163 HD
HETATM    8  O1  UNL     1       4.690  19.081  20.600  1.00  0.00    -0.262 OA
BRANCH   6   9
HETATM    9  C4  UNL     1       3.242  19.916  22.799  1.00  0.00     0.088 C 
HETATM   10  C3  UNL     1       4.143  20.137  24.024  1.00  0.00     0.055 C 
HETATM   11  C2  UNL     1       3.737  19.061  25.014  1.00  0.00     0.274 C 
HETATM   12  N1  UNL     1       2.412  19.351  25.527  1.00  0.00     0.084 N 
HETATM   13  C1  UNL     1       2.567  19.749  26.912  1.00  0.00     0.309 C 
HETATM   14  C9  UNL     1       1.744  20.378  24.758  1.00  0.00     0.274 C 
HETATM   15  C8  UNL     1       1.823  20.030  23.290  1.00  0.00     0.055 C 
ENDBRANCH   6   9
ENDBRANCH   1   5
BRANCH   3  16
HETATM   16  N4  UNL     1       5.055  21.378  17.088  1.00  0.00    -0.128 N 
HETATM   17  C7  UNL     1       6.416  21.589  16.756  1.00  0.00     0.704 C 
HETATM   18  N5  UNL     1       7.125  20.725  16.079  1.00  0.00    -0.232 N 
HETATM   19  N6  UNL     1       7.057  22.784  17.169  1.00  0.00    -0.138 N 
ATOM     20  H52 UNL     1       6.664  19.865  15.782  1.00  0.00     0.174 HD
ATOM     21  H51 UNL     1       8.105  20.877  15.840  1.00  0.00     0.174 HD
ATOM     22  H6  UNL     1       7.862  22.716  17.791  1.00  0.00     0.205 HD
ATOM     23  H4  UNL     1       4.324  21.793  16.510  1.00  0.00     0.205 HD
BRANCH  19  24
HETATM   24  N7  UNL     1       6.629  24.056  16.758  1.00  0.00    -0.331 N 
ATOM     25  H72 UNL     1       6.565  24.232  15.756  1.00  0.00     0.177 HD
ATOM     26  H71 UNL     1       6.384  24.796  17.417  1.00  0.00     0.177 HD
ENDBRANCH  19  24
ENDBRANCH   3  16
TORSDOF 4
ENDMDL
MODEL 5
REMARK VINA RESULT: -6.909611406      2.227      3.134
REMARK  4 active torsions:
REMARK  status: ('A' for Active; 'I' for Inactive)
REMARK    1  A    between atoms: C4_5  and  N2_6 
REMARK       I    between atoms: N2_6  and  C5_8 
REMARK    2  A    between atoms: C5_8  and  C6_10 
REMARK       I    between atoms: C6_10  and  N3_12 
REMARK    3  A    between atoms: N3_12  and  N4_14 
REMARK       I    between atoms: N4_14  and  C7_16 
REMARK       I    between atoms: C7_16  and  N6_20 
REMARK    4  A    between atoms: N6_20  and  N7_22 
ROOT
HETATM    1  C6  UNL     1       4.561  19.739  21.658  1.00  0.00     0.328 C 
HETATM    2  O2  UNL     1       4.877  18.868  20.815  1.00  0.00    -0.261 OA
HETATM    3  N3  UNL     1       4.179  21.045  21.294  1.00  0.00    -0.247 N 
ATOM      4  H3  UNL     1       3.930  21.714  22.022  1.00  0.00     0.191 HD
ENDROOT
BRANCH   1   5
HETATM    5  C5  UNL     1       4.589  19.376  23.068  1.00  0.00     0.311 C 
HETATM    6  N2  UNL     1       3.414  19.163  23.832  1.00  0.00    -0.348 N 
ATOM      7  H2  UNL     1       2.500  19.264  23.391  1.00  0.00     0.163 HD
HETATM    8  O1  UNL     1       5.731  19.245  23.637  1.00  0.00    -0.262 OA
BRANCH   6   9
HETATM    9  C4  UNL     1       3.499  18.809  25.204  1.00  0.00     0.088 C 
HETATM   10  C3  UNL     1       2.434  19.524  26.048  1.00  0.00     0.055 C 
HETATM   11  C2  UNL     1       2.738  19.137  27.482  1.00  0.00     0.274 C 
HETATM   12  N1  UNL     1       2.424  17.735  27.682  1.00  0.00     0.084 N 
HETATM   13  C1  UNL     1       1.250  17.675  28.529  1.00  0.00     0.309 C 
HETATM   14  C9  UNL     1       2.204  17.044  26.431  1.00  0.00     0.274 C 
HETATM   15  C8  UNL     1       3.352  17.338  25.492  1.00  0.00     0.055 C 
ENDBRANCH   6   9
ENDBRANCH   1   5
BRANCH   3  16
HETATM   16  N4  UNL     1       4.134  21.440  19.956  1.00  0.00    -0.128 N 
HETATM   17  C7  UNL     1       5.292  21.941  19.312  1.00  0.00     0.704 C 
HETATM   18  N5  UNL     1       6.213  21.166  18.802  1.00  0.00    -0.232 N 
HETATM   19  N6  UNL     1       5.481  23.341  19.207  1.00  0.00    -0.138 N 
ATOM     20  H52 UNL     1       6.077  20.158  18.877  1.00  0.00     0.174 HD
ATOM     21  H51 UNL     1       7.047  21.526  18.338  1.00  0.00     0.174 HD
ATOM     22  H6  UNL     1       6.301  23.758  19.647  1.00  0.00     0.205 HD
ATOM     23  H4  UNL     1       3.258  21.369  19.437  1.00  0.00     0.205 HD
BRANCH  19  24
HETATM   24  N7  UNL     1       4.585  24.179  18.524  1.00  0.00    -0.331 N 
ATOM     25  H72 UNL     1       3.629  23.847  18.399  1.00  0.00     0.177 HD
ATOM     26  H71 UNL     1       4.855  25.092  18.155  1.00  0.00     0.177 HD
ENDBRANCH  19  24
ENDBRANCH   3  16
TORSDOF 4
ENDMDL
