MODEL 1
REMARK VINA RESULT: -7.520786472      0.000      0.000
REMARK  3 active torsions:
REMARK  status: ('A' for Active; 'I' for Inactive)
REMARK       I    between atoms: C2_4  and  N2_5 
REMARK       I    between atoms: C2_4  and  N5_10 
REMARK    1  A    between atoms: N5_10  and  N6_12 
REMARK    2  A    between atoms: C4_14  and  C5_15 
REMARK    3  A    between atoms: C7_17  and  N7_18 
REMARK       I    between atoms: N8_23  and  C9_24 
ROOT
HETATM    1  C5  UNL     1       3.702  18.413  22.245  1.00  0.00     0.129 C 
HETATM    2  C6  UNL     1       2.653  18.770  23.297  1.00  0.00     0.065 C 
HETATM    3  C7  UNL     1       3.120  18.178  24.589  1.00  0.00     0.203 C 
HETATM    4  C8  UNL     1       4.250  17.274  24.172  1.00  0.00     0.159 C 
HETATM    5  N8  UNL     1       4.817  18.014  23.043  1.00  0.00    -0.344 N 
HETATM    6  C9  UNL     1       6.212  18.220  22.895  1.00  0.00     0.184 C 
HETATM    7  N9  UNL     1       6.786  19.100  23.637  1.00  0.00    -0.374 N 
ATOM      8  H91 UNL     1       7.790  19.249  23.531  1.00  0.00     0.158 HD
ATOM      9  H92 UNL     1       6.197  19.605  24.298  1.00  0.00     0.158 HD
HETATM   10  N10 UNL     1       7.032  17.518  21.975  1.00  0.00    -0.064 NA
ENDROOT
BRANCH   1  11
HETATM   11  C4  UNL     1       3.941  19.629  21.440  1.00  0.00     0.106 C 
HETATM   12  N6  UNL     1       4.441  19.622  20.261  1.00  0.00    -0.299 N 
ATOM     13  H6  UNL     1       4.704  18.741  19.818  1.00  0.00     0.186 HD
BRANCH  12  14
HETATM   14  N5  UNL     1       4.623  20.827  19.590  1.00  0.00    -0.133 N 
HETATM   15  C2  UNL     1       4.540  20.972  18.193  1.00  0.00     0.694 C 
HETATM   16  N1  UNL     1       5.594  21.307  17.539  1.00  0.00    -0.229 N 
HETATM   17  N2  UNL     1       3.301  20.756  17.481  1.00  0.00    -0.165 N 
HETATM   18  C1  UNL     1       6.832  21.522  18.251  1.00  0.00     0.165 C 
ATOM     19  H1  UNL     1       5.557  21.419  16.526  1.00  0.00     0.177 HD
HETATM   20  C3  UNL     1       2.539  21.763  17.273  1.00  0.00     0.215 C 
ATOM     21  H2  UNL     1       3.041  19.826  17.154  1.00  0.00     0.186 HD
HETATM   22  N3  UNL     1       2.871  23.076  17.717  1.00  0.00    -0.066 NA
HETATM   23  N4  UNL     1       1.311  21.551  16.567  1.00  0.00    -0.066 NA
ATOM     24  H5  UNL     1       4.829  21.657  20.145  1.00  0.00     0.205 HD
ENDBRANCH  12  14
ENDBRANCH   1  11
BRANCH   3  25
HETATM   25  N7  UNL     1       2.041  17.447  25.223  1.00  0.00    -0.073 N 
ATOM     26  H73 UNL     1       1.298  17.216  24.564  1.00  0.00     0.274 HD
ATOM     27  H72 UNL     1       2.319  16.499  25.475  1.00  0.00     0.274 HD
ATOM     28  H71 UNL     1       1.688  17.967  26.028  1.00  0.00     0.274 HD
ENDBRANCH   3  25
TORSDOF 3
ENDMDL
MODEL 2
REMARK VINA RESULT: -7.476969002      3.546      5.779
REMARK  3 active torsions:
REMARK  status: ('A' for Active; 'I' for Inactive)
REMARK       I    between atoms: C2_4  and  N2_5 
REMARK       I    between atoms: C2_4  and  N5_10 
REMARK    1  A    between atoms: N5_10  and  N6_12 
REMARK    2  A    between atoms: C4_14  and  C5_15 
REMARK    3  A    between atoms: C7_17  and  N7_18 
REMARK       I    between atoms: N8_23  and  C9_24 
ROOT
HETATM    1  C5  UNL     1       3.272  17.299  26.488  1.00  0.00     0.129 C 
HETATM    2  C6  UNL     1       2.254  16.209  26.156  1.00  0.00     0.065 C 
HETATM    3  C7  UNL     1       1.197  16.270  27.213  1.00  0.00     0.203 C 
HETATM    4  C8  UNL     1       1.794  17.182  28.253  1.00  0.00     0.159 C 
HETATM    5  N8  UNL     1       2.561  18.112  27.422  1.00  0.00    -0.344 N 
HETATM    6  C9  UNL     1       2.515  19.516  27.614  1.00  0.00     0.184 C 
HETATM    7  N9  UNL     1       1.477  20.159  27.209  1.00  0.00    -0.374 N 
ATOM      8  H91 UNL     1       1.443  21.169  27.347  1.00  0.00     0.158 HD
ATOM      9  H92 UNL     1       0.737  19.613  26.766  1.00  0.00     0.158 HD
HETATM   10  N10 UNL     1       3.543  20.275  28.229  1.00  0.00    -0.064 NA
ENDROOT
BRANCH   1  11
HETATM   11  C4  UNL     1       3.604  17.984  25.222  1.00  0.00     0.106 C 
HETATM   12  N6  UNL     1       3.897  17.377  24.133  1.00  0.00    -0.299 N 
ATOM     13  H6  UNL     1       3.912  16.357  24.100  1.00  0.00     0.186 HD
BRANCH  12  14
HETATM   14  N5  UNL     1       4.193  18.120  22.995  1.00  0.00    -0.133 N 
HETATM   15  C2  UNL     1       4.972  19.292  22.999  1.00  0.00     0.694 C 
HETATM   16  N1  UNL     1       4.420  20.406  22.676  1.00  0.00    -0.229 N 
HETATM   17  N2  UNL     1       6.372  19.269  23.356  1.00  0.00    -0.165 N 
HETATM   18  C1  UNL     1       3.021  20.428  22.320  1.00  0.00     0.165 C 
ATOM     19  H1  UNL     1       4.966  21.268  22.671  1.00  0.00     0.177 HD
HETATM   20  C3  UNL     1       7.234  19.128  22.420  1.00  0.00     0.215 C 
ATOM     21  H2  UNL     1       6.666  19.364  24.328  1.00  0.00     0.186 HD
HETATM   22  N3  UNL     1       6.857  18.992  21.052  1.00  0.00    -0.066 NA
HETATM   23  N4  UNL     1       8.621  19.106  22.772  1.00  0.00    -0.066 NA
ATOM     24  H5  UNL     1       3.823  17.796  22.102  1.00  0.00     0.205 HD
ENDBRANCH  12  14
ENDBRANCH   1  11
BRANCH   3  25
HETATM   25  N7  UNL     1       0.935  14.943  27.735  1.00  0.00    -0.073 N 
ATOM     26  H73 UNL     1       0.072  14.550  27.360  1.00  0.00     0.274 HD
ATOM     27  H72 UNL     1       1.588  14.253  27.365  1.00  0.00     0.274 HD
ATOM     28  H71 UNL     1       0.935  14.960  28.755  1.00  0.00     0.274 HD
ENDBRANCH   3  25
TORSDOF 3
ENDMDL
MODEL 3
REMARK VINA RESULT: -7.343016120      1.911      2.738
REMARK  3 active torsions:
REMARK  status: ('A' for Active; 'I' for Inactive)
REMARK       I    between atoms: C2_4  and  N2_5 
REMARK       I    between atoms: C2_4  and  N5_10 
REMARK    1  A    between atoms: N5_10  and  N6_12 
REMARK    2  A    between atoms: C4_14  and  C5_15 
REMARK    3  A    between atoms: C7_17  and  N7_18 
REMARK       I    between atoms: N8_23  and  C9_24 
ROOT
HETATM    1  C5  UNL     1       3.563  18.967  22.215  1.00  0.00     0.129 C 
HETATM    2  C6  UNL     1       2.926  20.194  22.867  1.00  0.00     0.065 C 
HETATM    3  C7  UNL     1       3.103  20.036  24.344  1.00  0.00     0.203 C 
HETATM    4  C8  UNL     1       3.566  18.611  24.492  1.00  0.00     0.159 C 
HETATM    5  N8  UNL     1       4.358  18.431  23.273  1.00  0.00    -0.344 N 
HETATM    6  C9  UNL     1       5.642  17.831  23.285  1.00  0.00     0.184 C 
HETATM    7  N9  UNL     1       6.639  18.519  23.718  1.00  0.00    -0.374 N 
ATOM      8  H91 UNL     1       7.563  18.087  23.726  1.00  0.00     0.158 HD
ATOM      9  H92 UNL     1       6.445  19.470  24.032  1.00  0.00     0.158 HD
HETATM   10  N10 UNL     1       5.912  16.509  22.848  1.00  0.00    -0.064 NA
ENDROOT
BRANCH   1  11
HETATM   11  C4  UNL     1       4.345  19.447  21.057  1.00  0.00     0.106 C 
HETATM   12  N6  UNL     1       4.242  20.623  20.560  1.00  0.00    -0.299 N 
ATOM     13  H6  UNL     1       3.590  21.297  20.962  1.00  0.00     0.186 HD
BRANCH  12  14
HETATM   14  N5  UNL     1       5.029  20.972  19.467  1.00  0.00    -0.133 N 
HETATM   15  C2  UNL     1       4.861  22.152  18.719  1.00  0.00     0.694 C 
HETATM   16  N1  UNL     1       4.504  22.062  17.489  1.00  0.00    -0.229 N 
HETATM   17  N2  UNL     1       5.081  23.456  19.302  1.00  0.00    -0.165 N 
HETATM   18  C1  UNL     1       4.283  20.759  16.907  1.00  0.00     0.165 C 
ATOM     19  H1  UNL     1       4.378  22.904  16.927  1.00  0.00     0.177 HD
HETATM   20  C3  UNL     1       6.245  23.979  19.195  1.00  0.00     0.215 C 
ATOM     21  H2  UNL     1       4.329  23.947  19.786  1.00  0.00     0.186 HD
HETATM   22  N3  UNL     1       7.317  23.320  18.526  1.00  0.00    -0.066 NA
HETATM   23  N4  UNL     1       6.464  25.271  19.771  1.00  0.00    -0.066 NA
ATOM     24  H5  UNL     1       5.774  20.334  19.190  1.00  0.00     0.205 HD
ENDBRANCH  12  14
ENDBRANCH   1  11
BRANCH   3  25
HETATM   25  N7  UNL     1       1.847  20.277  25.027  1.00  0.00    -0.073 N 
ATOM     26  H73 UNL     1       1.989  20.593  25.986  1.00  0.00     0.274 HD
ATOM     27  H72 UNL     1       1.369  21.102  24.665  1.00  0.00     0.274 HD
ATOM     28  H71 UNL     1       1.257  19.445  24.982  1.00  0.00     0.274 HD
ENDBRANCH   3  25
TORSDOF 3
ENDMDL
MODEL 4
REMARK VINA RESULT: -7.086434317      1.141      1.179
REMARK  3 active torsions:
REMARK  status: ('A' for Active; 'I' for Inactive)
REMARK       I    between atoms: C2_4  and  N2_5 
REMARK       I    between atoms: C2_4  and  N5_10 
REMARK    1  A    between atoms: N5_10  and  N6_12 
REMARK    2  A    between atoms: C4_14  and  C5_15 
REMARK    3  A    between atoms: C7_17  and  N7_18 
REMARK       I    between atoms: N8_23  and  C9_24 
ROOT
HETATM    1  C5  UNL     1       3.485  19.200  22.571  1.00  0.00     0.129 C 
HETATM    2  C6  UNL     1       2.860  20.238  23.503  1.00  0.00     0.065 C 
HETATM    3  C7  UNL     1       3.232  19.844  24.897  1.00  0.00     0.203 C 
HETATM    4  C8  UNL     1       3.800  18.459  24.730  1.00  0.00     0.159 C 
HETATM    5  N8  UNL     1       4.441  18.561  23.417  1.00  0.00    -0.344 N 
HETATM    6  C9  UNL     1       5.752  18.080  23.174  1.00  0.00     0.184 C 
HETATM    7  N9  UNL     1       6.750  18.766  23.608  1.00  0.00    -0.374 N 
ATOM      8  H91 UNL     1       7.693  18.420  23.433  1.00  0.00     0.158 HD
ATOM      9  H92 UNL     1       6.537  19.628  24.109  1.00  0.00     0.158 HD
HETATM   10  N10 UNL     1       6.048  16.881  22.477  1.00  0.00    -0.064 NA
ENDROOT
BRANCH   1  11
HETATM   11  C4  UNL     1       4.081  19.938  21.438  1.00  0.00     0.106 C 
HETATM   12  N6  UNL     1       3.981  21.204  21.273  1.00  0.00    -0.299 N 
ATOM     13  H6  UNL     1       3.464  21.771  21.946  1.00  0.00     0.186 HD
BRANCH  12  14
HETATM   14  N5  UNL     1       4.583  21.799  20.169  1.00  0.00    -0.133 N 
HETATM   15  C2  UNL     1       4.634  21.217  18.890  1.00  0.00     0.694 C 
HETATM   16  N1  UNL     1       5.776  20.889  18.400  1.00  0.00    -0.229 N 
HETATM   17  N2  UNL     1       3.436  20.981  18.116  1.00  0.00    -0.165 N 
HETATM   18  C1  UNL     1       6.972  21.124  19.173  1.00  0.00     0.165 C 
ATOM     19  H1  UNL     1       5.836  20.467  17.474  1.00  0.00     0.177 HD
HETATM   20  C3  UNL     1       3.056  21.889  17.297  1.00  0.00     0.215 C 
ATOM     21  H2  UNL     1       2.907  20.116  18.221  1.00  0.00     0.186 HD
HETATM   22  N3  UNL     1       3.770  23.110  17.127  1.00  0.00    -0.066 NA
HETATM   23  N4  UNL     1       1.869  21.657  16.530  1.00  0.00    -0.066 NA
ATOM     24  H5  UNL     1       5.015  22.714  20.295  1.00  0.00     0.205 HD
ENDBRANCH  12  14
ENDBRANCH   1  11
BRANCH   3  25
HETATM   25  N7  UNL     1       2.060  19.855  25.750  1.00  0.00    -0.073 N 
ATOM     26  H73 UNL     1       1.532  20.723  25.659  1.00  0.00     0.274 HD
ATOM     27  H72 UNL     1       1.344  19.208  25.421  1.00  0.00     0.274 HD
ATOM     28  H71 UNL     1       2.327  19.670  26.717  1.00  0.00     0.274 HD
ENDBRANCH   3  25
TORSDOF 3
ENDMDL
MODEL 5
REMARK VINA RESULT: -6.883953290      2.243      6.750
REMARK  3 active torsions:
REMARK  status: ('A' for Active; 'I' for Inactive)
REMARK       I    between atoms: C2_4  and  N2_5 
REMARK       I    between atoms: C2_4  and  N5_10 
REMARK    1  A    between atoms: N5_10  and  N6_12 
REMARK    2  A    between atoms: C4_14  and  C5_15 
REMARK    3  A    between atoms: C7_17  and  N7_18 
REMARK       I    between atoms: N8_23  and  C9_24 
ROOT
HETATM    1  C5  UNL     1       5.524  21.549  18.299  1.00  0.00     0.129 C 
HETATM    2  C6  UNL     1       5.392  22.980  18.819  1.00  0.00     0.065 C 
HETATM    3  C7  UNL     1       4.712  23.768  17.745  1.00  0.00     0.203 C 
HETATM    4  C8  UNL     1       4.745  22.843  16.557  1.00  0.00     0.159 C 
HETATM    5  N8  UNL     1       4.611  21.534  17.201  1.00  0.00    -0.344 N 
HETATM    6  C9  UNL     1       3.716  20.543  16.726  1.00  0.00     0.184 C 
HETATM    7  N9  UNL     1       2.460  20.683  16.965  1.00  0.00    -0.374 N 
ATOM      8  H91 UNL     1       1.815  19.970  16.623  1.00  0.00     0.158 HD
ATOM      9  H92 UNL     1       2.177  21.511  17.490  1.00  0.00     0.158 HD
HETATM   10  N10 UNL     1       4.109  19.392  15.996  1.00  0.00    -0.064 NA
ENDROOT
BRANCH   1  11
HETATM   11  C4  UNL     1       5.150  20.647  19.407  1.00  0.00     0.106 C 
HETATM   12  N6  UNL     1       4.456  21.007  20.421  1.00  0.00    -0.299 N 
ATOM     13  H6  UNL     1       4.123  21.968  20.503  1.00  0.00     0.186 HD
BRANCH  12  14
HETATM   14  N5  UNL     1       4.159  20.074  21.410  1.00  0.00    -0.133 N 
HETATM   15  C2  UNL     1       3.939  20.399  22.761  1.00  0.00     0.694 C 
HETATM   16  N1  UNL     1       4.763  19.967  23.646  1.00  0.00    -0.229 N 
HETATM   17  N2  UNL     1       2.810  21.203  23.172  1.00  0.00    -0.165 N 
HETATM   18  C1  UNL     1       5.890  19.165  23.235  1.00  0.00     0.165 C 
ATOM     19  H1  UNL     1       4.622  20.190  24.632  1.00  0.00     0.177 HD
HETATM   20  C3  UNL     1       1.731  20.603  23.512  1.00  0.00     0.215 C 
ATOM     21  H2  UNL     1       2.871  22.221  23.192  1.00  0.00     0.186 HD
HETATM   22  N3  UNL     1       1.611  19.183  23.495  1.00  0.00    -0.066 NA
HETATM   23  N4  UNL     1       0.612  21.398  23.920  1.00  0.00    -0.066 NA
ATOM     24  H5  UNL     1       4.097  19.093  21.139  1.00  0.00     0.205 HD
ENDBRANCH  12  14
ENDBRANCH   1  11
BRANCH   3  25
HETATM   25  N7  UNL     1       5.433  25.001  17.497  1.00  0.00    -0.073 N 
ATOM     26  H73 UNL     1       5.372  25.288  16.520  1.00  0.00     0.274 HD
ATOM     27  H72 UNL     1       4.969  25.805  17.920  1.00  0.00     0.274 HD
ATOM     28  H71 UNL     1       6.401  24.912  17.809  1.00  0.00     0.274 HD
ENDBRANCH   3  25
TORSDOF 3
ENDMDL
