MODEL 1
REMARK VINA RESULT: -7.220267165      0.000      0.000
REMARK  3 active torsions:
REMARK  status: ('A' for Active; 'I' for Inactive)
REMARK    1  A    between atoms: C3_3  and  N1_4 
REMARK    2  A    between atoms: C3_3  and  C4_8 
REMARK       I    between atoms: C4_8  and  N2_10 
REMARK    3  A    between atoms: N2_10  and  C5_12 
ROOT
HETATM    1  C1  UNL     1      -0.290  17.713  29.753  1.00  0.00     0.015 C 
HETATM    2  C2  UNL     1       0.555  17.160  29.102  1.00  0.00    -0.075 C 
HETATM    3  C3  UNL     1       1.572  16.468  28.299  1.00  0.00     0.352 C 
ENDROOT
BRANCH   3   4
HETATM    4  N1  UNL     1       0.953  15.280  27.761  1.00  0.00    -0.056 N 
ATOM      5  H13 UNL     1       0.027  15.102  28.147  1.00  0.00     0.276 HD
ATOM      6  H12 UNL     1       0.672  15.383  26.786  1.00  0.00     0.276 HD
ATOM      7  H11 UNL     1       1.603  14.509  27.911  1.00  0.00     0.276 HD
ENDBRANCH   3   4
BRANCH   3   8
HETATM    8  C4  UNL     1       2.130  17.349  27.249  1.00  0.00     0.262 C 
HETATM    9  O1  UNL     1       2.848  18.303  27.637  1.00  0.00    -0.270 OA
HETATM   10  N2  UNL     1       1.912  17.189  25.874  1.00  0.00    -0.336 N 
ATOM     11  H2  UNL     1       1.328  16.415  25.559  1.00  0.00     0.164 HD
BRANCH  10  12
HETATM   12  C5  UNL     1       2.490  18.091  24.866  1.00  0.00     0.205 C 
HETATM   13  C6  UNL     1       1.920  19.445  25.154  1.00  0.00     0.278 C 
HETATM   14  N3  UNL     1       1.737  20.274  23.944  1.00  0.00    -0.070 N 
HETATM   15  C7  UNL     1       2.952  20.175  23.229  1.00  0.00     0.251 C 
ATOM     16  H32 UNL     1       0.916  20.021  23.394  1.00  0.00     0.277 HD
ATOM     17  H31 UNL     1       1.456  21.234  24.144  1.00  0.00     0.277 HD
HETATM   18  C8  UNL     1       3.248  21.183  22.149  1.00  0.00     0.146 C 
HETATM   19  N4  UNL     1       4.611  20.850  21.734  1.00  0.00    -0.399 N 
HETATM   20  C9  UNL     1       4.748  19.713  20.941  1.00  0.00     0.075 C 
ATOM     21  H4  UNL     1       5.413  21.416  22.010  1.00  0.00     0.158 HD
HETATM   22  C10 UNL     1       5.228  18.445  21.553  1.00  0.00     0.162 C 
HETATM   23  N5  UNL     1       5.920  18.551  22.786  1.00  0.00    -0.396 N 
HETATM   24  C11 UNL     1       5.880  17.462  23.664  1.00  0.00     0.075 C 
ATOM     25  H5  UNL     1       6.434  19.398  23.026  1.00  0.00     0.159 HD
HETATM   26  C12 UNL     1       4.604  17.055  24.269  1.00  0.00     0.160 C 
HETATM   27  N6  UNL     1       3.935  18.005  25.083  1.00  0.00    -0.396 N 
ATOM     28  H6  UNL     1       4.423  18.584  25.766  1.00  0.00     0.155 HD
ENDBRANCH  10  12
ENDBRANCH   3   8
TORSDOF 3
ENDMDL
MODEL 2
REMARK VINA RESULT: -6.812745805      4.359      7.205
REMARK  3 active torsions:
REMARK  status: ('A' for Active; 'I' for Inactive)
REMARK    1  A    between atoms: C3_3  and  N1_4 
REMARK    2  A    between atoms: C3_3  and  C4_8 
REMARK       I    between atoms: C4_8  and  N2_10 
REMARK    3  A    between atoms: N2_10  and  C5_12 
ROOT
HETATM    1  C1  UNL     1       1.565  20.717  23.277  1.00  0.00     0.015 C 
HETATM    2  C2  UNL     1       2.585  20.130  23.036  1.00  0.00    -0.075 C 
HETATM    3  C3  UNL     1       3.821  19.391  22.744  1.00  0.00     0.352 C 
ENDROOT
BRANCH   3   4
HETATM    4  N1  UNL     1       3.518  17.986  22.876  1.00  0.00    -0.056 N 
ATOM      5  H13 UNL     1       2.636  17.724  22.437  1.00  0.00     0.276 HD
ATOM      6  H12 UNL     1       4.127  17.391  22.314  1.00  0.00     0.276 HD
ATOM      7  H11 UNL     1       3.550  17.764  23.871  1.00  0.00     0.276 HD
ENDBRANCH   3   4
BRANCH   3   8
HETATM    8  C4  UNL     1       4.361  19.737  21.411  1.00  0.00     0.262 C 
HETATM    9  O1  UNL     1       4.644  18.777  20.651  1.00  0.00    -0.270 OA
HETATM   10  N2  UNL     1       4.575  21.042  20.949  1.00  0.00    -0.336 N 
ATOM     11  H2  UNL     1       4.347  21.821  21.567  1.00  0.00     0.164 HD
BRANCH  10  12
HETATM   12  C5  UNL     1       5.115  21.337  19.614  1.00  0.00     0.205 C 
HETATM   13  C6  UNL     1       6.478  20.717  19.576  1.00  0.00     0.278 C 
HETATM   14  N3  UNL     1       7.439  21.461  18.736  1.00  0.00    -0.070 N 
HETATM   15  C7  UNL     1       6.763  21.714  17.521  1.00  0.00     0.251 C 
ATOM     16  H32 UNL     1       7.808  22.302  19.181  1.00  0.00     0.277 HD
ATOM     17  H31 UNL     1       8.333  20.985  18.616  1.00  0.00     0.277 HD
HETATM   18  C8  UNL     1       7.564  22.118  16.310  1.00  0.00     0.146 C 
HETATM   19  N4  UNL     1       6.567  22.164  15.240  1.00  0.00    -0.399 N 
HETATM   20  C9  UNL     1       5.713  23.265  15.247  1.00  0.00     0.075 C 
ATOM     21  H4  UNL     1       6.501  21.434  14.531  1.00  0.00     0.158 HD
HETATM   22  C10 UNL     1       4.326  23.113  15.764  1.00  0.00     0.162 C 
HETATM   23  N5  UNL     1       3.804  21.796  15.822  1.00  0.00    -0.396 N 
HETATM   24  C11 UNL     1       2.821  21.514  16.778  1.00  0.00     0.075 C 
ATOM     25  H5  UNL     1       4.136  21.073  15.184  1.00  0.00     0.159 HD
HETATM   26  C12 UNL     1       3.150  21.585  18.208  1.00  0.00     0.160 C 
HETATM   27  N6  UNL     1       4.164  20.717  18.689  1.00  0.00    -0.396 N 
ATOM     28  H6  UNL     1       4.226  19.738  18.412  1.00  0.00     0.155 HD
ENDBRANCH  10  12
ENDBRANCH   3   8
TORSDOF 3
ENDMDL
MODEL 3
REMARK VINA RESULT: -6.794079205      1.087      1.118
REMARK  3 active torsions:
REMARK  status: ('A' for Active; 'I' for Inactive)
REMARK    1  A    between atoms: C3_3  and  N1_4 
REMARK    2  A    between atoms: C3_3  and  C4_8 
REMARK       I    between atoms: C4_8  and  N2_10 
REMARK    3  A    between atoms: N2_10  and  C5_12 
ROOT
HETATM    1  C1  UNL     1       0.455  17.220  29.459  1.00  0.00     0.015 C 
HETATM    2  C2  UNL     1       1.009  16.640  28.565  1.00  0.00    -0.075 C 
HETATM    3  C3  UNL     1       1.668  15.917  27.469  1.00  0.00     0.352 C 
ENDROOT
BRANCH   3   4
HETATM    4  N1  UNL     1       0.805  14.820  27.103  1.00  0.00    -0.056 N 
ATOM      5  H13 UNL     1      -0.019  14.744  27.699  1.00  0.00     0.276 HD
ATOM      6  H12 UNL     1       0.317  14.972  26.221  1.00  0.00     0.276 HD
ATOM      7  H11 UNL     1       1.376  13.975  27.103  1.00  0.00     0.276 HD
ENDBRANCH   3   4
BRANCH   3   8
HETATM    8  C4  UNL     1       1.971  16.811  26.329  1.00  0.00     0.262 C 
HETATM    9  O1  UNL     1       1.083  16.920  25.448  1.00  0.00    -0.270 OA
HETATM   10  N2  UNL     1       3.163  17.529  26.172  1.00  0.00    -0.336 N 
ATOM     11  H2  UNL     1       3.885  17.439  26.888  1.00  0.00     0.164 HD
BRANCH  10  12
HETATM   12  C5  UNL     1       3.420  18.408  25.021  1.00  0.00     0.205 C 
HETATM   13  C6  UNL     1       2.992  19.777  25.447  1.00  0.00     0.278 C 
HETATM   14  N3  UNL     1       2.461  20.598  24.339  1.00  0.00    -0.070 N 
HETATM   15  C7  UNL     1       3.395  20.464  23.287  1.00  0.00     0.251 C 
ATOM     16  H32 UNL     1       1.506  20.358  24.071  1.00  0.00     0.277 HD
ATOM     17  H31 UNL     1       2.273  21.566  24.599  1.00  0.00     0.277 HD
HETATM   18  C8  UNL     1       3.363  21.454  22.152  1.00  0.00     0.146 C 
HETATM   19  N4  UNL     1       4.526  21.085  21.344  1.00  0.00    -0.399 N 
HETATM   20  C9  UNL     1       4.391  19.938  20.565  1.00  0.00     0.075 C 
ATOM     21  H4  UNL     1       5.385  21.636  21.350  1.00  0.00     0.158 HD
HETATM   22  C10 UNL     1       5.013  18.665  21.022  1.00  0.00     0.162 C 
HETATM   23  N5  UNL     1       6.053  18.768  21.981  1.00  0.00    -0.396 N 
HETATM   24  C11 UNL     1       6.264  17.689  22.846  1.00  0.00     0.075 C 
ATOM     25  H5  UNL     1       6.631  19.605  22.037  1.00  0.00     0.159 HD
HETATM   26  C12 UNL     1       5.228  17.318  23.820  1.00  0.00     0.160 C 
HETATM   27  N6  UNL     1       4.860  18.291  24.784  1.00  0.00    -0.396 N 
ATOM     28  H6  UNL     1       5.545  18.865  25.275  1.00  0.00     0.155 HD
ENDBRANCH  10  12
ENDBRANCH   3   8
TORSDOF 3
ENDMDL
MODEL 4
REMARK VINA RESULT: -6.760491876      4.659      7.508
REMARK  3 active torsions:
REMARK  status: ('A' for Active; 'I' for Inactive)
REMARK    1  A    between atoms: C3_3  and  N1_4 
REMARK    2  A    between atoms: C3_3  and  C4_8 
REMARK       I    between atoms: C4_8  and  N2_10 
REMARK    3  A    between atoms: N2_10  and  C5_12 
ROOT
HETATM    1  C1  UNL     1       1.496  20.050  23.513  1.00  0.00     0.015 C 
HETATM    2  C2  UNL     1       2.518  19.757  22.954  1.00  0.00    -0.075 C 
HETATM    3  C3  UNL     1       3.756  19.378  22.260  1.00  0.00     0.352 C 
ENDROOT
BRANCH   3   4
HETATM    4  N1  UNL     1       3.539  18.073  21.683  1.00  0.00    -0.056 N 
ATOM      5  H13 UNL     1       3.200  17.389  22.359  1.00  0.00     0.276 HD
ATOM      6  H12 UNL     1       2.738  18.043  21.053  1.00  0.00     0.276 HD
ATOM      7  H11 UNL     1       4.411  17.793  21.235  1.00  0.00     0.276 HD
ENDBRANCH   3   4
BRANCH   3   8
HETATM    8  C4  UNL     1       4.151  20.389  21.255  1.00  0.00     0.262 C 
HETATM    9  O1  UNL     1       3.974  21.593  21.568  1.00  0.00    -0.270 OA
HETATM   10  N2  UNL     1       4.698  20.096  19.999  1.00  0.00    -0.336 N 
ATOM     11  H2  UNL     1       4.840  19.119  19.745  1.00  0.00     0.164 HD
BRANCH  10  12
HETATM   12  C5  UNL     1       5.076  21.138  19.032  1.00  0.00     0.205 C 
HETATM   13  C6  UNL     1       6.571  21.103  18.956  1.00  0.00     0.278 C 
HETATM   14  N3  UNL     1       7.176  22.424  18.691  1.00  0.00    -0.070 N 
HETATM   15  C7  UNL     1       6.444  22.967  17.611  1.00  0.00     0.251 C 
ATOM     16  H32 UNL     1       7.209  23.031  19.510  1.00  0.00     0.277 HD
ATOM     17  H31 UNL     1       8.182  22.388  18.527  1.00  0.00     0.277 HD
HETATM   18  C8  UNL     1       7.025  24.127  16.846  1.00  0.00     0.146 C 
HETATM   19  N4  UNL     1       6.072  24.326  15.753  1.00  0.00    -0.399 N 
HETATM   20  C9  UNL     1       4.869  24.940  16.094  1.00  0.00     0.075 C 
ATOM     21  H4  UNL     1       6.278  24.033  14.797  1.00  0.00     0.158 HD
HETATM   22  C10 UNL     1       3.644  24.112  16.257  1.00  0.00     0.162 C 
HETATM   23  N5  UNL     1       3.653  22.829  15.653  1.00  0.00    -0.396 N 
HETATM   24  C11 UNL     1       2.856  21.826  16.215  1.00  0.00     0.075 C 
ATOM     25  H5  UNL     1       4.224  22.643  14.829  1.00  0.00     0.159 HD
HETATM   26  C12 UNL     1       3.147  21.332  17.568  1.00  0.00     0.160 C 
HETATM   27  N6  UNL     1       4.416  20.738  17.787  1.00  0.00    -0.396 N 
ATOM     28  H6  UNL     1       4.837  20.083  17.128  1.00  0.00     0.155 HD
ENDBRANCH  10  12
ENDBRANCH   3   8
TORSDOF 3
ENDMDL
MODEL 5
REMARK VINA RESULT: -6.683654106      3.635      5.970
REMARK  3 active torsions:
REMARK  status: ('A' for Active; 'I' for Inactive)
REMARK    1  A    between atoms: C3_3  and  N1_4 
REMARK    2  A    between atoms: C3_3  and  C4_8 
REMARK       I    between atoms: C4_8  and  N2_10 
REMARK    3  A    between atoms: N2_10  and  C5_12 
ROOT
HETATM    1  C1  UNL     1       0.314  21.461  24.003  1.00  0.00     0.015 C 
HETATM    2  C2  UNL     1       1.294  20.769  23.969  1.00  0.00    -0.075 C 
HETATM    3  C3  UNL     1       2.480  19.903  23.920  1.00  0.00     0.352 C 
ENDROOT
BRANCH   3   4
HETATM    4  N1  UNL     1       2.018  18.564  23.642  1.00  0.00    -0.056 N 
ATOM      5  H13 UNL     1       2.281  17.893  24.364  1.00  0.00     0.276 HD
ATOM      6  H12 UNL     1       1.007  18.463  23.730  1.00  0.00     0.276 HD
ATOM      7  H11 UNL     1       2.366  18.312  22.717  1.00  0.00     0.276 HD
ENDBRANCH   3   4
BRANCH   3   8
HETATM    8  C4  UNL     1       3.467  20.385  22.929  1.00  0.00     0.262 C 
HETATM    9  O1  UNL     1       3.795  21.595  23.003  1.00  0.00    -0.270 OA
HETATM   10  N2  UNL     1       4.049  19.593  21.930  1.00  0.00    -0.336 N 
ATOM     11  H2  UNL     1       3.782  18.610  21.870  1.00  0.00     0.164 HD
BRANCH  10  12
HETATM   12  C5  UNL     1       5.028  20.117  20.966  1.00  0.00     0.205 C 
HETATM   13  C6  UNL     1       6.180  19.161  20.991  1.00  0.00     0.278 C 
HETATM   14  N3  UNL     1       7.485  19.806  20.737  1.00  0.00    -0.070 N 
HETATM   15  C7  UNL     1       7.289  20.620  19.598  1.00  0.00     0.251 C 
ATOM     16  H32 UNL     1       7.856  20.311  21.542  1.00  0.00     0.277 HD
ATOM     17  H31 UNL     1       8.257  19.147  20.642  1.00  0.00     0.277 HD
HETATM   18  C8  UNL     1       8.493  21.124  18.846  1.00  0.00     0.146 C 
HETATM   19  N4  UNL     1       7.912  21.803  17.687  1.00  0.00    -0.399 N 
HETATM   20  C9  UNL     1       7.338  23.048  17.931  1.00  0.00     0.075 C 
ATOM     21  H4  UNL     1       7.928  21.388  16.754  1.00  0.00     0.158 HD
HETATM   22  C10 UNL     1       5.858  23.166  18.031  1.00  0.00     0.162 C 
HETATM   23  N5  UNL     1       5.092  22.118  17.460  1.00  0.00    -0.396 N 
HETATM   24  C11 UNL     1       3.824  21.859  17.991  1.00  0.00     0.075 C 
ATOM     25  H5  UNL     1       5.455  21.569  16.681  1.00  0.00     0.159 HD
HETATM   26  C12 UNL     1       3.694  21.373  19.372  1.00  0.00     0.160 C 
HETATM   27  N6  UNL     1       4.311  20.136  19.689  1.00  0.00    -0.396 N 
ATOM     28  H6  UNL     1       4.259  19.323  19.076  1.00  0.00     0.155 HD
ENDBRANCH  10  12
ENDBRANCH   3   8
TORSDOF 3
ENDMDL
