MODEL 1
REMARK VINA RESULT: -8.289171474      0.000      0.000
REMARK  5 active torsions:
REMARK  status: ('A' for Active; 'I' for Inactive)
REMARK    1  A    between atoms: N1_1  and  N2_4 
REMARK       I    between atoms: N2_4  and  C1_6 
REMARK       I    between atoms: C1_6  and  N3_8 
REMARK    2  A    between atoms: N3_8  and  N4_10 
REMARK       I    between atoms: N4_10  and  C2_12 
REMARK    3  A    between atoms: C2_12  and  C3_14 
REMARK    4  A    between atoms: C3_14  and  O3_15 
REMARK    5  A    between atoms: C3_14  and  C4_17 
REMARK       I    between atoms: N5_22  and  C9_23 
ROOT
HETATM    1  N4  UNL     1       1.543  16.772  28.395  1.00  0.00    -0.264 N 
ATOM      2  H4  UNL     1       2.265  17.412  28.726  1.00  0.00     0.190 HD
HETATM    3  C2  UNL     1       1.633  16.311  27.062  1.00  0.00     0.267 C 
HETATM    4  O2  UNL     1       0.764  15.531  26.646  1.00  0.00    -0.269 OA
ENDROOT
BRANCH   3   5
HETATM    5  C3  UNL     1       2.745  16.756  26.195  1.00  0.00     0.234 C 
BRANCH   5   6
HETATM    6  O3  UNL     1       3.697  17.306  27.111  1.00  0.00    -0.384 OA
ATOM      7  H3  UNL     1       3.869  16.595  27.717  1.00  0.00     0.210 HD
ENDBRANCH   5   6
BRANCH   5   8
HETATM    8  C4  UNL     1       2.382  17.887  25.306  1.00  0.00     0.126 C 
HETATM    9  C5  UNL     1       2.746  19.207  25.947  1.00  0.00     0.028 C 
HETATM   10  C6  UNL     1       2.475  20.287  24.947  1.00  0.00     0.004 C 
HETATM   11  C7  UNL     1       1.584  19.906  23.794  1.00  0.00     0.020 C 
HETATM   12  C8  UNL     1       2.110  18.701  23.031  1.00  0.00     0.128 C 
HETATM   13  N5  UNL     1       2.943  17.917  23.991  1.00  0.00    -0.329 N 
HETATM   14  C9  UNL     1       4.143  17.406  23.528  1.00  0.00     0.331 C 
HETATM   15  N6  UNL     1       4.508  17.486  22.158  1.00  0.00    -0.040 NA
HETATM   16  O4  UNL     1       4.975  16.846  24.279  1.00  0.00    -0.251 OA
ENDBRANCH   5   8
ENDBRANCH   3   5
BRANCH   1  17
HETATM   17  N3  UNL     1       0.543  16.414  29.282  1.00  0.00    -0.248 N 
HETATM   18  C1  UNL     1      -0.391  17.373  29.739  1.00  0.00     0.353 C 
HETATM   19  N2  UNL     1      -1.409  16.992  30.647  1.00  0.00    -0.257 N 
HETATM   20  O1  UNL     1      -0.319  18.553  29.344  1.00  0.00    -0.244 OA
ATOM     21  H2  UNL     1      -1.444  16.019  30.953  1.00  0.00     0.191 HD
ATOM     22  H3  UNL     1       0.479  15.450  29.609  1.00  0.00     0.192 HD
BRANCH  19  23
HETATM   23  N1  UNL     1      -2.364  17.871  31.144  1.00  0.00    -0.341 N 
ATOM     24  H12 UNL     1      -2.598  18.679  30.567  1.00  0.00     0.177 HD
ATOM     25  H11 UNL     1      -2.833  17.747  32.041  1.00  0.00     0.177 HD
ENDBRANCH  19  23
ENDBRANCH   1  17
TORSDOF 5
ENDMDL
MODEL 2
REMARK VINA RESULT: -7.711828993      2.623      3.843
REMARK  5 active torsions:
REMARK  status: ('A' for Active; 'I' for Inactive)
REMARK    1  A    between atoms: N1_1  and  N2_4 
REMARK       I    between atoms: N2_4  and  C1_6 
REMARK       I    between atoms: C1_6  and  N3_8 
REMARK    2  A    between atoms: N3_8  and  N4_10 
REMARK       I    between atoms: N4_10  and  C2_12 
REMARK    3  A    between atoms: C2_12  and  C3_14 
REMARK    4  A    between atoms: C3_14  and  O3_15 
REMARK    5  A    between atoms: C3_14  and  C4_17 
REMARK       I    between atoms: N5_22  and  C9_23 
ROOT
HETATM    1  N4  UNL     1       3.581  19.614  26.901  1.00  0.00    -0.264 N 
ATOM      2  H4  UNL     1       4.537  19.486  27.231  1.00  0.00     0.190 HD
HETATM    3  C2  UNL     1       3.386  19.826  25.518  1.00  0.00     0.267 C 
HETATM    4  O2  UNL     1       2.228  19.982  25.101  1.00  0.00    -0.269 OA
ENDROOT
BRANCH   3   5
HETATM    5  C3  UNL     1       4.543  19.858  24.600  1.00  0.00     0.234 C 
BRANCH   5   6
HETATM    6  O3  UNL     1       4.363  21.070  23.859  1.00  0.00    -0.384 OA
ATOM      7  H3  UNL     1       4.782  20.893  23.026  1.00  0.00     0.210 HD
ENDBRANCH   5   6
BRANCH   5   8
HETATM    8  C4  UNL     1       4.514  18.784  23.577  1.00  0.00     0.126 C 
HETATM    9  C5  UNL     1       3.879  19.283  22.298  1.00  0.00     0.028 C 
HETATM   10  C6  UNL     1       4.002  18.196  21.276  1.00  0.00     0.004 C 
HETATM   11  C7  UNL     1       4.311  16.823  21.812  1.00  0.00     0.020 C 
HETATM   12  C8  UNL     1       5.578  16.802  22.653  1.00  0.00     0.128 C 
HETATM   13  N5  UNL     1       5.754  18.183  23.195  1.00  0.00    -0.329 N 
HETATM   14  C9  UNL     1       7.032  18.715  23.187  1.00  0.00     0.331 C 
HETATM   15  N6  UNL     1       8.162  17.936  22.822  1.00  0.00    -0.040 NA
HETATM   16  O4  UNL     1       7.271  19.906  23.497  1.00  0.00    -0.251 OA
ENDBRANCH   5   8
ENDBRANCH   3   5
BRANCH   1  17
HETATM   17  N3  UNL     1       2.563  19.568  27.838  1.00  0.00    -0.248 N 
HETATM   18  C1  UNL     1       1.916  18.347  28.139  1.00  0.00     0.353 C 
HETATM   19  N2  UNL     1       0.877  18.314  29.100  1.00  0.00    -0.257 N 
HETATM   20  O1  UNL     1       2.259  17.298  27.558  1.00  0.00    -0.244 OA
ATOM     21  H2  UNL     1       0.617  19.188  29.560  1.00  0.00     0.191 HD
ATOM     22  H3  UNL     1       2.278  20.422  28.317  1.00  0.00     0.192 HD
BRANCH  19  23
HETATM   23  N1  UNL     1       0.191  17.158  29.452  1.00  0.00    -0.341 N 
ATOM     24  H12 UNL     1      -0.726  17.013  29.030  1.00  0.00     0.177 HD
ATOM     25  H11 UNL     1       0.557  16.461  30.102  1.00  0.00     0.177 HD
ENDBRANCH  19  23
ENDBRANCH   1  17
TORSDOF 5
ENDMDL
MODEL 3
REMARK VINA RESULT: -7.370697603      2.321      2.884
REMARK  5 active torsions:
REMARK  status: ('A' for Active; 'I' for Inactive)
REMARK    1  A    between atoms: N1_1  and  N2_4 
REMARK       I    between atoms: N2_4  and  C1_6 
REMARK       I    between atoms: C1_6  and  N3_8 
REMARK    2  A    between atoms: N3_8  and  N4_10 
REMARK       I    between atoms: N4_10  and  C2_12 
REMARK    3  A    between atoms: C2_12  and  C3_14 
REMARK    4  A    between atoms: C3_14  and  O3_15 
REMARK    5  A    between atoms: C3_14  and  C4_17 
REMARK       I    between atoms: N5_22  and  C9_23 
ROOT
HETATM    1  N4  UNL     1       3.155  17.290  26.575  1.00  0.00    -0.264 N 
ATOM      2  H4  UNL     1       4.006  17.413  27.123  1.00  0.00     0.190 HD
HETATM    3  C2  UNL     1       3.139  17.807  25.260  1.00  0.00     0.267 C 
HETATM    4  O2  UNL     1       2.111  17.663  24.581  1.00  0.00    -0.269 OA
ENDROOT
BRANCH   3   5
HETATM    5  C3  UNL     1       4.327  18.499  24.718  1.00  0.00     0.234 C 
BRANCH   5   6
HETATM    6  O3  UNL     1       4.493  19.627  25.584  1.00  0.00    -0.384 OA
ATOM      7  H3  UNL     1       4.403  20.375  25.006  1.00  0.00     0.210 HD
ENDBRANCH   5   6
BRANCH   5   8
HETATM    8  C4  UNL     1       4.105  19.087  23.375  1.00  0.00     0.126 C 
HETATM    9  C5  UNL     1       3.751  20.552  23.485  1.00  0.00     0.028 C 
HETATM   10  C6  UNL     1       3.671  21.106  22.096  1.00  0.00     0.004 C 
HETATM   11  C7  UNL     1       3.547  20.091  20.990  1.00  0.00     0.020 C 
HETATM   12  C8  UNL     1       4.676  19.074  21.011  1.00  0.00     0.128 C 
HETATM   13  N5  UNL     1       5.167  19.006  22.420  1.00  0.00    -0.329 N 
HETATM   14  C9  UNL     1       6.536  18.957  22.620  1.00  0.00     0.331 C 
HETATM   15  N6  UNL     1       7.443  18.821  21.536  1.00  0.00    -0.040 NA
HETATM   16  O4  UNL     1       7.057  19.028  23.757  1.00  0.00    -0.251 OA
ENDBRANCH   5   8
ENDBRANCH   3   5
BRANCH   1  17
HETATM   17  N3  UNL     1       2.095  16.628  27.170  1.00  0.00    -0.248 N 
HETATM   18  C1  UNL     1       1.430  17.190  28.285  1.00  0.00     0.353 C 
HETATM   19  N2  UNL     1       0.347  16.501  28.884  1.00  0.00    -0.257 N 
HETATM   20  O1  UNL     1       1.796  18.291  28.741  1.00  0.00    -0.244 OA
ATOM     21  H2  UNL     1       0.070  15.602  28.489  1.00  0.00     0.191 HD
ATOM     22  H3  UNL     1       1.792  15.727  26.802  1.00  0.00     0.192 HD
BRANCH  19  23
HETATM   23  N1  UNL     1      -0.359  16.983  29.980  1.00  0.00    -0.341 N 
ATOM     24  H12 UNL     1       0.179  17.442  30.714  1.00  0.00     0.177 HD
ATOM     25  H11 UNL     1      -1.371  16.900  30.080  1.00  0.00     0.177 HD
ENDBRANCH  19  23
ENDBRANCH   1  17
TORSDOF 5
ENDMDL
MODEL 4
REMARK VINA RESULT: -7.292382310      1.869      2.269
REMARK  5 active torsions:
REMARK  status: ('A' for Active; 'I' for Inactive)
REMARK    1  A    between atoms: N1_1  and  N2_4 
REMARK       I    between atoms: N2_4  and  C1_6 
REMARK       I    between atoms: C1_6  and  N3_8 
REMARK    2  A    between atoms: N3_8  and  N4_10 
REMARK       I    between atoms: N4_10  and  C2_12 
REMARK    3  A    between atoms: C2_12  and  C3_14 
REMARK    4  A    between atoms: C3_14  and  O3_15 
REMARK    5  A    between atoms: C3_14  and  C4_17 
REMARK       I    between atoms: N5_22  and  C9_23 
ROOT
HETATM    1  N4  UNL     1       2.710  16.461  26.517  1.00  0.00    -0.264 N 
ATOM      2  H4  UNL     1       3.649  16.207  26.823  1.00  0.00     0.190 HD
HETATM    3  C2  UNL     1       2.578  17.125  25.278  1.00  0.00     0.267 C 
HETATM    4  O2  UNL     1       1.442  17.439  24.893  1.00  0.00    -0.269 OA
ENDROOT
BRANCH   3   5
HETATM    5  C3  UNL     1       3.776  17.431  24.467  1.00  0.00     0.234 C 
BRANCH   5   6
HETATM    6  O3  UNL     1       4.785  17.723  25.440  1.00  0.00    -0.384 OA
ATOM      7  H3  UNL     1       4.371  17.514  26.269  1.00  0.00     0.210 HD
ENDBRANCH   5   6
BRANCH   5   8
HETATM    8  C4  UNL     1       3.648  18.677  23.673  1.00  0.00     0.126 C 
HETATM    9  C5  UNL     1       3.758  19.892  24.565  1.00  0.00     0.028 C 
HETATM   10  C6  UNL     1       3.752  21.104  23.686  1.00  0.00     0.004 C 
HETATM   11  C7  UNL     1       3.252  20.892  22.281  1.00  0.00     0.020 C 
HETATM   12  C8  UNL     1       4.023  19.804  21.551  1.00  0.00     0.128 C 
HETATM   13  N5  UNL     1       4.568  18.889  22.598  1.00  0.00    -0.329 N 
HETATM   14  C9  UNL     1       5.869  18.443  22.445  1.00  0.00     0.331 C 
HETATM   15  N6  UNL     1       6.615  18.713  21.268  1.00  0.00    -0.040 NA
HETATM   16  O4  UNL     1       6.465  17.780  23.325  1.00  0.00    -0.251 OA
ENDBRANCH   5   8
ENDBRANCH   3   5
BRANCH   1  17
HETATM   17  N3  UNL     1       1.652  16.132  27.346  1.00  0.00    -0.248 N 
HETATM   18  C1  UNL     1       1.275  16.987  28.408  1.00  0.00     0.353 C 
HETATM   19  N2  UNL     1       0.190  16.637  29.248  1.00  0.00    -0.257 N 
HETATM   20  O1  UNL     1       1.897  18.050  28.605  1.00  0.00    -0.244 OA
ATOM     21  H2  UNL     1      -0.301  15.762  29.063  1.00  0.00     0.191 HD
ATOM     22  H3  UNL     1       1.139  15.264  27.191  1.00  0.00     0.192 HD
BRANCH  19  23
HETATM   23  N1  UNL     1      -0.243  17.422  30.311  1.00  0.00    -0.341 N 
ATOM     24  H12 UNL     1       0.007  17.112  31.250  1.00  0.00     0.177 HD
ATOM     25  H11 UNL     1      -0.789  18.276  30.196  1.00  0.00     0.177 HD
ENDBRANCH  19  23
ENDBRANCH   1  17
TORSDOF 5
ENDMDL
MODEL 5
REMARK VINA RESULT: -7.119494104      2.773      4.423
REMARK  5 active torsions:
REMARK  status: ('A' for Active; 'I' for Inactive)
REMARK    1  A    between atoms: N1_1  and  N2_4 
REMARK       I    between atoms: N2_4  and  C1_6 
REMARK       I    between atoms: C1_6  and  N3_8 
REMARK    2  A    between atoms: N3_8  and  N4_10 
REMARK       I    between atoms: N4_10  and  C2_12 
REMARK    3  A    between atoms: C2_12  and  C3_14 
REMARK    4  A    between atoms: C3_14  and  O3_15 
REMARK    5  A    between atoms: C3_14  and  C4_17 
REMARK       I    between atoms: N5_22  and  C9_23 
ROOT
HETATM    1  N4  UNL     1       3.658  19.109  25.797  1.00  0.00    -0.264 N 
ATOM      2  H4  UNL     1       4.581  18.728  25.589  1.00  0.00     0.190 HD
HETATM    3  C2  UNL     1       3.025  19.881  24.797  1.00  0.00     0.267 C 
HETATM    4  O2  UNL     1       1.901  20.349  25.035  1.00  0.00    -0.269 OA
ENDROOT
BRANCH   3   5
HETATM    5  C3  UNL     1       3.697  20.117  23.503  1.00  0.00     0.234 C 
BRANCH   5   6
HETATM    6  O3  UNL     1       2.620  20.184  22.562  1.00  0.00    -0.384 OA
ATOM      7  H3  UNL     1       2.823  20.949  22.037  1.00  0.00     0.210 HD
ENDBRANCH   5   6
BRANCH   5   8
HETATM    8  C4  UNL     1       4.522  18.971  23.049  1.00  0.00     0.126 C 
HETATM    9  C5  UNL     1       3.643  17.841  22.562  1.00  0.00     0.028 C 
HETATM   10  C6  UNL     1       4.537  16.779  22.001  1.00  0.00     0.004 C 
HETATM   11  C7  UNL     1       5.988  16.866  22.397  1.00  0.00     0.020 C 
HETATM   12  C8  UNL     1       6.602  18.211  22.045  1.00  0.00     0.128 C 
HETATM   13  N5  UNL     1       5.483  19.199  22.015  1.00  0.00    -0.329 N 
HETATM   14  C9  UNL     1       5.474  20.124  20.985  1.00  0.00     0.331 C 
HETATM   15  N6  UNL     1       6.558  20.238  20.076  1.00  0.00    -0.040 NA
HETATM   16  O4  UNL     1       4.518  20.911  20.791  1.00  0.00    -0.251 OA
ENDBRANCH   5   8
ENDBRANCH   3   5
BRANCH   1  17
HETATM   17  N3  UNL     1       3.112  18.832  27.038  1.00  0.00    -0.248 N 
HETATM   18  C1  UNL     1       2.332  17.669  27.238  1.00  0.00     0.353 C 
HETATM   19  N2  UNL     1       1.779  17.399  28.514  1.00  0.00    -0.257 N 
HETATM   20  O1  UNL     1       2.131  16.881  26.294  1.00  0.00    -0.244 OA
ATOM     21  H2  UNL     1       1.960  18.061  29.269  1.00  0.00     0.191 HD
ATOM     22  H3  UNL     1       3.272  19.473  27.815  1.00  0.00     0.192 HD
BRANCH  19  23
HETATM   23  N1  UNL     1       1.004  16.280  28.794  1.00  0.00    -0.341 N 
ATOM     24  H12 UNL     1       0.239  16.398  29.458  1.00  0.00     0.177 HD
ATOM     25  H11 UNL     1       1.162  15.364  28.374  1.00  0.00     0.177 HD
ENDBRANCH  19  23
ENDBRANCH   1  17
TORSDOF 5
ENDMDL
