MODEL 1
REMARK VINA RESULT: -5.469103052      0.000      0.000
REMARK  11 active torsions:
REMARK  status: ('A' for Active; 'I' for Inactive)
REMARK    1  A    between atoms: S1_2  and  C2_3 
REMARK    2  A    between atoms: C2_3  and  C3_4 
REMARK    3  A    between atoms: C3_4  and  C4_5 
REMARK    4  A    between atoms: C4_5  and  C5_6 
REMARK    5  A    between atoms: C6_7  and  C7_8 
REMARK    6  A    between atoms: C8_9  and  C9_10 
REMARK    7  A    between atoms: C11_13  and  O2_14 
REMARK    8  A    between atoms: O2_14  and  C12_15 
REMARK    9  A    between atoms: C14_18  and  O4_19 
REMARK   10  A    between atoms: C15_21  and  O5_22 
REMARK   11  A    between atoms: C16_24  and  O6_25 
ROOT
HETATM    1  C7  UNL     1      49.127  46.173  77.119  1.00  0.00    -0.019 A 
HETATM    2  C8  UNL     1      49.804  46.365  75.898  1.00  0.00    -0.015 A 
HETATM    3  C17 UNL     1      50.963  47.104  75.953  1.00  0.00     0.032 A 
HETATM    4  C18 UNL     1      51.494  47.646  77.050  1.00  0.00     0.035 A 
HETATM    5  C19 UNL     1      50.851  47.469  78.258  1.00  0.00     0.092 A 
HETATM    6  C20 UNL     1      49.668  46.732  78.283  1.00  0.00    -0.016 A 
HETATM    7  C21 UNL     1      49.014  46.538  79.589  1.00  0.00     0.052 C 
HETATM    8  O7  UNL     1      51.349  48.002  79.411  1.00  0.00    -0.348 OA
HETATM    9  C22 UNL     1      52.536  48.695  79.630  1.00  0.00     0.191 C 
HETATM   10  C23 UNL     1      53.677  48.242  78.730  1.00  0.00     0.073 C 
HETATM   11  C24 UNL     1      54.926  49.030  78.901  1.00  0.00     0.024 C 
HETATM   12  S2  UNL     1      53.025  48.550  77.010  1.00  0.00    -0.120 SA
ENDROOT
BRANCH   2  13
HETATM   13  C9  UNL     1      49.425  45.680  74.617  1.00  0.00     0.186 C 
HETATM   14  O1  UNL     1      50.665  45.276  74.110  1.00  0.00    -0.376 OA
HETATM   15  C10 UNL     1      50.780  44.671  72.923  1.00  0.00     0.204 C 
HETATM   16  C11 UNL     1      50.843  45.566  71.707  1.00  0.00     0.187 C 
HETATM   17  C14 UNL     1      49.496  46.153  71.381  1.00  0.00     0.181 C 
HETATM   18  C15 UNL     1      49.199  47.164  72.491  1.00  0.00     0.181 C 
HETATM   19  C16 UNL     1      48.694  46.608  73.723  1.00  0.00     0.182 C 
BRANCH  16  20
HETATM   20  O2  UNL     1      51.545  45.064  70.638  1.00  0.00    -0.311 OA
BRANCH  20  21
HETATM   21  C12 UNL     1      52.768  45.494  70.200  1.00  0.00     0.255 C 
HETATM   22  C13 UNL     1      53.477  46.631  70.774  1.00  0.00     0.126 C 
HETATM   23  O3  UNL     1      53.234  44.813  69.255  1.00  0.00    -0.266 OA
ENDBRANCH  20  21
ENDBRANCH  16  20
BRANCH  17  24
HETATM   24  O4  UNL     1      48.456  45.277  71.337  1.00  0.00    -0.390 OA
ATOM     25  H4  UNL     1      47.671  45.536  71.808  1.00  0.00     0.210 HD
ENDBRANCH  17  24
BRANCH  18  26
HETATM   26  O5  UNL     1      50.155  48.156  72.538  1.00  0.00    -0.390 OA
ATOM     27  H5  UNL     1      51.029  47.792  72.623  1.00  0.00     0.210 HD
ENDBRANCH  18  26
BRANCH  19  28
HETATM   28  O6  UNL     1      47.387  46.051  73.447  1.00  0.00    -0.390 OA
ATOM     29  H6  UNL     1      46.821  46.745  73.131  1.00  0.00     0.210 HD
ENDBRANCH  19  28
ENDBRANCH   2  13
BRANCH   1  30
HETATM   30  C6  UNL     1      47.915  45.418  77.105  1.00  0.00     0.009 C 
HETATM   31  C5  UNL     1      46.681  45.684  76.836  1.00  0.00    -0.026 C 
BRANCH  31  32
HETATM   32  C4  UNL     1      45.684  44.548  76.956  1.00  0.00     0.028 C 
BRANCH  32  33
HETATM   33  C3  UNL     1      45.679  43.635  75.768  1.00  0.00     0.014 C 
BRANCH  33  34
HETATM   34  C2  UNL     1      45.927  42.190  76.037  1.00  0.00     0.073 C 
BRANCH  34  35
HETATM   35  S1  UNL     1      47.667  41.852  75.588  1.00  0.00    -0.173 SA
HETATM   36  C1  UNL     1      48.059  42.295  73.904  1.00  0.00     0.089 C 
ENDBRANCH  34  35
ENDBRANCH  33  34
ENDBRANCH  32  33
ENDBRANCH  31  32
ENDBRANCH   1  30
TORSDOF 11
ENDMDL
MODEL 2
REMARK VINA RESULT: -5.388784101     12.583     15.286
REMARK  11 active torsions:
REMARK  status: ('A' for Active; 'I' for Inactive)
REMARK    1  A    between atoms: S1_2  and  C2_3 
REMARK    2  A    between atoms: C2_3  and  C3_4 
REMARK    3  A    between atoms: C3_4  and  C4_5 
REMARK    4  A    between atoms: C4_5  and  C5_6 
REMARK    5  A    between atoms: C6_7  and  C7_8 
REMARK    6  A    between atoms: C8_9  and  C9_10 
REMARK    7  A    between atoms: C11_13  and  O2_14 
REMARK    8  A    between atoms: O2_14  and  C12_15 
REMARK    9  A    between atoms: C14_18  and  O4_19 
REMARK   10  A    between atoms: C15_21  and  O5_22 
REMARK   11  A    between atoms: C16_24  and  O6_25 
ROOT
HETATM    1  C7  UNL     1      51.139  42.381  61.911  1.00  0.00    -0.019 A 
HETATM    2  C8  UNL     1      49.807  41.953  62.080  1.00  0.00    -0.015 A 
HETATM    3  C17 UNL     1      48.911  42.904  62.508  1.00  0.00     0.032 A 
HETATM    4  C18 UNL     1      49.192  44.181  62.774  1.00  0.00     0.035 A 
HETATM    5  C19 UNL     1      50.489  44.623  62.614  1.00  0.00     0.092 A 
HETATM    6  C20 UNL     1      51.455  43.717  62.182  1.00  0.00    -0.016 A 
HETATM    7  C21 UNL     1      52.828  44.221  61.996  1.00  0.00     0.052 C 
HETATM    8  O7  UNL     1      50.833  45.919  62.871  1.00  0.00    -0.348 OA
HETATM    9  C22 UNL     1      50.030  46.997  63.230  1.00  0.00     0.191 C 
HETATM   10  C23 UNL     1      48.633  46.939  62.628  1.00  0.00     0.073 C 
HETATM   11  C24 UNL     1      47.742  48.045  63.069  1.00  0.00     0.024 C 
HETATM   12  S2  UNL     1      47.941  45.336  63.284  1.00  0.00    -0.120 SA
ENDROOT
BRANCH   2  13
HETATM   13  C9  UNL     1      49.305  40.601  61.661  1.00  0.00     0.186 C 
HETATM   14  O1  UNL     1      48.230  40.921  60.825  1.00  0.00    -0.376 OA
HETATM   15  C10 UNL     1      47.453  39.978  60.281  1.00  0.00     0.204 C 
HETATM   16  C11 UNL     1      46.322  39.453  61.135  1.00  0.00     0.187 C 
HETATM   17  C14 UNL     1      46.826  38.543  62.222  1.00  0.00     0.181 C 
HETATM   18  C15 UNL     1      47.567  39.441  63.214  1.00  0.00     0.181 C 
HETATM   19  C16 UNL     1      48.915  39.799  62.845  1.00  0.00     0.182 C 
BRANCH  16  20
HETATM   20  O2  UNL     1      45.221  39.004  60.448  1.00  0.00    -0.311 OA
BRANCH  20  21
HETATM   21  C12 UNL     1      44.841  37.699  60.293  1.00  0.00     0.255 C 
HETATM   22  C13 UNL     1      43.656  37.123  60.916  1.00  0.00     0.126 C 
HETATM   23  O3  UNL     1      45.608  37.034  59.555  1.00  0.00    -0.266 OA
ENDBRANCH  20  21
ENDBRANCH  16  20
BRANCH  17  24
HETATM   24  O4  UNL     1      47.689  37.565  61.832  1.00  0.00    -0.390 OA
ATOM     25  H4  UNL     1      47.842  36.868  62.459  1.00  0.00     0.210 HD
ENDBRANCH  17  24
BRANCH  18  26
HETATM   26  O5  UNL     1      46.733  40.402  63.743  1.00  0.00    -0.390 OA
ATOM     27  H5  UNL     1      47.001  40.650  64.620  1.00  0.00     0.210 HD
ENDBRANCH  18  26
BRANCH  19  28
HETATM   28  O6  UNL     1      49.709  38.588  62.864  1.00  0.00    -0.390 OA
ATOM     29  H6  UNL     1      49.213  37.907  63.303  1.00  0.00     0.210 HD
ENDBRANCH  19  28
ENDBRANCH   2  13
BRANCH   1  30
HETATM   30  C6  UNL     1      52.103  41.422  61.474  1.00  0.00     0.009 C 
HETATM   31  C5  UNL     1      53.007  40.709  62.059  1.00  0.00    -0.026 C 
BRANCH  31  32
HETATM   32  C4  UNL     1      53.841  39.793  61.186  1.00  0.00     0.028 C 
BRANCH  32  33
HETATM   33  C3  UNL     1      53.134  38.528  60.808  1.00  0.00     0.014 C 
BRANCH  33  34
HETATM   34  C2  UNL     1      53.987  37.324  60.601  1.00  0.00     0.073 C 
BRANCH  34  35
HETATM   35  S1  UNL     1      53.152  35.925  61.431  1.00  0.00    -0.173 SA
HETATM   36  C1  UNL     1      51.388  35.896  61.158  1.00  0.00     0.089 C 
ENDBRANCH  34  35
ENDBRANCH  33  34
ENDBRANCH  32  33
ENDBRANCH  31  32
ENDBRANCH   1  30
TORSDOF 11
ENDMDL
MODEL 3
REMARK VINA RESULT: -5.383595821      1.095      1.150
REMARK  11 active torsions:
REMARK  status: ('A' for Active; 'I' for Inactive)
REMARK    1  A    between atoms: S1_2  and  C2_3 
REMARK    2  A    between atoms: C2_3  and  C3_4 
REMARK    3  A    between atoms: C3_4  and  C4_5 
REMARK    4  A    between atoms: C4_5  and  C5_6 
REMARK    5  A    between atoms: C6_7  and  C7_8 
REMARK    6  A    between atoms: C8_9  and  C9_10 
REMARK    7  A    between atoms: C11_13  and  O2_14 
REMARK    8  A    between atoms: O2_14  and  C12_15 
REMARK    9  A    between atoms: C14_18  and  O4_19 
REMARK   10  A    between atoms: C15_21  and  O5_22 
REMARK   11  A    between atoms: C16_24  and  O6_25 
ROOT
HETATM    1  C7  UNL     1      49.316  46.479  77.096  1.00  0.00    -0.019 A 
HETATM    2  C8  UNL     1      49.952  46.777  75.875  1.00  0.00    -0.015 A 
HETATM    3  C17 UNL     1      51.206  47.334  75.961  1.00  0.00     0.032 A 
HETATM    4  C18 UNL     1      51.863  47.612  77.089  1.00  0.00     0.035 A 
HETATM    5  C19 UNL     1      51.261  47.328  78.297  1.00  0.00     0.092 A 
HETATM    6  C20 UNL     1      49.988  46.761  78.291  1.00  0.00    -0.016 A 
HETATM    7  C21 UNL     1      49.376  46.444  79.595  1.00  0.00     0.052 C 
HETATM    8  O7  UNL     1      51.887  47.592  79.480  1.00  0.00    -0.348 OA
HETATM    9  C22 UNL     1      53.170  48.074  79.720  1.00  0.00     0.191 C 
HETATM   10  C23 UNL     1      54.189  47.627  78.680  1.00  0.00     0.073 C 
HETATM   11  C24 UNL     1      55.545  48.201  78.882  1.00  0.00     0.024 C 
HETATM   12  S2  UNL     1      53.504  48.297  77.080  1.00  0.00    -0.120 SA
ENDROOT
BRANCH   2  13
HETATM   13  C9  UNL     1      49.417  46.368  74.533  1.00  0.00     0.186 C 
HETATM   14  O1  UNL     1      50.172  45.228  74.238  1.00  0.00    -0.376 OA
HETATM   15  C10 UNL     1      50.047  44.579  73.076  1.00  0.00     0.204 C 
HETATM   16  C11 UNL     1      50.844  45.115  71.909  1.00  0.00     0.187 C 
HETATM   17  C14 UNL     1      50.247  46.387  71.369  1.00  0.00     0.181 C 
HETATM   18  C15 UNL     1      50.504  47.456  72.434  1.00  0.00     0.181 C 
HETATM   19  C16 UNL     1      49.587  47.462  73.547  1.00  0.00     0.182 C 
BRANCH  16  20
HETATM   20  O2  UNL     1      51.212  44.186  70.967  1.00  0.00    -0.311 OA
BRANCH  20  21
HETATM   21  C12 UNL     1      52.443  44.074  70.379  1.00  0.00     0.255 C 
HETATM   22  C13 UNL     1      53.074  45.144  69.617  1.00  0.00     0.126 C 
HETATM   23  O3  UNL     1      52.990  42.960  70.561  1.00  0.00    -0.266 OA
ENDBRANCH  20  21
ENDBRANCH  16  20
BRANCH  17  24
HETATM   24  O4  UNL     1      48.909  46.364  71.127  1.00  0.00    -0.390 OA
ATOM     25  H4  UNL     1      48.388  47.006  71.597  1.00  0.00     0.210 HD
ENDBRANCH  17  24
BRANCH  18  26
HETATM   26  O5  UNL     1      51.852  47.622  72.667  1.00  0.00    -0.390 OA
ATOM     27  H5  UNL     1      52.095  47.317  73.533  1.00  0.00     0.210 HD
ENDBRANCH  18  26
BRANCH  19  28
HETATM   28  O6  UNL     1      48.283  47.831  73.038  1.00  0.00    -0.390 OA
ATOM     29  H6  UNL     1      47.690  47.099  73.162  1.00  0.00     0.210 HD
ENDBRANCH  19  28
ENDBRANCH   2  13
BRANCH   1  30
HETATM   30  C6  UNL     1      48.008  45.906  77.052  1.00  0.00     0.009 C 
HETATM   31  C5  UNL     1      46.822  46.362  76.823  1.00  0.00    -0.026 C 
BRANCH  31  32
HETATM   32  C4  UNL     1      45.675  45.372  76.882  1.00  0.00     0.028 C 
BRANCH  32  33
HETATM   33  C3  UNL     1      46.117  43.969  77.163  1.00  0.00     0.014 C 
BRANCH  33  34
HETATM   34  C2  UNL     1      45.694  42.928  76.184  1.00  0.00     0.073 C 
BRANCH  34  35
HETATM   35  S1  UNL     1      46.887  42.978  74.799  1.00  0.00    -0.173 SA
HETATM   36  C1  UNL     1      46.459  44.175  73.544  1.00  0.00     0.089 C 
ENDBRANCH  34  35
ENDBRANCH  33  34
ENDBRANCH  32  33
ENDBRANCH  31  32
ENDBRANCH   1  30
TORSDOF 11
ENDMDL
MODEL 4
REMARK VINA RESULT: -5.317561959     13.407     15.626
REMARK  11 active torsions:
REMARK  status: ('A' for Active; 'I' for Inactive)
REMARK    1  A    between atoms: S1_2  and  C2_3 
REMARK    2  A    between atoms: C2_3  and  C3_4 
REMARK    3  A    between atoms: C3_4  and  C4_5 
REMARK    4  A    between atoms: C4_5  and  C5_6 
REMARK    5  A    between atoms: C6_7  and  C7_8 
REMARK    6  A    between atoms: C8_9  and  C9_10 
REMARK    7  A    between atoms: C11_13  and  O2_14 
REMARK    8  A    between atoms: O2_14  and  C12_15 
REMARK    9  A    between atoms: C14_18  and  O4_19 
REMARK   10  A    between atoms: C15_21  and  O5_22 
REMARK   11  A    between atoms: C16_24  and  O6_25 
ROOT
HETATM    1  C7  UNL     1      49.284  43.082  62.097  1.00  0.00    -0.019 A 
HETATM    2  C8  UNL     1      48.190  42.227  61.859  1.00  0.00    -0.015 A 
HETATM    3  C17 UNL     1      46.956  42.827  61.763  1.00  0.00     0.032 A 
HETATM    4  C18 UNL     1      46.711  44.134  61.874  1.00  0.00     0.035 A 
HETATM    5  C19 UNL     1      47.766  44.991  62.106  1.00  0.00     0.092 A 
HETATM    6  C20 UNL     1      49.049  44.458  62.216  1.00  0.00    -0.016 A 
HETATM    7  C21 UNL     1      50.162  45.397  62.440  1.00  0.00     0.052 C 
HETATM    8  O7  UNL     1      47.573  46.336  62.230  1.00  0.00    -0.348 OA
HETATM    9  C22 UNL     1      46.410  47.085  62.080  1.00  0.00     0.191 C 
HETATM   10  C23 UNL     1      45.451  46.514  61.044  1.00  0.00     0.073 C 
HETATM   11  C24 UNL     1      44.170  47.262  60.933  1.00  0.00     0.024 C 
HETATM   12  S2  UNL     1      45.075  44.806  61.692  1.00  0.00    -0.120 SA
ENDROOT
BRANCH   2  13
HETATM   13  C9  UNL     1      48.326  40.766  61.541  1.00  0.00     0.186 C 
HETATM   14  O1  UNL     1      47.272  40.548  60.648  1.00  0.00    -0.376 OA
HETATM   15  C10 UNL     1      46.997  39.333  60.164  1.00  0.00     0.204 C 
HETATM   16  C11 UNL     1      46.137  38.436  61.023  1.00  0.00     0.187 C 
HETATM   17  C14 UNL     1      46.905  37.894  62.199  1.00  0.00     0.181 C 
HETATM   18  C15 UNL     1      47.138  39.084  63.133  1.00  0.00     0.181 C 
HETATM   19  C16 UNL     1      48.234  39.952  62.777  1.00  0.00     0.182 C 
BRANCH  16  20
HETATM   20  O2  UNL     1      45.370  37.521  60.344  1.00  0.00    -0.311 OA
BRANCH  20  21
HETATM   21  C12 UNL     1      44.580  36.554  60.903  1.00  0.00     0.255 C 
HETATM   22  C13 UNL     1      44.862  35.127  60.810  1.00  0.00     0.126 C 
HETATM   23  O3  UNL     1      43.583  37.008  61.515  1.00  0.00    -0.266 OA
ENDBRANCH  20  21
ENDBRANCH  16  20
BRANCH  17  24
HETATM   24  O4  UNL     1      48.120  37.349  61.920  1.00  0.00    -0.390 OA
ATOM     25  H4  UNL     1      48.449  36.716  62.548  1.00  0.00     0.210 HD
ENDBRANCH  17  24
BRANCH  18  26
HETATM   26  O5  UNL     1      45.948  39.636  63.553  1.00  0.00    -0.390 OA
ATOM     27  H5  UNL     1      46.033  40.036  64.410  1.00  0.00     0.210 HD
ENDBRANCH  18  26
BRANCH  19  28
HETATM   28  O6  UNL     1      49.458  39.193  62.922  1.00  0.00    -0.390 OA
ATOM     29  H6  UNL     1      49.311  38.314  62.592  1.00  0.00     0.210 HD
ENDBRANCH  19  28
ENDBRANCH   2  13
BRANCH   1  30
HETATM   30  C6  UNL     1      50.582  42.499  62.211  1.00  0.00     0.009 C 
HETATM   31  C5  UNL     1      51.303  42.068  63.191  1.00  0.00    -0.026 C 
BRANCH  31  32
HETATM   32  C4  UNL     1      52.672  41.511  62.853  1.00  0.00     0.028 C 
BRANCH  32  33
HETATM   33  C3  UNL     1      52.763  40.965  61.461  1.00  0.00     0.014 C 
BRANCH  33  34
HETATM   34  C2  UNL     1      52.646  39.486  61.316  1.00  0.00     0.073 C 
BRANCH  34  35
HETATM   35  S1  UNL     1      51.481  39.171  59.943  1.00  0.00    -0.173 SA
HETATM   36  C1  UNL     1      51.070  40.642  59.018  1.00  0.00     0.089 C 
ENDBRANCH  34  35
ENDBRANCH  33  34
ENDBRANCH  32  33
ENDBRANCH  31  32
ENDBRANCH   1  30
TORSDOF 11
ENDMDL
MODEL 5
REMARK VINA RESULT: -5.275745434     12.583     15.439
REMARK  11 active torsions:
REMARK  status: ('A' for Active; 'I' for Inactive)
REMARK    1  A    between atoms: S1_2  and  C2_3 
REMARK    2  A    between atoms: C2_3  and  C3_4 
REMARK    3  A    between atoms: C3_4  and  C4_5 
REMARK    4  A    between atoms: C4_5  and  C5_6 
REMARK    5  A    between atoms: C6_7  and  C7_8 
REMARK    6  A    between atoms: C8_9  and  C9_10 
REMARK    7  A    between atoms: C11_13  and  O2_14 
REMARK    8  A    between atoms: O2_14  and  C12_15 
REMARK    9  A    between atoms: C14_18  and  O4_19 
REMARK   10  A    between atoms: C15_21  and  O5_22 
REMARK   11  A    between atoms: C16_24  and  O6_25 
ROOT
HETATM    1  C7  UNL     1      49.253  42.962  62.083  1.00  0.00    -0.019 A 
HETATM    2  C8  UNL     1      48.146  42.127  61.833  1.00  0.00    -0.015 A 
HETATM    3  C17 UNL     1      46.925  42.749  61.727  1.00  0.00     0.032 A 
HETATM    4  C18 UNL     1      46.702  44.060  61.839  1.00  0.00     0.035 A 
HETATM    5  C19 UNL     1      47.770  44.898  62.081  1.00  0.00     0.092 A 
HETATM    6  C20 UNL     1      49.042  44.341  62.202  1.00  0.00    -0.016 A 
HETATM    7  C21 UNL     1      50.170  45.260  62.437  1.00  0.00     0.052 C 
HETATM    8  O7  UNL     1      47.600  46.246  62.205  1.00  0.00    -0.348 OA
HETATM    9  C22 UNL     1      46.452  47.016  62.046  1.00  0.00     0.191 C 
HETATM   10  C23 UNL     1      45.493  46.464  61.000  1.00  0.00     0.073 C 
HETATM   11  C24 UNL     1      44.227  47.235  60.879  1.00  0.00     0.024 C 
HETATM   12  S2  UNL     1      45.080  44.762  61.642  1.00  0.00    -0.120 SA
ENDROOT
BRANCH   2  13
HETATM   13  C9  UNL     1      48.259  40.664  61.515  1.00  0.00     0.186 C 
HETATM   14  O1  UNL     1      47.191  40.460  60.634  1.00  0.00    -0.376 OA
HETATM   15  C10 UNL     1      46.895  39.249  60.153  1.00  0.00     0.204 C 
HETATM   16  C11 UNL     1      46.032  38.364  61.023  1.00  0.00     0.187 C 
HETATM   17  C14 UNL     1      46.806  37.812  62.190  1.00  0.00     0.181 C 
HETATM   18  C15 UNL     1      47.066  38.999  63.120  1.00  0.00     0.181 C 
HETATM   19  C16 UNL     1      48.170  39.852  62.752  1.00  0.00     0.182 C 
BRANCH  16  20
HETATM   20  O2  UNL     1      45.245  37.460  60.352  1.00  0.00    -0.311 OA
BRANCH  20  21
HETATM   21  C12 UNL     1      44.442  36.509  60.921  1.00  0.00     0.255 C 
HETATM   22  C13 UNL     1      44.708  35.078  60.846  1.00  0.00     0.126 C 
HETATM   23  O3  UNL     1      43.449  36.981  61.524  1.00  0.00    -0.266 OA
ENDBRANCH  20  21
ENDBRANCH  16  20
BRANCH  17  24
HETATM   24  O4  UNL     1      48.011  37.251  61.897  1.00  0.00    -0.390 OA
ATOM     25  H4  UNL     1      48.198  37.119  60.975  1.00  0.00     0.210 HD
ENDBRANCH  17  24
BRANCH  18  26
HETATM   26  O5  UNL     1      45.888  39.567  63.554  1.00  0.00    -0.390 OA
ATOM     27  H5  UNL     1      45.181  38.932  63.567  1.00  0.00     0.210 HD
ENDBRANCH  18  26
BRANCH  19  28
HETATM   28  O6  UNL     1      49.385  39.076  62.884  1.00  0.00    -0.390 OA
ATOM     29  H6  UNL     1      49.891  39.426  63.607  1.00  0.00     0.210 HD
ENDBRANCH  19  28
ENDBRANCH   2  13
BRANCH   1  30
HETATM   30  C6  UNL     1      50.540  42.355  62.208  1.00  0.00     0.009 C 
HETATM   31  C5  UNL     1      51.256  41.936  63.197  1.00  0.00    -0.026 C 
BRANCH  31  32
HETATM   32  C4  UNL     1      52.612  41.341  62.869  1.00  0.00     0.028 C 
BRANCH  32  33
HETATM   33  C3  UNL     1      53.718  42.352  62.870  1.00  0.00     0.014 C 
BRANCH  33  34
HETATM   34  C2  UNL     1      53.634  43.430  63.896  1.00  0.00     0.073 C 
BRANCH  34  35
HETATM   35  S1  UNL     1      53.995  45.008  63.046  1.00  0.00    -0.173 SA
HETATM   36  C1  UNL     1      53.595  46.444  64.029  1.00  0.00     0.089 C 
ENDBRANCH  34  35
ENDBRANCH  33  34
ENDBRANCH  32  33
ENDBRANCH  31  32
ENDBRANCH   1  30
TORSDOF 11
ENDMDL
