MODEL 1
REMARK VINA RESULT: -4.758277989      0.000      0.000
REMARK  4 active torsions:
REMARK  status: ('A' for Active; 'I' for Inactive)
REMARK    1  A    between atoms: N1_1  and  N2_4 
REMARK    2  A    between atoms: C1_6  and  C2_7 
REMARK    3  A    between atoms: C2_7  and  C3_8 
REMARK    4  A    between atoms: C4_9  and  C5_10 
ROOT
HETATM    1  N2  UNL     1      -7.351  31.354  32.990  1.00  0.00    -0.321 N 
ATOM      2  H2  UNL     1      -7.932  30.516  32.961  1.00  0.00     0.185 HD
HETATM    3  C1  UNL     1      -6.236  31.325  33.633  1.00  0.00     0.091 C 
ENDROOT
BRANCH   3   4
HETATM    4  C2  UNL     1      -5.767  30.104  34.337  1.00  0.00     0.140 C 
BRANCH   4   5
HETATM    5  C3  UNL     1      -6.747  29.678  35.362  1.00  0.00    -0.101 C 
HETATM    6  C4  UNL     1      -7.534  29.314  36.199  1.00  0.00    -0.101 C 
BRANCH   6   7
HETATM    7  C5  UNL     1      -8.472  28.856  37.223  1.00  0.00     0.065 A 
HETATM    8  C6  UNL     1      -8.296  27.504  37.813  1.00  0.00     0.018 A 
HETATM    9  C7  UNL     1      -7.878  28.711  38.596  1.00  0.00     0.018 A 
ENDBRANCH   6   7
ENDBRANCH   4   5
ENDBRANCH   3   4
BRANCH   1  10
HETATM   10  N1  UNL     1      -7.777  32.490  32.340  1.00  0.00    -0.346 N 
ATOM     11  H12 UNL     1      -7.486  33.395  32.709  1.00  0.00     0.176 HD
ATOM     12  H11 UNL     1      -8.368  32.440  31.510  1.00  0.00     0.176 HD
ENDBRANCH   1  10
TORSDOF 4
ENDMDL
MODEL 2
REMARK VINA RESULT: -4.747910006      0.730      1.022
REMARK  4 active torsions:
REMARK  status: ('A' for Active; 'I' for Inactive)
REMARK    1  A    between atoms: N1_1  and  N2_4 
REMARK    2  A    between atoms: C1_6  and  C2_7 
REMARK    3  A    between atoms: C2_7  and  C3_8 
REMARK    4  A    between atoms: C4_9  and  C5_10 
ROOT
HETATM    1  N2  UNL     1      -7.332  31.382  33.004  1.00  0.00    -0.321 N 
ATOM      2  H2  UNL     1      -7.933  30.558  33.002  1.00  0.00     0.185 HD
HETATM    3  C1  UNL     1      -6.210  31.341  33.636  1.00  0.00     0.091 C 
ENDROOT
BRANCH   3   4
HETATM    4  C2  UNL     1      -5.764  30.127  34.364  1.00  0.00     0.140 C 
BRANCH   4   5
HETATM    5  C3  UNL     1      -6.675  29.822  35.490  1.00  0.00    -0.101 C 
HETATM    6  C4  UNL     1      -7.401  29.569  36.418  1.00  0.00    -0.101 C 
BRANCH   6   7
HETATM    7  C5  UNL     1      -8.262  29.262  37.560  1.00  0.00     0.065 A 
HETATM    8  C6  UNL     1      -7.720  29.410  38.936  1.00  0.00     0.018 A 
HETATM    9  C7  UNL     1      -8.647  30.454  38.392  1.00  0.00     0.018 A 
ENDBRANCH   6   7
ENDBRANCH   4   5
ENDBRANCH   3   4
BRANCH   1  10
HETATM   10  N1  UNL     1      -7.737  32.512  32.332  1.00  0.00    -0.346 N 
ATOM     11  H12 UNL     1      -7.866  33.372  32.866  1.00  0.00     0.176 HD
ATOM     12  H11 UNL     1      -7.908  32.502  31.326  1.00  0.00     0.176 HD
ENDBRANCH   1  10
TORSDOF 4
ENDMDL
MODEL 3
REMARK VINA RESULT: -4.688184949      1.123      1.680
REMARK  4 active torsions:
REMARK  status: ('A' for Active; 'I' for Inactive)
REMARK    1  A    between atoms: N1_1  and  N2_4 
REMARK    2  A    between atoms: C1_6  and  C2_7 
REMARK    3  A    between atoms: C2_7  and  C3_8 
REMARK    4  A    between atoms: C4_9  and  C5_10 
ROOT
HETATM    1  N2  UNL     1      -7.556  32.772  32.513  1.00  0.00    -0.321 N 
ATOM      2  H2  UNL     1      -8.071  31.896  32.421  1.00  0.00     0.185 HD
HETATM    3  C1  UNL     1      -6.344  32.747  32.947  1.00  0.00     0.091 C 
ENDROOT
BRANCH   3   4
HETATM    4  C2  UNL     1      -5.669  31.478  33.319  1.00  0.00     0.140 C 
BRANCH   4   5
HETATM    5  C3  UNL     1      -6.493  30.703  34.274  1.00  0.00    -0.101 C 
HETATM    6  C4  UNL     1      -7.157  30.085  35.067  1.00  0.00    -0.101 C 
BRANCH   6   7
HETATM    7  C5  UNL     1      -7.961  29.353  36.045  1.00  0.00     0.065 A 
HETATM    8  C6  UNL     1      -7.511  29.306  37.461  1.00  0.00     0.018 A 
HETATM    9  C7  UNL     1      -8.635  30.218  37.074  1.00  0.00     0.018 A 
ENDBRANCH   6   7
ENDBRANCH   4   5
ENDBRANCH   3   4
BRANCH   1  10
HETATM   10  N1  UNL     1      -8.174  33.953  32.170  1.00  0.00    -0.346 N 
ATOM     11  H12 UNL     1      -8.441  34.592  32.919  1.00  0.00     0.176 HD
ATOM     12  H11 UNL     1      -8.364  34.193  31.197  1.00  0.00     0.176 HD
ENDBRANCH   1  10
TORSDOF 4
ENDMDL
MODEL 4
REMARK VINA RESULT: -4.650639572      1.987      2.611
REMARK  4 active torsions:
REMARK  status: ('A' for Active; 'I' for Inactive)
REMARK    1  A    between atoms: N1_1  and  N2_4 
REMARK    2  A    between atoms: C1_6  and  C2_7 
REMARK    3  A    between atoms: C2_7  and  C3_8 
REMARK    4  A    between atoms: C4_9  and  C5_10 
ROOT
HETATM    1  N2  UNL     1      -4.529  32.047  33.774  1.00  0.00    -0.321 N 
ATOM      2  H2  UNL     1      -4.802  31.292  34.404  1.00  0.00     0.185 HD
HETATM    3  C1  UNL     1      -5.413  32.569  32.997  1.00  0.00     0.091 C 
ENDROOT
BRANCH   3   4
HETATM    4  C2  UNL     1      -6.823  32.104  32.989  1.00  0.00     0.140 C 
BRANCH   4   5
HETATM    5  C3  UNL     1      -7.027  31.020  33.976  1.00  0.00    -0.101 C 
HETATM    6  C4  UNL     1      -7.190  30.151  34.795  1.00  0.00    -0.101 C 
BRANCH   6   7
HETATM    7  C5  UNL     1      -7.394  29.114  35.806  1.00  0.00     0.065 A 
HETATM    8  C6  UNL     1      -7.372  29.489  37.243  1.00  0.00     0.018 A 
HETATM    9  C7  UNL     1      -8.684  29.228  36.569  1.00  0.00     0.018 A 
ENDBRANCH   6   7
ENDBRANCH   4   5
ENDBRANCH   3   4
BRANCH   1  10
HETATM   10  N1  UNL     1      -3.224  32.484  33.775  1.00  0.00    -0.346 N 
ATOM     11  H12 UNL     1      -2.497  31.834  33.475  1.00  0.00     0.176 HD
ATOM     12  H11 UNL     1      -2.979  33.430  34.065  1.00  0.00     0.176 HD
ENDBRANCH   1  10
TORSDOF 4
ENDMDL
MODEL 5
REMARK VINA RESULT: -4.557568971      1.422      1.737
REMARK  4 active torsions:
REMARK  status: ('A' for Active; 'I' for Inactive)
REMARK    1  A    between atoms: N1_1  and  N2_4 
REMARK    2  A    between atoms: C1_6  and  C2_7 
REMARK    3  A    between atoms: C2_7  and  C3_8 
REMARK    4  A    between atoms: C4_9  and  C5_10 
ROOT
HETATM    1  N2  UNL     1      -7.719  31.451  33.043  1.00  0.00    -0.321 N 
ATOM      2  H2  UNL     1      -8.542  30.885  33.253  1.00  0.00     0.185 HD
HETATM    3  C1  UNL     1      -6.609  31.195  33.645  1.00  0.00     0.091 C 
ENDROOT
BRANCH   3   4
HETATM    4  C2  UNL     1      -6.489  30.098  34.638  1.00  0.00     0.140 C 
BRANCH   4   5
HETATM    5  C3  UNL     1      -7.531  30.218  35.684  1.00  0.00    -0.101 C 
HETATM    6  C4  UNL     1      -8.385  30.334  36.525  1.00  0.00    -0.101 C 
BRANCH   6   7
HETATM    7  C5  UNL     1      -9.435  30.489  37.532  1.00  0.00     0.065 A 
HETATM    8  C6  UNL     1     -10.843  30.196  37.160  1.00  0.00     0.018 A 
HETATM    9  C7  UNL     1     -10.073  29.201  37.975  1.00  0.00     0.018 A 
ENDBRANCH   6   7
ENDBRANCH   4   5
ENDBRANCH   3   4
BRANCH   1  10
HETATM   10  N1  UNL     1      -7.821  32.469  32.124  1.00  0.00    -0.346 N 
ATOM     11  H12 UNL     1      -7.033  33.109  32.023  1.00  0.00     0.176 HD
ATOM     12  H11 UNL     1      -8.657  32.591  31.553  1.00  0.00     0.176 HD
ENDBRANCH   1  10
TORSDOF 4
ENDMDL
